MODEL 1
REMARK VINA RESULT:    -4.716      0.000      0.000
REMARK INTER + INTRA:          -6.845
REMARK INTER:                  -6.293
REMARK INTRA:                  -0.552
REMARK UNBOUND:                -0.337
REMARK  Name = 75427
REMARK  8 active torsions:
REMARK  status: ('A' for Active; 'I' for Inactive)
REMARK    1  A    between atoms: C_2  and  C_3
REMARK    2  A    between atoms: C_2  and  C_5
REMARK    3  A    between atoms: C_2  and  C_6
REMARK    4  A    between atoms: C_3  and  C_4
REMARK    5  A    between atoms: C_4  and  C_7
REMARK    6  A    between atoms: C_5  and  C_9
REMARK    7  A    between atoms: C_8  and  C_10
REMARK    8  A    between atoms: C_8  and  C_11
REMARK                            x       y       z     vdW  Elec       q    Type
REMARK                         _______ _______ _______ _____ _____    ______ ____
ROOT
ATOM      1  C   UNL     1      16.411  -4.859  -1.385  0.00  0.00    +0.000 C 
ATOM      2  H   UNL     1      16.003  -3.928  -0.970  0.00  0.00    +0.000 HD
ATOM      3  H   UNL     1      17.335  -5.067  -0.827  0.00  0.00    +0.000 HD
ENDROOT
BRANCH   1   4
ATOM      4  C   UNL     1      16.745  -4.643  -2.865  0.00  0.00    +0.000 C 
ATOM      5  H   UNL     1      16.104  -5.236  -3.522  0.00  0.00    +0.000 HD
ATOM      6  H   UNL     1      16.553  -3.597  -3.134  0.00  0.00    +0.000 HD
BRANCH   4   7
ATOM      7  C   UNL     1      18.190  -4.947  -3.144  0.00  0.00    +0.000 C 
ATOM      8  C   UNL     1      18.690  -5.811  -4.047  0.00  0.00    +0.000 C 
ATOM      9  H   UNL     1      18.899  -4.396  -2.525  0.00  0.00    +0.000 HD
BRANCH   8  10
ATOM     10  C   UNL     1      20.151  -6.070  -4.278  0.00  0.00    +0.000 C 
ATOM     11  H   UNL     1      20.415  -5.971  -5.337  0.00  0.00    +0.000 HD
ATOM     12  H   UNL     1      20.761  -5.358  -3.713  0.00  0.00    +0.000 HD
ATOM     13  H   UNL     1      20.414  -7.085  -3.962  0.00  0.00    +0.000 HD
ENDBRANCH   8  10
BRANCH   8  14
ATOM     14  C   UNL     1      17.768  -6.624  -4.917  0.00  0.00    +0.000 C 
ATOM     15  H   UNL     1      16.728  -6.339  -4.723  0.00  0.00    +0.000 HD
ATOM     16  H   UNL     1      17.877  -7.688  -4.685  0.00  0.00    +0.000 HD
ATOM     17  H   UNL     1      17.924  -6.496  -5.990  0.00  0.00    +0.000 HD
ENDBRANCH   8  14
ENDBRANCH   4   7
ENDBRANCH   1   4
BRANCH   1  18
ATOM     18  C   UNL     1      15.404  -6.002  -1.139  0.00  0.00    +0.000 C 
ATOM     19  H   UNL     1      14.483  -5.581  -0.716  0.00  0.00    +0.000 HD
BRANCH  18  20
ATOM     20  C   UNL     1      15.037  -6.721  -2.443  0.00  0.00    +0.000 C 
ATOM     21  H   UNL     1      15.712  -6.444  -3.258  0.00  0.00    +0.000 HD
ATOM     22  H   UNL     1      15.114  -7.807  -2.338  0.00  0.00    +0.000 HD
ATOM     23  H   UNL     1      14.015  -6.478  -2.754  0.00  0.00    +0.000 HD
ENDBRANCH  18  20
BRANCH  18  24
ATOM     24  C   UNL     1      15.997  -6.995  -0.124  0.00  0.00    +0.000 C 
ATOM     25  H   UNL     1      15.611  -8.003  -0.313  0.00  0.00    +0.000 HD
ATOM     26  H   UNL     1      15.704  -6.720   0.896  0.00  0.00    +0.000 HD
BRANCH  24  28
ATOM     27  O   UNL     1      18.230  -7.207   0.819  0.00  0.00    +0.000 OA
ATOM     28  C   UNL     1      17.507  -7.088  -0.163  0.00  0.00    +0.000 C 
ATOM     29  H   UNL     1      17.948  -7.048  -1.175  0.00  0.00    +0.000 HD
ENDBRANCH  24  28
ENDBRANCH  18  24
ENDBRANCH   1  18
TORSDOF 8
ENDMDL
MODEL 2
REMARK VINA RESULT:    -4.496      2.138      4.612
REMARK INTER + INTRA:          -6.541
REMARK INTER:                  -5.822
REMARK INTRA:                  -0.719
REMARK UNBOUND:                -0.337
REMARK  Name = 75427
REMARK  8 active torsions:
REMARK  status: ('A' for Active; 'I' for Inactive)
REMARK    1  A    between atoms: C_2  and  C_3
REMARK    2  A    between atoms: C_2  and  C_5
REMARK    3  A    between atoms: C_2  and  C_6
REMARK    4  A    between atoms: C_3  and  C_4
REMARK    5  A    between atoms: C_4  and  C_7
REMARK    6  A    between atoms: C_5  and  C_9
REMARK    7  A    between atoms: C_8  and  C_10
REMARK    8  A    between atoms: C_8  and  C_11
REMARK                            x       y       z     vdW  Elec       q    Type
REMARK                         _______ _______ _______ _____ _____    ______ ____
ROOT
ATOM      1  C   UNL     1      15.965  -4.777  -2.600  0.00  0.00    +0.000 C 
ATOM      2  H   UNL     1      15.375  -4.248  -1.840  0.00  0.00    +0.000 HD
ATOM      3  H   UNL     1      15.528  -4.508  -3.572  0.00  0.00    +0.000 HD
ENDROOT
BRANCH   1   4
ATOM      4  C   UNL     1      15.827  -6.287  -2.378  0.00  0.00    +0.000 C 
ATOM      5  H   UNL     1      15.224  -6.764  -3.154  0.00  0.00    +0.000 HD
ATOM      6  H   UNL     1      16.816  -6.758  -2.445  0.00  0.00    +0.000 HD
BRANCH   4   7
ATOM      7  C   UNL     1      15.252  -6.585  -1.022  0.00  0.00    +0.000 C 
ATOM      8  C   UNL     1      15.902  -7.039   0.066  0.00  0.00    +0.000 C 
ATOM      9  H   UNL     1      14.179  -6.413  -0.934  0.00  0.00    +0.000 HD
BRANCH   8  10
ATOM     10  C   UNL     1      15.266  -7.317   1.399  0.00  0.00    +0.000 C 
ATOM     11  H   UNL     1      15.753  -8.155   1.910  0.00  0.00    +0.000 HD
ATOM     12  H   UNL     1      15.338  -6.439   2.048  0.00  0.00    +0.000 HD
ATOM     13  H   UNL     1      14.209  -7.574   1.270  0.00  0.00    +0.000 HD
ENDBRANCH   8  10
BRANCH   8  14
ATOM     14  C   UNL     1      17.379  -7.323   0.009  0.00  0.00    +0.000 C 
ATOM     15  H   UNL     1      17.925  -6.565   0.583  0.00  0.00    +0.000 HD
ATOM     16  H   UNL     1      17.728  -7.280  -1.028  0.00  0.00    +0.000 HD
ATOM     17  H   UNL     1      17.673  -8.290   0.424  0.00  0.00    +0.000 HD
ENDBRANCH   8  14
ENDBRANCH   4   7
ENDBRANCH   1   4
BRANCH   1  18
ATOM     18  C   UNL     1      17.423  -4.275  -2.544  0.00  0.00    +0.000 C 
ATOM     19  H   UNL     1      17.529  -3.414  -3.216  0.00  0.00    +0.000 HD
BRANCH  18  20
ATOM     20  C   UNL     1      17.808  -3.819  -1.131  0.00  0.00    +0.000 C 
ATOM     21  H   UNL     1      17.765  -4.646  -0.416  0.00  0.00    +0.000 HD
ATOM     22  H   UNL     1      18.833  -3.439  -1.097  0.00  0.00    +0.000 HD
ATOM     23  H   UNL     1      17.138  -3.030  -0.773  0.00  0.00    +0.000 HD
ENDBRANCH  18  20
BRANCH  18  24
ATOM     24  C   UNL     1      18.366  -5.390  -3.026  0.00  0.00    +0.000 C 
ATOM     25  H   UNL     1      17.803  -6.142  -3.592  0.00  0.00    +0.000 HD
ATOM     26  H   UNL     1      18.823  -5.901  -2.170  0.00  0.00    +0.000 HD
BRANCH  24  28
ATOM     27  O   UNL     1      19.905  -3.758  -3.969  0.00  0.00    +0.000 OA
ATOM     28  C   UNL     1      19.482  -4.908  -3.927  0.00  0.00    +0.000 C 
ATOM     29  H   UNL     1      19.924  -5.686  -4.574  0.00  0.00    +0.000 HD
ENDBRANCH  24  28
ENDBRANCH  18  24
ENDBRANCH   1  18
TORSDOF 8
ENDMDL
MODEL 3
REMARK VINA RESULT:    -4.368     24.421     26.636
REMARK INTER + INTRA:          -6.366
REMARK INTER:                  -6.000
REMARK INTRA:                  -0.365
REMARK UNBOUND:                -0.337
REMARK  Name = 75427
REMARK  8 active torsions:
REMARK  status: ('A' for Active; 'I' for Inactive)
REMARK    1  A    between atoms: C_2  and  C_3
REMARK    2  A    between atoms: C_2  and  C_5
REMARK    3  A    between atoms: C_2  and  C_6
REMARK    4  A    between atoms: C_3  and  C_4
REMARK    5  A    between atoms: C_4  and  C_7
REMARK    6  A    between atoms: C_5  and  C_9
REMARK    7  A    between atoms: C_8  and  C_10
REMARK    8  A    between atoms: C_8  and  C_11
REMARK                            x       y       z     vdW  Elec       q    Type
REMARK                         _______ _______ _______ _____ _____    ______ ____
ROOT
ATOM      1  C   UNL     1      -7.484 -13.687   3.472  0.00  0.00    +0.000 C 
ATOM      2  H   UNL     1      -8.341 -13.359   2.869  0.00  0.00    +0.000 HD
ATOM      3  H   UNL     1      -7.515 -14.786   3.482  0.00  0.00    +0.000 HD
ENDROOT
BRANCH   1   4
ATOM      4  C   UNL     1      -7.645 -13.157   4.901  0.00  0.00    +0.000 C 
ATOM      5  H   UNL     1      -6.689 -12.870   5.343  0.00  0.00    +0.000 HD
ATOM      6  H   UNL     1      -8.249 -12.241   4.884  0.00  0.00    +0.000 HD
BRANCH   4   7
ATOM      7  C   UNL     1      -8.337 -14.164   5.777  0.00  0.00    +0.000 C 
ATOM      8  C   UNL     1      -7.836 -15.317   6.257  0.00  0.00    +0.000 C 
ATOM      9  H   UNL     1      -9.366 -13.913   6.034  0.00  0.00    +0.000 HD
BRANCH   8  10
ATOM     10  C   UNL     1      -8.583 -16.284   7.132  0.00  0.00    +0.000 C 
ATOM     11  H   UNL     1      -9.385 -16.788   6.582  0.00  0.00    +0.000 HD
ATOM     12  H   UNL     1      -7.906 -17.053   7.518  0.00  0.00    +0.000 HD
ATOM     13  H   UNL     1      -9.037 -15.759   7.979  0.00  0.00    +0.000 HD
ENDBRANCH   8  10
BRANCH   8  14
ATOM     14  C   UNL     1      -6.431 -15.739   5.921  0.00  0.00    +0.000 C 
ATOM     15  H   UNL     1      -5.718 -15.022   6.344  0.00  0.00    +0.000 HD
ATOM     16  H   UNL     1      -6.294 -15.751   4.835  0.00  0.00    +0.000 HD
ATOM     17  H   UNL     1      -6.144 -16.719   6.307  0.00  0.00    +0.000 HD
ENDBRANCH   8  14
ENDBRANCH   4   7
ENDBRANCH   1   4
BRANCH   1  18
ATOM     18  C   UNL     1      -6.182 -13.225   2.785  0.00  0.00    +0.000 C 
ATOM     19  H   UNL     1      -6.438 -12.662   1.878  0.00  0.00    +0.000 HD
BRANCH  18  20
ATOM     20  C   UNL     1      -5.360 -12.303   3.694  0.00  0.00    +0.000 C 
ATOM     21  H   UNL     1      -4.396 -12.751   3.954  0.00  0.00    +0.000 HD
ATOM     22  H   UNL     1      -5.133 -11.353   3.203  0.00  0.00    +0.000 HD
ATOM     23  H   UNL     1      -5.894 -12.090   4.626  0.00  0.00    +0.000 HD
ENDBRANCH  18  20
BRANCH  18  24
ATOM     24  C   UNL     1      -5.355 -14.457   2.378  0.00  0.00    +0.000 C 
ATOM     25  H   UNL     1      -5.248 -15.138   3.230  0.00  0.00    +0.000 HD
ATOM     26  H   UNL     1      -4.346 -14.156   2.071  0.00  0.00    +0.000 HD
BRANCH  24  28
ATOM     27  O   UNL     1      -5.636 -15.174   0.069  0.00  0.00    +0.000 OA
ATOM     28  C   UNL     1      -5.961 -15.261   1.248  0.00  0.00    +0.000 C 
ATOM     29  H   UNL     1      -6.749 -15.971   1.555  0.00  0.00    +0.000 HD
ENDBRANCH  24  28
ENDBRANCH  18  24
ENDBRANCH   1  18
TORSDOF 8
ENDMDL
MODEL 4
REMARK VINA RESULT:    -4.360     34.574     36.383
REMARK INTER + INTRA:          -6.353
REMARK INTER:                  -6.122
REMARK INTRA:                  -0.231
REMARK UNBOUND:                -0.337
REMARK  Name = 75427
REMARK  8 active torsions:
REMARK  status: ('A' for Active; 'I' for Inactive)
REMARK    1  A    between atoms: C_2  and  C_3
REMARK    2  A    between atoms: C_2  and  C_5
REMARK    3  A    between atoms: C_2  and  C_6
REMARK    4  A    between atoms: C_3  and  C_4
REMARK    5  A    between atoms: C_4  and  C_7
REMARK    6  A    between atoms: C_5  and  C_9
REMARK    7  A    between atoms: C_8  and  C_10
REMARK    8  A    between atoms: C_8  and  C_11
REMARK                            x       y       z     vdW  Elec       q    Type
REMARK                         _______ _______ _______ _____ _____    ______ ____
ROOT
ATOM      1  C   UNL     1      -3.112   5.326  25.772  0.00  0.00    +0.000 C 
ATOM      2  H   UNL     1      -3.459   6.244  26.264  0.00  0.00    +0.000 HD
ATOM      3  H   UNL     1      -2.165   5.053  26.259  0.00  0.00    +0.000 HD
ENDROOT
BRANCH   1   4
ATOM      4  C   UNL     1      -2.858   5.620  24.289  0.00  0.00    +0.000 C 
ATOM      5  H   UNL     1      -3.081   4.758  23.655  0.00  0.00    +0.000 HD
ATOM      6  H   UNL     1      -3.536   6.415  23.953  0.00  0.00    +0.000 HD
BRANCH   4   7
ATOM      7  C   UNL     1      -1.444   6.075  24.061  0.00  0.00    +0.000 C 
ATOM      8  C   UNL     1      -1.030   7.194  23.438  0.00  0.00    +0.000 C 
ATOM      9  H   UNL     1      -0.680   5.400  24.447  0.00  0.00    +0.000 HD
BRANCH   8  10
ATOM     10  C   UNL     1       0.405   7.594  23.243  0.00  0.00    +0.000 C 
ATOM     11  H   UNL     1       0.927   6.904  22.571  0.00  0.00    +0.000 HD
ATOM     12  H   UNL     1       0.468   8.597  22.810  0.00  0.00    +0.000 HD
ATOM     13  H   UNL     1       0.935   7.591  24.201  0.00  0.00    +0.000 HD
ENDBRANCH   8  10
BRANCH   8  14
ATOM     14  C   UNL     1      -2.030   8.159  22.858  0.00  0.00    +0.000 C 
ATOM     15  H   UNL     1      -2.859   7.605  22.403  0.00  0.00    +0.000 HD
ATOM     16  H   UNL     1      -1.557   8.763  22.077  0.00  0.00    +0.000 HD
ATOM     17  H   UNL     1      -2.480   8.840  23.583  0.00  0.00    +0.000 HD
ENDBRANCH   8  14
ENDBRANCH   4   7
ENDBRANCH   1   4
BRANCH   1  18
ATOM     18  C   UNL     1      -4.146   4.206  26.012  0.00  0.00    +0.000 C 
ATOM     19  H   UNL     1      -3.993   3.414  25.268  0.00  0.00    +0.000 HD
BRANCH  18  20
ATOM     20  C   UNL     1      -3.988   3.581  27.404  0.00  0.00    +0.000 C 
ATOM     21  H   UNL     1      -4.866   2.989  27.680  0.00  0.00    +0.000 HD
ATOM     22  H   UNL     1      -3.135   2.898  27.443  0.00  0.00    +0.000 HD
ATOM     23  H   UNL     1      -3.848   4.351  28.169  0.00  0.00    +0.000 HD
ENDBRANCH  18  20
BRANCH  18  24
ATOM     24  C   UNL     1      -5.564   4.775  25.834  0.00  0.00    +0.000 C 
ATOM     25  H   UNL     1      -6.183   4.075  25.260  0.00  0.00    +0.000 HD
ATOM     26  H   UNL     1      -5.531   5.716  25.273  0.00  0.00    +0.000 HD
BRANCH  24  28
ATOM     27  O   UNL     1      -7.105   5.936  27.317  0.00  0.00    +0.000 OA
ATOM     28  C   UNL     1      -6.291   5.038  27.135  0.00  0.00    +0.000 C 
ATOM     29  H   UNL     1      -6.042   4.340  27.954  0.00  0.00    +0.000 HD
ENDBRANCH  24  28
ENDBRANCH  18  24
ENDBRANCH   1  18
TORSDOF 8
ENDMDL
MODEL 5
REMARK VINA RESULT:    -4.343     22.482     24.419
REMARK INTER + INTRA:          -6.331
REMARK INTER:                  -6.012
REMARK INTRA:                  -0.318
REMARK UNBOUND:                -0.337
REMARK  Name = 75427
REMARK  8 active torsions:
REMARK  status: ('A' for Active; 'I' for Inactive)
REMARK    1  A    between atoms: C_2  and  C_3
REMARK    2  A    between atoms: C_2  and  C_5
REMARK    3  A    between atoms: C_2  and  C_6
REMARK    4  A    between atoms: C_3  and  C_4
REMARK    5  A    between atoms: C_4  and  C_7
REMARK    6  A    between atoms: C_5  and  C_9
REMARK    7  A    between atoms: C_8  and  C_10
REMARK    8  A    between atoms: C_8  and  C_11
REMARK                            x       y       z     vdW  Elec       q    Type
REMARK                         _______ _______ _______ _____ _____    ______ ____
ROOT
ATOM      1  C   UNL     1      -5.086 -13.749   2.851  0.00  0.00    +0.000 C 
ATOM      2  H   UNL     1      -4.516 -12.833   2.648  0.00  0.00    +0.000 HD
ATOM      3  H   UNL     1      -4.905 -13.999   3.906  0.00  0.00    +0.000 HD
ENDROOT
BRANCH   1   4
ATOM      4  C   UNL     1      -4.556 -14.876   1.959  0.00  0.00    +0.000 C 
ATOM      5  H   UNL     1      -5.333 -15.602   1.708  0.00  0.00    +0.000 HD
ATOM      6  H   UNL     1      -4.224 -14.458   1.000  0.00  0.00    +0.000 HD
BRANCH   4   7
ATOM      7  C   UNL     1      -3.389 -15.572   2.602  0.00  0.00    +0.000 C 
ATOM      8  C   UNL     1      -2.080 -15.322   2.418  0.00  0.00    +0.000 C 
ATOM      9  H   UNL     1      -3.659 -16.375   3.288  0.00  0.00    +0.000 HD
BRANCH   8  10
ATOM     10  C   UNL     1      -0.957 -16.057   3.094  0.00  0.00    +0.000 C 
ATOM     11  H   UNL     1      -1.322 -16.932   3.644  0.00  0.00    +0.000 HD
ATOM     12  H   UNL     1      -0.227 -16.404   2.356  0.00  0.00    +0.000 HD
ATOM     13  H   UNL     1      -0.449 -15.401   3.810  0.00  0.00    +0.000 HD
ENDBRANCH   8  10
BRANCH   8  14
ATOM     14  C   UNL     1      -1.634 -14.245   1.466  0.00  0.00    +0.000 C 
ATOM     15  H   UNL     1      -0.638 -13.888   1.750  0.00  0.00    +0.000 HD
ATOM     16  H   UNL     1      -2.325 -13.396   1.513  0.00  0.00    +0.000 HD
ATOM     17  H   UNL     1      -1.560 -14.560   0.424  0.00  0.00    +0.000 HD
ENDBRANCH   8  14
ENDBRANCH   4   7
ENDBRANCH   1   4
BRANCH   1  18
ATOM     18  C   UNL     1      -6.589 -13.458   2.652  0.00  0.00    +0.000 C 
ATOM     19  H   UNL     1      -6.799 -12.430   2.974  0.00  0.00    +0.000 HD
BRANCH  18  20
ATOM     20  C   UNL     1      -6.998 -13.583   1.180  0.00  0.00    +0.000 C 
ATOM     21  H   UNL     1      -7.312 -12.620   0.766  0.00  0.00    +0.000 HD
ATOM     22  H   UNL     1      -6.165 -13.925   0.559  0.00  0.00    +0.000 HD
ATOM     23  H   UNL     1      -7.828 -14.288   1.058  0.00  0.00    +0.000 HD
ENDBRANCH  18  20
BRANCH  18  24
ATOM     24  C   UNL     1      -7.414 -14.420   3.525  0.00  0.00    +0.000 C 
ATOM     25  H   UNL     1      -6.849 -15.341   3.709  0.00  0.00    +0.000 HD
ATOM     26  H   UNL     1      -8.340 -14.703   3.011  0.00  0.00    +0.000 HD
BRANCH  24  28
ATOM     27  O   UNL     1      -8.091 -12.688   5.095  0.00  0.00    +0.000 OA
ATOM     28  C   UNL     1      -7.790 -13.857   4.878  0.00  0.00    +0.000 C 
ATOM     29  H   UNL     1      -7.785 -14.591   5.703  0.00  0.00    +0.000 HD
ENDBRANCH  24  28
ENDBRANCH  18  24
ENDBRANCH   1  18
TORSDOF 8
ENDMDL
MODEL 6
REMARK VINA RESULT:    -4.300      1.557      2.436
REMARK INTER + INTRA:          -6.271
REMARK INTER:                  -5.671
REMARK INTRA:                  -0.600
REMARK UNBOUND:                -0.337
REMARK  Name = 75427
REMARK  8 active torsions:
REMARK  status: ('A' for Active; 'I' for Inactive)
REMARK    1  A    between atoms: C_2  and  C_3
REMARK    2  A    between atoms: C_2  and  C_5
REMARK    3  A    between atoms: C_2  and  C_6
REMARK    4  A    between atoms: C_3  and  C_4
REMARK    5  A    between atoms: C_4  and  C_7
REMARK    6  A    between atoms: C_5  and  C_9
REMARK    7  A    between atoms: C_8  and  C_10
REMARK    8  A    between atoms: C_8  and  C_11
REMARK                            x       y       z     vdW  Elec       q    Type
REMARK                         _______ _______ _______ _____ _____    ______ ____
ROOT
ATOM      1  C   UNL     1      15.532  -6.291  -1.039  0.00  0.00    +0.000 C 
ATOM      2  H   UNL     1      14.961  -7.146  -1.422  0.00  0.00    +0.000 HD
ATOM      3  H   UNL     1      14.900  -5.811  -0.280  0.00  0.00    +0.000 HD
ENDROOT
BRANCH   1   4
ATOM      4  C   UNL     1      15.791  -5.308  -2.186  0.00  0.00    +0.000 C 
ATOM      5  H   UNL     1      14.933  -4.659  -2.373  0.00  0.00    +0.000 HD
ATOM      6  H   UNL     1      16.614  -4.635  -1.912  0.00  0.00    +0.000 HD
BRANCH   4   7
ATOM      7  C   UNL     1      16.173  -6.034  -3.446  0.00  0.00    +0.000 C 
ATOM      8  C   UNL     1      17.379  -6.068  -4.042  0.00  0.00    +0.000 C 
ATOM      9  H   UNL     1      15.359  -6.584  -3.919  0.00  0.00    +0.000 HD
BRANCH   8  10
ATOM     10  C   UNL     1      17.696  -6.817  -5.305  0.00  0.00    +0.000 C 
ATOM     11  H   UNL     1      16.882  -7.493  -5.588  0.00  0.00    +0.000 HD
ATOM     12  H   UNL     1      17.856  -6.119  -6.134  0.00  0.00    +0.000 HD
ATOM     13  H   UNL     1      18.601  -7.420  -5.174  0.00  0.00    +0.000 HD
ENDBRANCH   8  10
BRANCH   8  14
ATOM     14  C   UNL     1      18.541  -5.311  -3.458  0.00  0.00    +0.000 C 
ATOM     15  H   UNL     1      18.966  -4.641  -4.215  0.00  0.00    +0.000 HD
ATOM     16  H   UNL     1      19.324  -6.010  -3.146  0.00  0.00    +0.000 HD
ATOM     17  H   UNL     1      18.291  -4.682  -2.601  0.00  0.00    +0.000 HD
ENDBRANCH   8  14
ENDBRANCH   4   7
ENDBRANCH   1   4
BRANCH   1  18
ATOM     18  C   UNL     1      16.821  -6.811  -0.368  0.00  0.00    +0.000 C 
ATOM     19  H   UNL     1      17.420  -7.348  -1.114  0.00  0.00    +0.000 HD
BRANCH  18  20
ATOM     20  C   UNL     1      17.675  -5.660   0.181  0.00  0.00    +0.000 C 
ATOM     21  H   UNL     1      17.660  -5.636   1.275  0.00  0.00    +0.000 HD
ATOM     22  H   UNL     1      18.724  -5.767  -0.107  0.00  0.00    +0.000 HD
ATOM     23  H   UNL     1      17.315  -4.692  -0.183  0.00  0.00    +0.000 HD
ENDBRANCH  18  20
BRANCH  18  24
ATOM     24  C   UNL     1      16.450  -7.791   0.758  0.00  0.00    +0.000 C 
ATOM     25  H   UNL     1      17.226  -7.787   1.533  0.00  0.00    +0.000 HD
ATOM     26  H   UNL     1      16.384  -8.814   0.368  0.00  0.00    +0.000 HD
BRANCH  24  28
ATOM     27  O   UNL     1      15.025  -6.789   2.457  0.00  0.00    +0.000 OA
ATOM     28  C   UNL     1      15.141  -7.473   1.446  0.00  0.00    +0.000 C 
ATOM     29  H   UNL     1      14.247  -7.906   0.965  0.00  0.00    +0.000 HD
ENDBRANCH  24  28
ENDBRANCH  18  24
ENDBRANCH   1  18
TORSDOF 8
ENDMDL
MODEL 7
REMARK VINA RESULT:    -4.225      1.369      4.189
REMARK INTER + INTRA:          -6.168
REMARK INTER:                  -5.621
REMARK INTRA:                  -0.548
REMARK UNBOUND:                -0.337
REMARK  Name = 75427
REMARK  8 active torsions:
REMARK  status: ('A' for Active; 'I' for Inactive)
REMARK    1  A    between atoms: C_2  and  C_3
REMARK    2  A    between atoms: C_2  and  C_5
REMARK    3  A    between atoms: C_2  and  C_6
REMARK    4  A    between atoms: C_3  and  C_4
REMARK    5  A    between atoms: C_4  and  C_7
REMARK    6  A    between atoms: C_5  and  C_9
REMARK    7  A    between atoms: C_8  and  C_10
REMARK    8  A    between atoms: C_8  and  C_11
REMARK                            x       y       z     vdW  Elec       q    Type
REMARK                         _______ _______ _______ _____ _____    ______ ____
ROOT
ATOM      1  C   UNL     1      16.206  -5.372  -3.298  0.00  0.00    +0.000 C 
ATOM      2  H   UNL     1      16.457  -4.351  -2.983  0.00  0.00    +0.000 HD
ATOM      3  H   UNL     1      15.600  -5.274  -4.210  0.00  0.00    +0.000 HD
ENDROOT
BRANCH   1   4
ATOM      4  C   UNL     1      15.374  -6.044  -2.200  0.00  0.00    +0.000 C 
ATOM      5  H   UNL     1      14.307  -6.049  -2.437  0.00  0.00    +0.000 HD
ATOM      6  H   UNL     1      15.662  -7.100  -2.118  0.00  0.00    +0.000 HD
BRANCH   4   7
ATOM      7  C   UNL     1      15.603  -5.386  -0.869  0.00  0.00    +0.000 C 
ATOM      8  C   UNL     1      15.778  -5.983   0.325  0.00  0.00    +0.000 C 
ATOM      9  H   UNL     1      15.617  -4.296  -0.895  0.00  0.00    +0.000 HD
BRANCH   8  10
ATOM     10  C   UNL     1      16.003  -5.265   1.625  0.00  0.00    +0.000 C 
ATOM     11  H   UNL     1      15.935  -4.179   1.502  0.00  0.00    +0.000 HD
ATOM     12  H   UNL     1      15.255  -5.567   2.364  0.00  0.00    +0.000 HD
ATOM     13  H   UNL     1      16.999  -5.494   2.019  0.00  0.00    +0.000 HD
ENDBRANCH   8  10
BRANCH   8  14
ATOM     14  C   UNL     1      15.744  -7.484   0.440  0.00  0.00    +0.000 C 
ATOM     15  H   UNL     1      16.754  -7.864   0.633  0.00  0.00    +0.000 HD
ATOM     16  H   UNL     1      15.391  -7.922  -0.499  0.00  0.00    +0.000 HD
ATOM     17  H   UNL     1      15.115  -7.865   1.247  0.00  0.00    +0.000 HD
ENDBRANCH   8  14
ENDBRANCH   4   7
ENDBRANCH   1   4
BRANCH   1  18
ATOM     18  C   UNL     1      17.509  -6.127  -3.636  0.00  0.00    +0.000 C 
ATOM     19  H   UNL     1      17.561  -7.037  -3.025  0.00  0.00    +0.000 HD
BRANCH  18  20
ATOM     20  C   UNL     1      17.552  -6.546  -5.111  0.00  0.00    +0.000 C 
ATOM     21  H   UNL     1      18.518  -6.988  -5.374  0.00  0.00    +0.000 HD
ATOM     22  H   UNL     1      16.798  -7.305  -5.335  0.00  0.00    +0.000 HD
ATOM     23  H   UNL     1      17.383  -5.688  -5.770  0.00  0.00    +0.000 HD
ENDBRANCH  18  20
BRANCH  18  24
ATOM     24  C   UNL     1      18.716  -5.238  -3.292  0.00  0.00    +0.000 C 
ATOM     25  H   UNL     1      18.420  -4.183  -3.289  0.00  0.00    +0.000 HD
ATOM     26  H   UNL     1      19.503  -5.353  -4.047  0.00  0.00    +0.000 HD
BRANCH  24  28
ATOM     27  O   UNL     1      19.025  -6.467  -1.215  0.00  0.00    +0.000 OA
ATOM     28  C   UNL     1      19.328  -5.526  -1.939  0.00  0.00    +0.000 C 
ATOM     29  H   UNL     1      20.107  -4.810  -1.621  0.00  0.00    +0.000 HD
ENDBRANCH  24  28
ENDBRANCH  18  24
ENDBRANCH   1  18
TORSDOF 8
ENDMDL
MODEL 8
REMARK VINA RESULT:    -4.210     25.306     27.114
REMARK INTER + INTRA:          -6.147
REMARK INTER:                  -5.549
REMARK INTRA:                  -0.598
REMARK UNBOUND:                -0.337
REMARK  Name = 75427
REMARK  8 active torsions:
REMARK  status: ('A' for Active; 'I' for Inactive)
REMARK    1  A    between atoms: C_2  and  C_3
REMARK    2  A    between atoms: C_2  and  C_5
REMARK    3  A    between atoms: C_2  and  C_6
REMARK    4  A    between atoms: C_3  and  C_4
REMARK    5  A    between atoms: C_4  and  C_7
REMARK    6  A    between atoms: C_5  and  C_9
REMARK    7  A    between atoms: C_8  and  C_10
REMARK    8  A    between atoms: C_8  and  C_11
REMARK                            x       y       z     vdW  Elec       q    Type
REMARK                         _______ _______ _______ _____ _____    ______ ____
ROOT
ATOM      1  C   UNL     1      -6.786  -9.713 -12.097  0.00  0.00    +0.000 C 
ATOM      2  H   UNL     1      -5.787 -10.107 -12.323  0.00  0.00    +0.000 HD
ATOM      3  H   UNL     1      -7.228 -10.395 -11.357  0.00  0.00    +0.000 HD
ENDROOT
BRANCH   1   4
ATOM      4  C   UNL     1      -7.632  -9.727 -13.375  0.00  0.00    +0.000 C 
ATOM      5  H   UNL     1      -8.380 -10.524 -13.364  0.00  0.00    +0.000 HD
ATOM      6  H   UNL     1      -8.200  -8.791 -13.447  0.00  0.00    +0.000 HD
BRANCH   4   7
ATOM      7  C   UNL     1      -6.765  -9.851 -14.596  0.00  0.00    +0.000 C 
ATOM      8  C   UNL     1      -6.798  -9.094 -15.708  0.00  0.00    +0.000 C 
ATOM      9  H   UNL     1      -6.036 -10.661 -14.557  0.00  0.00    +0.000 HD
BRANCH   8  10
ATOM     10  C   UNL     1      -5.899  -9.270 -16.900  0.00  0.00    +0.000 C 
ATOM     11  H   UNL     1      -5.200  -8.434 -17.004  0.00  0.00    +0.000 HD
ATOM     12  H   UNL     1      -5.312 -10.189 -16.804  0.00  0.00    +0.000 HD
ATOM     13  H   UNL     1      -6.492  -9.326 -17.819  0.00  0.00    +0.000 HD
ENDBRANCH   8  10
BRANCH   8  14
ATOM     14  C   UNL     1      -7.796  -7.975 -15.841  0.00  0.00    +0.000 C 
ATOM     15  H   UNL     1      -7.976  -7.521 -14.860  0.00  0.00    +0.000 HD
ATOM     16  H   UNL     1      -8.748  -8.366 -16.214  0.00  0.00    +0.000 HD
ATOM     17  H   UNL     1      -7.484  -7.163 -16.500  0.00  0.00    +0.000 HD
ENDBRANCH   8  14
ENDBRANCH   4   7
ENDBRANCH   1   4
BRANCH   1  18
ATOM     18  C   UNL     1      -6.641  -8.311 -11.468  0.00  0.00    +0.000 C 
ATOM     19  H   UNL     1      -6.727  -8.399 -10.377  0.00  0.00    +0.000 HD
BRANCH  18  20
ATOM     20  C   UNL     1      -5.274  -7.690 -11.784  0.00  0.00    +0.000 C 
ATOM     21  H   UNL     1      -5.376  -6.673 -12.174  0.00  0.00    +0.000 HD
ATOM     22  H   UNL     1      -4.652  -7.612 -10.888  0.00  0.00    +0.000 HD
ATOM     23  H   UNL     1      -4.733  -8.284 -12.528  0.00  0.00    +0.000 HD
ENDBRANCH  18  20
BRANCH  18  24
ATOM     24  C   UNL     1      -7.775  -7.404 -11.976  0.00  0.00    +0.000 C 
ATOM     25  H   UNL     1      -8.240  -7.844 -12.865  0.00  0.00    +0.000 HD
ATOM     26  H   UNL     1      -7.380  -6.423 -12.266  0.00  0.00    +0.000 HD
BRANCH  24  28
ATOM     27  O   UNL     1      -9.110  -7.895 -10.001  0.00  0.00    +0.000 OA
ATOM     28  C   UNL     1      -8.881  -7.177 -10.968  0.00  0.00    +0.000 C 
ATOM     29  H   UNL     1      -9.501  -6.283 -11.155  0.00  0.00    +0.000 HD
ENDBRANCH  24  28
ENDBRANCH  18  24
ENDBRANCH   1  18
TORSDOF 8
ENDMDL
MODEL 9
REMARK VINA RESULT:    -4.208      1.756      2.418
REMARK INTER + INTRA:          -6.144
REMARK INTER:                  -5.426
REMARK INTRA:                  -0.718
REMARK UNBOUND:                -0.337
REMARK  Name = 75427
REMARK  8 active torsions:
REMARK  status: ('A' for Active; 'I' for Inactive)
REMARK    1  A    between atoms: C_2  and  C_3
REMARK    2  A    between atoms: C_2  and  C_5
REMARK    3  A    between atoms: C_2  and  C_6
REMARK    4  A    between atoms: C_3  and  C_4
REMARK    5  A    between atoms: C_4  and  C_7
REMARK    6  A    between atoms: C_5  and  C_9
REMARK    7  A    between atoms: C_8  and  C_10
REMARK    8  A    between atoms: C_8  and  C_11
REMARK                            x       y       z     vdW  Elec       q    Type
REMARK                         _______ _______ _______ _____ _____    ______ ____
ROOT
ATOM      1  C   UNL     1      17.223  -5.992  -2.720  0.00  0.00    +0.000 C 
ATOM      2  H   UNL     1      18.042  -6.447  -2.148  0.00  0.00    +0.000 HD
ATOM      3  H   UNL     1      16.369  -6.678  -2.636  0.00  0.00    +0.000 HD
ENDROOT
BRANCH   1   4
ATOM      4  C   UNL     1      17.643  -5.877  -4.190  0.00  0.00    +0.000 C 
ATOM      5  H   UNL     1      17.018  -6.487  -4.845  0.00  0.00    +0.000 HD
ATOM      6  H   UNL     1      17.504  -4.843  -4.530  0.00  0.00    +0.000 HD
BRANCH   4   7
ATOM      7  C   UNL     1      19.090  -6.243  -4.369  0.00  0.00    +0.000 C 
ATOM      8  C   UNL     1      20.160  -5.429  -4.295  0.00  0.00    +0.000 C 
ATOM      9  H   UNL     1      19.269  -7.295  -4.593  0.00  0.00    +0.000 HD
BRANCH   8  10
ATOM     10  C   UNL     1      21.587  -5.859  -4.485  0.00  0.00    +0.000 C 
ATOM     11  H   UNL     1      22.021  -6.236  -3.553  0.00  0.00    +0.000 HD
ATOM     12  H   UNL     1      21.650  -6.657  -5.232  0.00  0.00    +0.000 HD
ATOM     13  H   UNL     1      22.198  -5.015  -4.821  0.00  0.00    +0.000 HD
ENDBRANCH   8  10
BRANCH   8  14
ATOM     14  C   UNL     1      19.984  -3.960  -4.016  0.00  0.00    +0.000 C 
ATOM     15  H   UNL     1      19.172  -3.815  -3.294  0.00  0.00    +0.000 HD
ATOM     16  H   UNL     1      19.717  -3.434  -4.938  0.00  0.00    +0.000 HD
ATOM     17  H   UNL     1      20.861  -3.470  -3.590  0.00  0.00    +0.000 HD
ENDBRANCH   8  14
ENDBRANCH   4   7
ENDBRANCH   1   4
BRANCH   1  18
ATOM     18  C   UNL     1      16.852  -4.640  -2.076  0.00  0.00    +0.000 C 
ATOM     19  H   UNL     1      16.889  -3.857  -2.844  0.00  0.00    +0.000 HD
BRANCH  18  20
ATOM     20  C   UNL     1      15.433  -4.663  -1.494  0.00  0.00    +0.000 C 
ATOM     21  H   UNL     1      14.714  -5.082  -2.205  0.00  0.00    +0.000 HD
ATOM     22  H   UNL     1      15.376  -5.287  -0.599  0.00  0.00    +0.000 HD
ATOM     23  H   UNL     1      15.097  -3.654  -1.232  0.00  0.00    +0.000 HD
ENDBRANCH  18  20
BRANCH  18  24
ATOM     24  C   UNL     1      17.878  -4.298  -0.981  0.00  0.00    +0.000 C 
ATOM     25  H   UNL     1      17.362  -4.021  -0.054  0.00  0.00    +0.000 HD
ATOM     26  H   UNL     1      18.488  -3.439  -1.284  0.00  0.00    +0.000 HD
BRANCH  24  28
ATOM     27  O   UNL     1      20.039  -5.372  -0.671  0.00  0.00    +0.000 OA
ATOM     28  C   UNL     1      18.816  -5.435  -0.638  0.00  0.00    +0.000 C 
ATOM     29  H   UNL     1      18.317  -6.372  -0.336  0.00  0.00    +0.000 HD
ENDBRANCH  24  28
ENDBRANCH  18  24
ENDBRANCH   1  18
TORSDOF 8
ENDMDL
MODEL 10
REMARK VINA RESULT:    -4.125     25.109     27.026
REMARK INTER + INTRA:          -6.029
REMARK INTER:                  -5.692
REMARK INTRA:                  -0.337
REMARK UNBOUND:                -0.337
REMARK  Name = 75427
REMARK  8 active torsions:
REMARK  status: ('A' for Active; 'I' for Inactive)
REMARK    1  A    between atoms: C_2  and  C_3
REMARK    2  A    between atoms: C_2  and  C_5
REMARK    3  A    between atoms: C_2  and  C_6
REMARK    4  A    between atoms: C_3  and  C_4
REMARK    5  A    between atoms: C_4  and  C_7
REMARK    6  A    between atoms: C_5  and  C_9
REMARK    7  A    between atoms: C_8  and  C_10
REMARK    8  A    between atoms: C_8  and  C_11
REMARK                            x       y       z     vdW  Elec       q    Type
REMARK                         _______ _______ _______ _____ _____    ______ ____
ROOT
ATOM      1  C   UNL     1      -6.942 -15.093   4.896  0.00  0.00    +0.000 C 
ATOM      2  H   UNL     1      -6.077 -15.765   4.973  0.00  0.00    +0.000 HD
ATOM      3  H   UNL     1      -7.654 -15.582   4.216  0.00  0.00    +0.000 HD
ENDROOT
BRANCH   1   4
ATOM      4  C   UNL     1      -6.488 -13.760   4.292  0.00  0.00    +0.000 C 
ATOM      5  H   UNL     1      -6.741 -12.911   4.931  0.00  0.00    +0.000 HD
ATOM      6  H   UNL     1      -5.394 -13.750   4.209  0.00  0.00    +0.000 HD
BRANCH   4   7
ATOM      7  C   UNL     1      -7.068 -13.563   2.919  0.00  0.00    +0.000 C 
ATOM      8  C   UNL     1      -6.536 -13.935   1.740  0.00  0.00    +0.000 C 
ATOM      9  H   UNL     1      -8.029 -13.049   2.900  0.00  0.00    +0.000 HD
BRANCH   8  10
ATOM     10  C   UNL     1      -7.170 -13.708   0.397  0.00  0.00    +0.000 C 
ATOM     11  H   UNL     1      -6.438 -13.798  -0.414  0.00  0.00    +0.000 HD
ATOM     12  H   UNL     1      -7.961 -14.442   0.218  0.00  0.00    +0.000 HD
ATOM     13  H   UNL     1      -7.603 -12.704   0.345  0.00  0.00    +0.000 HD
ENDBRANCH   8  10
BRANCH   8  14
ATOM     14  C   UNL     1      -5.200 -14.626   1.689  0.00  0.00    +0.000 C 
ATOM     15  H   UNL     1      -4.959 -15.040   2.675  0.00  0.00    +0.000 HD
ATOM     16  H   UNL     1      -4.418 -13.908   1.423  0.00  0.00    +0.000 HD
ATOM     17  H   UNL     1      -5.144 -15.460   0.987  0.00  0.00    +0.000 HD
ENDBRANCH   8  14
ENDBRANCH   4   7
ENDBRANCH   1   4
BRANCH   1  18
ATOM     18  C   UNL     1      -7.590 -14.951   6.289  0.00  0.00    +0.000 C 
ATOM     19  H   UNL     1      -6.898 -15.341   7.046  0.00  0.00    +0.000 HD
BRANCH  18  20
ATOM     20  C   UNL     1      -7.882 -13.484   6.629  0.00  0.00    +0.000 C 
ATOM     21  H   UNL     1      -8.552 -13.027   5.895  0.00  0.00    +0.000 HD
ATOM     22  H   UNL     1      -8.380 -13.388   7.598  0.00  0.00    +0.000 HD
ATOM     23  H   UNL     1      -6.960 -12.894   6.656  0.00  0.00    +0.000 HD
ENDBRANCH  18  20
BRANCH  18  24
ATOM     24  C   UNL     1      -8.883 -15.783   6.337  0.00  0.00    +0.000 C 
ATOM     25  H   UNL     1      -9.180 -16.079   5.324  0.00  0.00    +0.000 HD
ATOM     26  H   UNL     1      -9.705 -15.189   6.757  0.00  0.00    +0.000 HD
BRANCH  24  28
ATOM     27  O   UNL     1      -7.722 -17.523   7.580  0.00  0.00    +0.000 OA
ATOM     28  C   UNL     1      -8.770 -17.054   7.150  0.00  0.00    +0.000 C 
ATOM     29  H   UNL     1      -9.729 -17.562   7.352  0.00  0.00    +0.000 HD
ENDBRANCH  24  28
ENDBRANCH  18  24
ENDBRANCH   1  18
TORSDOF 8
ENDMDL
