MODEL 1
REMARK VINA RESULT:    -5.628      0.000      0.000
REMARK INTER + INTRA:          -8.474
REMARK INTER:                  -8.123
REMARK INTRA:                  -0.351
REMARK UNBOUND:                -0.708
REMARK  Name = 443157
REMARK  8 active torsions:
REMARK  status: ('A' for Active; 'I' for Inactive)
REMARK    1  A    between atoms: C_2  and  C_3
REMARK    2  A    between atoms: C_2  and  C_5
REMARK    3  A    between atoms: C_2  and  C_6
REMARK    4  A    between atoms: C_3  and  C_4
REMARK    5  A    between atoms: C_4  and  C_7
REMARK    6  A    between atoms: C_5  and  C_9
REMARK    7  A    between atoms: C_8  and  C_10
REMARK    8  A    between atoms: C_8  and  C_11
REMARK                            x       y       z     vdW  Elec       q    Type
REMARK                         _______ _______ _______ _____ _____    ______ ____
ROOT
ATOM      1  C   UNL     1       2.192  -6.056  -7.475  0.00  0.00    +0.000 C 
ATOM      2  H   UNL     1       2.872  -5.204  -7.343  0.00  0.00    +0.000 HD
ATOM      3  H   UNL     1       2.032  -6.483  -6.477  0.00  0.00    +0.000 HD
ENDROOT
BRANCH   1   4
ATOM      4  C   UNL     1       2.859  -7.104  -8.371  0.00  0.00    +0.000 C 
ATOM      5  H   UNL     1       2.552  -8.115  -8.082  0.00  0.00    +0.000 HD
ATOM      6  H   UNL     1       2.534  -6.983  -9.411  0.00  0.00    +0.000 HD
BRANCH   4   7
ATOM      7  C   UNL     1       4.355  -6.952  -8.361  0.00  0.00    +0.000 C 
ATOM      8  C   UNL     1       5.123  -6.321  -9.269  0.00  0.00    +0.000 C 
ATOM      9  H   UNL     1       4.855  -7.423  -7.516  0.00  0.00    +0.000 HD
BRANCH   8  10
ATOM     10  C   UNL     1       6.619  -6.204  -9.201  0.00  0.00    +0.000 C 
ATOM     11  H   UNL     1       7.001  -6.483  -8.213  0.00  0.00    +0.000 HD
ATOM     12  H   UNL     1       7.089  -6.862  -9.939  0.00  0.00    +0.000 HD
ATOM     13  H   UNL     1       6.930  -5.174  -9.401  0.00  0.00    +0.000 HD
ENDBRANCH   8  10
BRANCH   8  14
ATOM     14  C   UNL     1       4.502  -5.674 -10.477  0.00  0.00    +0.000 C 
ATOM     15  H   UNL     1       5.203  -5.706 -11.318  0.00  0.00    +0.000 HD
ATOM     16  H   UNL     1       4.277  -4.623 -10.262  0.00  0.00    +0.000 HD
ATOM     17  H   UNL     1       3.582  -6.148 -10.826  0.00  0.00    +0.000 HD
ENDBRANCH   8  14
ENDBRANCH   4   7
ENDBRANCH   1   4
BRANCH   1  18
ATOM     18  C   UNL     1       0.838  -5.551  -8.019  0.00  0.00    +0.000 C 
ATOM     19  H   UNL     1       0.640  -6.032  -8.986  0.00  0.00    +0.000 HD
BRANCH  18  20
ATOM     20  C   UNL     1       0.848  -4.033  -8.240  0.00  0.00    +0.000 C 
ATOM     21  H   UNL     1       1.030  -3.494  -7.306  0.00  0.00    +0.000 HD
ATOM     22  H   UNL     1       1.646  -3.735  -8.930  0.00  0.00    +0.000 HD
ATOM     23  H   UNL     1      -0.105  -3.687  -8.655  0.00  0.00    +0.000 HD
ENDBRANCH  18  20
BRANCH  18  24
ATOM     24  C   UNL     1      -0.281  -5.945  -7.040  0.00  0.00    +0.000 C 
ATOM     25  H   UNL     1      -0.443  -7.030  -7.062  0.00  0.00    +0.000 HD
ATOM     26  H   UNL     1      -1.223  -5.467  -7.333  0.00  0.00    +0.000 HD
BRANCH  24  28
ATOM     27  O   UNL     1      -0.877  -5.404  -4.745  0.00  0.00    +0.000 OA
ATOM     28  C   UNL     1      -0.016  -5.544  -5.606  0.00  0.00    +0.000 C 
ATOM     29  H   UNL     1       1.045  -5.356  -5.365  0.00  0.00    +0.000 HD
ENDBRANCH  24  28
ENDBRANCH  18  24
ENDBRANCH   1  18
TORSDOF 8
ENDMDL
MODEL 2
REMARK VINA RESULT:    -5.557      2.687      5.523
REMARK INTER + INTRA:          -8.376
REMARK INTER:                  -8.095
REMARK INTRA:                  -0.281
REMARK UNBOUND:                -0.708
REMARK  Name = 443157
REMARK  8 active torsions:
REMARK  status: ('A' for Active; 'I' for Inactive)
REMARK    1  A    between atoms: C_2  and  C_3
REMARK    2  A    between atoms: C_2  and  C_5
REMARK    3  A    between atoms: C_2  and  C_6
REMARK    4  A    between atoms: C_3  and  C_4
REMARK    5  A    between atoms: C_4  and  C_7
REMARK    6  A    between atoms: C_5  and  C_9
REMARK    7  A    between atoms: C_8  and  C_10
REMARK    8  A    between atoms: C_8  and  C_11
REMARK                            x       y       z     vdW  Elec       q    Type
REMARK                         _______ _______ _______ _____ _____    ______ ____
ROOT
ATOM      1  C   UNL     1       4.533  -7.270  -9.357  0.00  0.00    +0.000 C 
ATOM      2  H   UNL     1       3.779  -7.152 -10.148  0.00  0.00    +0.000 HD
ATOM      3  H   UNL     1       4.728  -8.347  -9.275  0.00  0.00    +0.000 HD
ENDROOT
BRANCH   1   4
ATOM      4  C   UNL     1       3.962  -6.759  -8.031  0.00  0.00    +0.000 C 
ATOM      5  H   UNL     1       4.164  -7.468  -7.222  0.00  0.00    +0.000 HD
ATOM      6  H   UNL     1       4.457  -5.826  -7.736  0.00  0.00    +0.000 HD
BRANCH   4   7
ATOM      7  C   UNL     1       2.495  -6.456  -8.153  0.00  0.00    +0.000 C 
ATOM      8  C   UNL     1       1.680  -5.947  -7.210  0.00  0.00    +0.000 C 
ATOM      9  H   UNL     1       2.060  -6.691  -9.123  0.00  0.00    +0.000 HD
BRANCH   8  10
ATOM     10  C   UNL     1       0.216  -5.666  -7.396  0.00  0.00    +0.000 C 
ATOM     11  H   UNL     1      -0.067  -4.701  -6.963  0.00  0.00    +0.000 HD
ATOM     12  H   UNL     1      -0.036  -5.640  -8.461  0.00  0.00    +0.000 HD
ATOM     13  H   UNL     1      -0.386  -6.441  -6.911  0.00  0.00    +0.000 HD
ENDBRANCH   8  10
BRANCH   8  14
ATOM     14  C   UNL     1       2.207  -5.625  -5.837  0.00  0.00    +0.000 C 
ATOM     15  H   UNL     1       1.372  -5.506  -5.138  0.00  0.00    +0.000 HD
ATOM     16  H   UNL     1       2.765  -4.682  -5.864  0.00  0.00    +0.000 HD
ATOM     17  H   UNL     1       2.860  -6.388  -5.409  0.00  0.00    +0.000 HD
ENDBRANCH   8  14
ENDBRANCH   4   7
ENDBRANCH   1   4
BRANCH   1  18
ATOM     18  C   UNL     1       5.837  -6.563  -9.783  0.00  0.00    +0.000 C 
ATOM     19  H   UNL     1       6.370  -7.200 -10.500  0.00  0.00    +0.000 HD
BRANCH  18  20
ATOM     20  C   UNL     1       6.765  -6.320  -8.586  0.00  0.00    +0.000 C 
ATOM     21  H   UNL     1       6.328  -5.609  -7.879  0.00  0.00    +0.000 HD
ATOM     22  H   UNL     1       6.944  -7.244  -8.025  0.00  0.00    +0.000 HD
ATOM     23  H   UNL     1       7.735  -5.927  -8.910  0.00  0.00    +0.000 HD
ENDBRANCH  18  20
BRANCH  18  24
ATOM     24  C   UNL     1       5.491  -5.233 -10.475  0.00  0.00    +0.000 C 
ATOM     25  H   UNL     1       6.282  -4.953 -11.181  0.00  0.00    +0.000 HD
ATOM     26  H   UNL     1       5.416  -4.431  -9.731  0.00  0.00    +0.000 HD
BRANCH  24  28
ATOM     27  O   UNL     1       3.559  -4.258 -11.585  0.00  0.00    +0.000 OA
ATOM     28  C   UNL     1       4.181  -5.253 -11.230  0.00  0.00    +0.000 C 
ATOM     29  H   UNL     1       3.782  -6.261 -11.441  0.00  0.00    +0.000 HD
ENDBRANCH  24  28
ENDBRANCH  18  24
ENDBRANCH   1  18
TORSDOF 8
ENDMDL
MODEL 3
REMARK VINA RESULT:    -5.305      1.704      2.137
REMARK INTER + INTRA:          -8.028
REMARK INTER:                  -7.668
REMARK INTRA:                  -0.360
REMARK UNBOUND:                -0.708
REMARK  Name = 443157
REMARK  8 active torsions:
REMARK  status: ('A' for Active; 'I' for Inactive)
REMARK    1  A    between atoms: C_2  and  C_3
REMARK    2  A    between atoms: C_2  and  C_5
REMARK    3  A    between atoms: C_2  and  C_6
REMARK    4  A    between atoms: C_3  and  C_4
REMARK    5  A    between atoms: C_4  and  C_7
REMARK    6  A    between atoms: C_5  and  C_9
REMARK    7  A    between atoms: C_8  and  C_10
REMARK    8  A    between atoms: C_8  and  C_11
REMARK                            x       y       z     vdW  Elec       q    Type
REMARK                         _______ _______ _______ _____ _____    ______ ____
ROOT
ATOM      1  C   UNL     1       2.431  -7.131  -8.004  0.00  0.00    +0.000 C 
ATOM      2  H   UNL     1       2.841  -7.748  -7.192  0.00  0.00    +0.000 HD
ATOM      3  H   UNL     1       1.550  -7.664  -8.383  0.00  0.00    +0.000 HD
ENDROOT
BRANCH   1   4
ATOM      4  C   UNL     1       3.469  -7.011  -9.124  0.00  0.00    +0.000 C 
ATOM      5  H   UNL     1       3.386  -7.849  -9.823  0.00  0.00    +0.000 HD
ATOM      6  H   UNL     1       3.285  -6.110  -9.721  0.00  0.00    +0.000 HD
BRANCH   4   7
ATOM      7  C   UNL     1       4.859  -6.888  -8.564  0.00  0.00    +0.000 C 
ATOM      8  C   UNL     1       5.890  -6.188  -9.073  0.00  0.00    +0.000 C 
ATOM      9  H   UNL     1       5.031  -7.446  -7.645  0.00  0.00    +0.000 HD
BRANCH   8  10
ATOM     10  C   UNL     1       7.261  -6.104  -8.462  0.00  0.00    +0.000 C 
ATOM     11  H   UNL     1       7.308  -5.337  -7.682  0.00  0.00    +0.000 HD
ATOM     12  H   UNL     1       7.535  -7.061  -8.006  0.00  0.00    +0.000 HD
ATOM     13  H   UNL     1       8.004  -5.854  -9.225  0.00  0.00    +0.000 HD
ENDBRANCH   8  10
BRANCH   8  14
ATOM     14  C   UNL     1       5.732  -5.417 -10.356  0.00  0.00    +0.000 C 
ATOM     15  H   UNL     1       6.653  -4.864 -10.572  0.00  0.00    +0.000 HD
ATOM     16  H   UNL     1       4.916  -4.691 -10.256  0.00  0.00    +0.000 HD
ATOM     17  H   UNL     1       5.528  -6.031 -11.235  0.00  0.00    +0.000 HD
ENDBRANCH   8  14
ENDBRANCH   4   7
ENDBRANCH   1   4
BRANCH   1  18
ATOM     18  C   UNL     1       1.977  -5.771  -7.433  0.00  0.00    +0.000 C 
ATOM     19  H   UNL     1       2.523  -4.969  -7.948  0.00  0.00    +0.000 HD
BRANCH  18  20
ATOM     20  C   UNL     1       2.276  -5.658  -5.934  0.00  0.00    +0.000 C 
ATOM     21  H   UNL     1       3.222  -5.139  -5.752  0.00  0.00    +0.000 HD
ATOM     22  H   UNL     1       1.503  -5.082  -5.413  0.00  0.00    +0.000 HD
ATOM     23  H   UNL     1       2.334  -6.647  -5.466  0.00  0.00    +0.000 HD
ENDBRANCH  18  20
BRANCH  18  24
ATOM     24  C   UNL     1       0.473  -5.586  -7.698  0.00  0.00    +0.000 C 
ATOM     25  H   UNL     1      -0.082  -5.564  -6.752  0.00  0.00    +0.000 HD
ATOM     26  H   UNL     1       0.088  -6.428  -8.284  0.00  0.00    +0.000 HD
BRANCH  24  28
ATOM     27  O   UNL     1       0.853  -3.341  -8.555  0.00  0.00    +0.000 OA
ATOM     28  C   UNL     1       0.132  -4.328  -8.465  0.00  0.00    +0.000 C 
ATOM     29  H   UNL     1      -0.860  -4.335  -8.952  0.00  0.00    +0.000 HD
ENDBRANCH  24  28
ENDBRANCH  18  24
ENDBRANCH   1  18
TORSDOF 8
ENDMDL
MODEL 4
REMARK VINA RESULT:    -4.923      2.529      4.992
REMARK INTER + INTRA:          -7.501
REMARK INTER:                  -7.072
REMARK INTRA:                  -0.429
REMARK UNBOUND:                -0.708
REMARK  Name = 443157
REMARK  8 active torsions:
REMARK  status: ('A' for Active; 'I' for Inactive)
REMARK    1  A    between atoms: C_2  and  C_3
REMARK    2  A    between atoms: C_2  and  C_5
REMARK    3  A    between atoms: C_2  and  C_6
REMARK    4  A    between atoms: C_3  and  C_4
REMARK    5  A    between atoms: C_4  and  C_7
REMARK    6  A    between atoms: C_5  and  C_9
REMARK    7  A    between atoms: C_8  and  C_10
REMARK    8  A    between atoms: C_8  and  C_11
REMARK                            x       y       z     vdW  Elec       q    Type
REMARK                         _______ _______ _______ _____ _____    ______ ____
ROOT
ATOM      1  C   UNL     1       1.273  -3.968  -6.925  0.00  0.00    +0.000 C 
ATOM      2  H   UNL     1       0.884  -3.448  -6.039  0.00  0.00    +0.000 HD
ATOM      3  H   UNL     1       2.350  -3.761  -6.958  0.00  0.00    +0.000 HD
ENDROOT
BRANCH   1   4
ATOM      4  C   UNL     1       0.610  -3.396  -8.182  0.00  0.00    +0.000 C 
ATOM      5  H   UNL     1       1.358  -3.181  -8.952  0.00  0.00    +0.000 HD
ATOM      6  H   UNL     1      -0.067  -4.134  -8.627  0.00  0.00    +0.000 HD
BRANCH   4   7
ATOM      7  C   UNL     1      -0.217  -2.185  -7.854  0.00  0.00    +0.000 C 
ATOM      8  C   UNL     1       0.113  -0.891  -8.033  0.00  0.00    +0.000 C 
ATOM      9  H   UNL     1      -1.189  -2.401  -7.414  0.00  0.00    +0.000 HD
BRANCH   8  10
ATOM     10  C   UNL     1      -0.763   0.279  -7.683  0.00  0.00    +0.000 C 
ATOM     11  H   UNL     1      -0.185   1.206  -7.607  0.00  0.00    +0.000 HD
ATOM     12  H   UNL     1      -1.530   0.425  -8.450  0.00  0.00    +0.000 HD
ATOM     13  H   UNL     1      -1.256   0.111  -6.721  0.00  0.00    +0.000 HD
ENDBRANCH   8  10
BRANCH   8  14
ATOM     14  C   UNL     1       1.452  -0.517  -8.609  0.00  0.00    +0.000 C 
ATOM     15  H   UNL     1       1.709  -1.201  -9.426  0.00  0.00    +0.000 HD
ATOM     16  H   UNL     1       2.227  -0.603  -7.839  0.00  0.00    +0.000 HD
ATOM     17  H   UNL     1       1.504   0.491  -9.025  0.00  0.00    +0.000 HD
ENDBRANCH   8  14
ENDBRANCH   4   7
ENDBRANCH   1   4
BRANCH   1  18
ATOM     18  C   UNL     1       1.067  -5.489  -6.756  0.00  0.00    +0.000 C 
ATOM     19  H   UNL     1       1.544  -5.812  -5.821  0.00  0.00    +0.000 HD
BRANCH  18  20
ATOM     20  C   UNL     1       1.704  -6.277  -7.907  0.00  0.00    +0.000 C 
ATOM     21  H   UNL     1       1.098  -6.216  -8.817  0.00  0.00    +0.000 HD
ATOM     22  H   UNL     1       2.691  -5.879  -8.167  0.00  0.00    +0.000 HD
ATOM     23  H   UNL     1       1.823  -7.334  -7.647  0.00  0.00    +0.000 HD
ENDBRANCH  18  20
BRANCH  18  24
ATOM     24  C   UNL     1      -0.439  -5.791  -6.664  0.00  0.00    +0.000 C 
ATOM     25  H   UNL     1      -0.616  -6.872  -6.722  0.00  0.00    +0.000 HD
ATOM     26  H   UNL     1      -0.967  -5.327  -7.505  0.00  0.00    +0.000 HD
BRANCH  24  28
ATOM     27  O   UNL     1      -1.999  -4.453  -5.364  0.00  0.00    +0.000 OA
ATOM     28  C   UNL     1      -1.095  -5.280  -5.402  0.00  0.00    +0.000 C 
ATOM     29  H   UNL     1      -0.685  -5.696  -4.464  0.00  0.00    +0.000 HD
ENDBRANCH  24  28
ENDBRANCH  18  24
ENDBRANCH   1  18
TORSDOF 8
ENDMDL
MODEL 5
REMARK VINA RESULT:    -4.630      3.006      5.123
REMARK INTER + INTRA:          -7.098
REMARK INTER:                  -6.784
REMARK INTRA:                  -0.314
REMARK UNBOUND:                -0.708
REMARK  Name = 443157
REMARK  8 active torsions:
REMARK  status: ('A' for Active; 'I' for Inactive)
REMARK    1  A    between atoms: C_2  and  C_3
REMARK    2  A    between atoms: C_2  and  C_5
REMARK    3  A    between atoms: C_2  and  C_6
REMARK    4  A    between atoms: C_3  and  C_4
REMARK    5  A    between atoms: C_4  and  C_7
REMARK    6  A    between atoms: C_5  and  C_9
REMARK    7  A    between atoms: C_8  and  C_10
REMARK    8  A    between atoms: C_8  and  C_11
REMARK                            x       y       z     vdW  Elec       q    Type
REMARK                         _______ _______ _______ _____ _____    ______ ____
ROOT
ATOM      1  C   UNL     1      -0.068  -3.728  -6.799  0.00  0.00    +0.000 C 
ATOM      2  H   UNL     1      -0.486  -3.113  -5.990  0.00  0.00    +0.000 HD
ATOM      3  H   UNL     1       1.022  -3.706  -6.674  0.00  0.00    +0.000 HD
ENDROOT
BRANCH   1   4
ATOM      4  C   UNL     1      -0.433  -3.105  -8.150  0.00  0.00    +0.000 C 
ATOM      5  H   UNL     1      -0.726  -3.877  -8.868  0.00  0.00    +0.000 HD
ATOM      6  H   UNL     1      -1.306  -2.450  -8.047  0.00  0.00    +0.000 HD
BRANCH   4   7
ATOM      7  C   UNL     1       0.690  -2.255  -8.675  0.00  0.00    +0.000 C 
ATOM      8  C   UNL     1       0.866  -0.930  -8.507  0.00  0.00    +0.000 C 
ATOM      9  H   UNL     1       1.432  -2.791  -9.265  0.00  0.00    +0.000 HD
BRANCH   8  10
ATOM     10  C   UNL     1       2.016  -0.136  -9.059  0.00  0.00    +0.000 C 
ATOM     11  H   UNL     1       2.887  -0.769  -9.252  0.00  0.00    +0.000 HD
ATOM     12  H   UNL     1       1.733   0.341 -10.003  0.00  0.00    +0.000 HD
ATOM     13  H   UNL     1       2.317   0.642  -8.350  0.00  0.00    +0.000 HD
ENDBRANCH   8  10
BRANCH   8  14
ATOM     14  C   UNL     1      -0.134  -0.119  -7.727  0.00  0.00    +0.000 C 
ATOM     15  H   UNL     1      -1.128  -0.571  -7.817  0.00  0.00    +0.000 HD
ATOM     16  H   UNL     1      -0.186   0.898  -8.132  0.00  0.00    +0.000 HD
ATOM     17  H   UNL     1       0.074  -0.043  -6.658  0.00  0.00    +0.000 HD
ENDBRANCH   8  14
ENDBRANCH   4   7
ENDBRANCH   1   4
BRANCH   1  18
ATOM     18  C   UNL     1      -0.554  -5.185  -6.640  0.00  0.00    +0.000 C 
ATOM     19  H   UNL     1      -1.638  -5.220  -6.812  0.00  0.00    +0.000 HD
BRANCH  18  20
ATOM     20  C   UNL     1      -0.283  -5.720  -5.228  0.00  0.00    +0.000 C 
ATOM     21  H   UNL     1       0.788  -5.739  -5.007  0.00  0.00    +0.000 HD
ATOM     22  H   UNL     1      -0.745  -5.085  -4.464  0.00  0.00    +0.000 HD
ATOM     23  H   UNL     1      -0.675  -6.735  -5.107  0.00  0.00    +0.000 HD
ENDBRANCH  18  20
BRANCH  18  24
ATOM     24  C   UNL     1       0.136  -6.068  -7.693  0.00  0.00    +0.000 C 
ATOM     25  H   UNL     1      -0.173  -5.771  -8.703  0.00  0.00    +0.000 HD
ATOM     26  H   UNL     1      -0.156  -7.116  -7.555  0.00  0.00    +0.000 HD
BRANCH  24  28
ATOM     27  O   UNL     1       2.393  -6.830  -8.186  0.00  0.00    +0.000 OA
ATOM     28  C   UNL     1       1.647  -6.027  -7.638  0.00  0.00    +0.000 C 
ATOM     29  H   UNL     1       2.067  -5.203  -7.034  0.00  0.00    +0.000 HD
ENDBRANCH  24  28
ENDBRANCH  18  24
ENDBRANCH   1  18
TORSDOF 8
ENDMDL
MODEL 6
REMARK VINA RESULT:    -4.369     15.382     18.398
REMARK INTER + INTRA:          -6.737
REMARK INTER:                  -6.291
REMARK INTRA:                  -0.445
REMARK UNBOUND:                -0.708
REMARK  Name = 443157
REMARK  8 active torsions:
REMARK  status: ('A' for Active; 'I' for Inactive)
REMARK    1  A    between atoms: C_2  and  C_3
REMARK    2  A    between atoms: C_2  and  C_5
REMARK    3  A    between atoms: C_2  and  C_6
REMARK    4  A    between atoms: C_3  and  C_4
REMARK    5  A    between atoms: C_4  and  C_7
REMARK    6  A    between atoms: C_5  and  C_9
REMARK    7  A    between atoms: C_8  and  C_10
REMARK    8  A    between atoms: C_8  and  C_11
REMARK                            x       y       z     vdW  Elec       q    Type
REMARK                         _______ _______ _______ _____ _____    ______ ____
ROOT
ATOM      1  C   UNL     1      -7.832 -12.956   4.800  0.00  0.00    +0.000 C 
ATOM      2  H   UNL     1      -7.609 -11.900   5.002  0.00  0.00    +0.000 HD
ATOM      3  H   UNL     1      -8.809 -12.977   4.302  0.00  0.00    +0.000 HD
ENDROOT
BRANCH   1   4
ATOM      4  C   UNL     1      -7.926 -13.718   6.126  0.00  0.00    +0.000 C 
ATOM      5  H   UNL     1      -7.695 -13.061   6.970  0.00  0.00    +0.000 HD
ATOM      6  H   UNL     1      -8.951 -14.067   6.295  0.00  0.00    +0.000 HD
BRANCH   4   7
ATOM      7  C   UNL     1      -7.046 -14.938   6.113  0.00  0.00    +0.000 C 
ATOM      8  C   UNL     1      -7.335 -16.164   6.588  0.00  0.00    +0.000 C 
ATOM      9  H   UNL     1      -6.062 -14.786   5.671  0.00  0.00    +0.000 HD
BRANCH   8  10
ATOM     10  C   UNL     1      -6.408 -17.346   6.544  0.00  0.00    +0.000 C 
ATOM     11  H   UNL     1      -6.961 -18.291   6.521  0.00  0.00    +0.000 HD
ATOM     12  H   UNL     1      -5.779 -17.306   5.649  0.00  0.00    +0.000 HD
ATOM     13  H   UNL     1      -5.762 -17.357   7.427  0.00  0.00    +0.000 HD
ENDBRANCH   8  10
BRANCH   8  14
ATOM     14  C   UNL     1      -8.665 -16.439   7.237  0.00  0.00    +0.000 C 
ATOM     15  H   UNL     1      -8.709 -15.947   8.215  0.00  0.00    +0.000 HD
ATOM     16  H   UNL     1      -8.788 -17.517   7.393  0.00  0.00    +0.000 HD
ATOM     17  H   UNL     1      -9.529 -16.082   6.673  0.00  0.00    +0.000 HD
ENDBRANCH   8  14
ENDBRANCH   4   7
ENDBRANCH   1   4
BRANCH   1  18
ATOM     18  C   UNL     1      -6.772 -13.527   3.833  0.00  0.00    +0.000 C 
ATOM     19  H   UNL     1      -6.326 -14.424   4.282  0.00  0.00    +0.000 HD
BRANCH  18  20
ATOM     20  C   UNL     1      -5.646 -12.521   3.570  0.00  0.00    +0.000 C 
ATOM     21  H   UNL     1      -5.827 -11.948   2.655  0.00  0.00    +0.000 HD
ATOM     22  H   UNL     1      -5.565 -11.789   4.381  0.00  0.00    +0.000 HD
ATOM     23  H   UNL     1      -4.678 -13.025   3.472  0.00  0.00    +0.000 HD
ENDBRANCH  18  20
BRANCH  18  24
ATOM     24  C   UNL     1      -7.454 -13.930   2.514  0.00  0.00    +0.000 C 
ATOM     25  H   UNL     1      -8.446 -13.469   2.440  0.00  0.00    +0.000 HD
ATOM     26  H   UNL     1      -7.595 -15.017   2.480  0.00  0.00    +0.000 HD
BRANCH  24  28
ATOM     27  O   UNL     1      -7.169 -13.195   0.213  0.00  0.00    +0.000 OA
ATOM     28  C   UNL     1      -6.673 -13.553   1.275  0.00  0.00    +0.000 C 
ATOM     29  H   UNL     1      -5.576 -13.637   1.374  0.00  0.00    +0.000 HD
ENDBRANCH  24  28
ENDBRANCH  18  24
ENDBRANCH   1  18
TORSDOF 8
ENDMDL
MODEL 7
REMARK VINA RESULT:    -4.320     15.132     16.014
REMARK INTER + INTRA:          -6.669
REMARK INTER:                  -6.345
REMARK INTRA:                  -0.324
REMARK UNBOUND:                -0.708
REMARK  Name = 443157
REMARK  8 active torsions:
REMARK  status: ('A' for Active; 'I' for Inactive)
REMARK    1  A    between atoms: C_2  and  C_3
REMARK    2  A    between atoms: C_2  and  C_5
REMARK    3  A    between atoms: C_2  and  C_6
REMARK    4  A    between atoms: C_3  and  C_4
REMARK    5  A    between atoms: C_4  and  C_7
REMARK    6  A    between atoms: C_5  and  C_9
REMARK    7  A    between atoms: C_8  and  C_10
REMARK    8  A    between atoms: C_8  and  C_11
REMARK                            x       y       z     vdW  Elec       q    Type
REMARK                         _______ _______ _______ _____ _____    ______ ____
ROOT
ATOM      1  C   UNL     1      15.743  -4.867  -1.859  0.00  0.00    +0.000 C 
ATOM      2  H   UNL     1      14.715  -4.578  -2.118  0.00  0.00    +0.000 HD
ATOM      3  H   UNL     1      16.363  -3.974  -2.008  0.00  0.00    +0.000 HD
ENDROOT
BRANCH   1   4
ATOM      4  C   UNL     1      16.214  -5.973  -2.808  0.00  0.00    +0.000 C 
ATOM      5  H   UNL     1      15.967  -6.961  -2.408  0.00  0.00    +0.000 HD
ATOM      6  H   UNL     1      15.689  -5.903  -3.768  0.00  0.00    +0.000 HD
BRANCH   4   7
ATOM      7  C   UNL     1      17.683  -5.843  -3.103  0.00  0.00    +0.000 C 
ATOM      8  C   UNL     1      18.331  -6.208  -4.226  0.00  0.00    +0.000 C 
ATOM      9  H   UNL     1      18.273  -5.409  -2.298  0.00  0.00    +0.000 HD
BRANCH   8  10
ATOM     10  C   UNL     1      19.806  -6.051  -4.460  0.00  0.00    +0.000 C 
ATOM     11  H   UNL     1      20.012  -5.399  -5.316  0.00  0.00    +0.000 HD
ATOM     12  H   UNL     1      20.288  -5.610  -3.581  0.00  0.00    +0.000 HD
ATOM     13  H   UNL     1      20.266  -7.023  -4.661  0.00  0.00    +0.000 HD
ENDBRANCH   8  10
BRANCH   8  14
ATOM     14  C   UNL     1      17.582  -6.840  -5.369  0.00  0.00    +0.000 C 
ATOM     15  H   UNL     1      17.345  -6.081  -6.122  0.00  0.00    +0.000 HD
ATOM     16  H   UNL     1      16.639  -7.266  -5.007  0.00  0.00    +0.000 HD
ATOM     17  H   UNL     1      18.128  -7.630  -5.890  0.00  0.00    +0.000 HD
ENDBRANCH   8  14
ENDBRANCH   4   7
ENDBRANCH   1   4
BRANCH   1  18
ATOM     18  C   UNL     1      15.803  -5.266  -0.368  0.00  0.00    +0.000 C 
ATOM     19  H   UNL     1      14.999  -4.748   0.171  0.00  0.00    +0.000 HD
BRANCH  18  20
ATOM     20  C   UNL     1      17.137  -4.863   0.271  0.00  0.00    +0.000 C 
ATOM     21  H   UNL     1      16.983  -4.238   1.156  0.00  0.00    +0.000 HD
ATOM     22  H   UNL     1      17.701  -5.740   0.607  0.00  0.00    +0.000 HD
ATOM     23  H   UNL     1      17.763  -4.307  -0.435  0.00  0.00    +0.000 HD
ENDBRANCH  18  20
BRANCH  18  24
ATOM     24  C   UNL     1      15.580  -6.783  -0.239  0.00  0.00    +0.000 C 
ATOM     25  H   UNL     1      15.581  -7.254  -1.229  0.00  0.00    +0.000 HD
ATOM     26  H   UNL     1      14.603  -6.981   0.218  0.00  0.00    +0.000 HD
BRANCH  24  28
ATOM     27  O   UNL     1      16.869  -8.685   0.558  0.00  0.00    +0.000 OA
ATOM     28  C   UNL     1      16.611  -7.487   0.613  0.00  0.00    +0.000 C 
ATOM     29  H   UNL     1      17.136  -6.840   1.337  0.00  0.00    +0.000 HD
ENDBRANCH  24  28
ENDBRANCH  18  24
ENDBRANCH   1  18
TORSDOF 8
ENDMDL
MODEL 8
REMARK VINA RESULT:    -4.221     15.108     16.736
REMARK INTER + INTRA:          -6.533
REMARK INTER:                  -5.953
REMARK INTRA:                  -0.579
REMARK UNBOUND:                -0.708
REMARK  Name = 443157
REMARK  8 active torsions:
REMARK  status: ('A' for Active; 'I' for Inactive)
REMARK    1  A    between atoms: C_2  and  C_3
REMARK    2  A    between atoms: C_2  and  C_5
REMARK    3  A    between atoms: C_2  and  C_6
REMARK    4  A    between atoms: C_3  and  C_4
REMARK    5  A    between atoms: C_4  and  C_7
REMARK    6  A    between atoms: C_5  and  C_9
REMARK    7  A    between atoms: C_8  and  C_10
REMARK    8  A    between atoms: C_8  and  C_11
REMARK                            x       y       z     vdW  Elec       q    Type
REMARK                         _______ _______ _______ _____ _____    ______ ____
ROOT
ATOM      1  C   UNL     1      15.979  -4.950  -2.657  0.00  0.00    +0.000 C 
ATOM      2  H   UNL     1      16.157  -4.463  -1.689  0.00  0.00    +0.000 HD
ATOM      3  H   UNL     1      15.193  -4.369  -3.157  0.00  0.00    +0.000 HD
ENDROOT
BRANCH   1   4
ATOM      4  C   UNL     1      15.478  -6.378  -2.423  0.00  0.00    +0.000 C 
ATOM      5  H   UNL     1      14.631  -6.606  -3.077  0.00  0.00    +0.000 HD
ATOM      6  H   UNL     1      16.257  -7.105  -2.685  0.00  0.00    +0.000 HD
BRANCH   4   7
ATOM      7  C   UNL     1      15.141  -6.603  -0.975  0.00  0.00    +0.000 C 
ATOM      8  C   UNL     1      15.980  -6.946   0.021  0.00  0.00    +0.000 C 
ATOM      9  H   UNL     1      14.088  -6.478  -0.728  0.00  0.00    +0.000 HD
BRANCH   8  10
ATOM     10  C   UNL     1      15.578  -7.156   1.453  0.00  0.00    +0.000 C 
ATOM     11  H   UNL     1      16.428  -7.033   2.132  0.00  0.00    +0.000 HD
ATOM     12  H   UNL     1      14.810  -6.432   1.745  0.00  0.00    +0.000 HD
ATOM     13  H   UNL     1      15.180  -8.166   1.593  0.00  0.00    +0.000 HD
ENDBRANCH   8  10
BRANCH   8  14
ATOM     14  C   UNL     1      17.444  -7.164  -0.255  0.00  0.00    +0.000 C 
ATOM     15  H   UNL     1      18.006  -6.256  -0.012  0.00  0.00    +0.000 HD
ATOM     16  H   UNL     1      17.594  -7.383  -1.318  0.00  0.00    +0.000 HD
ATOM     17  H   UNL     1      17.900  -7.972   0.321  0.00  0.00    +0.000 HD
ENDBRANCH   8  14
ENDBRANCH   4   7
ENDBRANCH   1   4
BRANCH   1  18
ATOM     18  C   UNL     1      17.264  -4.878  -3.511  0.00  0.00    +0.000 C 
ATOM     19  H   UNL     1      17.082  -4.223  -4.373  0.00  0.00    +0.000 HD
BRANCH  18  20
ATOM     20  C   UNL     1      17.667  -6.258  -4.043  0.00  0.00    +0.000 C 
ATOM     21  H   UNL     1      16.803  -6.925  -4.121  0.00  0.00    +0.000 HD
ATOM     22  H   UNL     1      18.097  -6.190  -5.049  0.00  0.00    +0.000 HD
ATOM     23  H   UNL     1      18.408  -6.733  -3.391  0.00  0.00    +0.000 HD
ENDBRANCH  18  20
BRANCH  18  24
ATOM     24  C   UNL     1      18.400  -4.272  -2.669  0.00  0.00    +0.000 C 
ATOM     25  H   UNL     1      18.790  -5.015  -1.963  0.00  0.00    +0.000 HD
ATOM     26  H   UNL     1      18.022  -3.428  -2.080  0.00  0.00    +0.000 HD
BRANCH  24  28
ATOM     27  O   UNL     1      20.707  -4.184  -3.434  0.00  0.00    +0.000 OA
ATOM     28  C   UNL     1      19.562  -3.750  -3.484  0.00  0.00    +0.000 C 
ATOM     29  H   UNL     1      19.319  -2.903  -4.149  0.00  0.00    +0.000 HD
ENDBRANCH  24  28
ENDBRANCH  18  24
ENDBRANCH   1  18
TORSDOF 8
ENDMDL
MODEL 9
REMARK VINA RESULT:    -4.047     15.512     16.671
REMARK INTER + INTRA:          -6.293
REMARK INTER:                  -5.665
REMARK INTRA:                  -0.628
REMARK UNBOUND:                -0.708
REMARK  Name = 443157
REMARK  8 active torsions:
REMARK  status: ('A' for Active; 'I' for Inactive)
REMARK    1  A    between atoms: C_2  and  C_3
REMARK    2  A    between atoms: C_2  and  C_5
REMARK    3  A    between atoms: C_2  and  C_6
REMARK    4  A    between atoms: C_3  and  C_4
REMARK    5  A    between atoms: C_4  and  C_7
REMARK    6  A    between atoms: C_5  and  C_9
REMARK    7  A    between atoms: C_8  and  C_10
REMARK    8  A    between atoms: C_8  and  C_11
REMARK                            x       y       z     vdW  Elec       q    Type
REMARK                         _______ _______ _______ _____ _____    ______ ____
ROOT
ATOM      1  C   UNL     1       1.248   5.721 -19.659  0.00  0.00    +0.000 C 
ATOM      2  H   UNL     1       0.516   6.531 -19.536  0.00  0.00    +0.000 HD
ATOM      3  H   UNL     1       1.487   5.363 -18.649  0.00  0.00    +0.000 HD
ENDROOT
BRANCH   1   4
ATOM      4  C   UNL     1       2.518   6.278 -20.309  0.00  0.00    +0.000 C 
ATOM      5  H   UNL     1       2.781   5.705 -21.204  0.00  0.00    +0.000 HD
ATOM      6  H   UNL     1       2.352   7.305 -20.655  0.00  0.00    +0.000 HD
BRANCH   4   7
ATOM      7  C   UNL     1       3.654   6.326 -19.325  0.00  0.00    +0.000 C 
ATOM      8  C   UNL     1       4.639   5.423 -19.163  0.00  0.00    +0.000 C 
ATOM      9  H   UNL     1       3.654   7.197 -18.671  0.00  0.00    +0.000 HD
BRANCH   8  10
ATOM     10  C   UNL     1       5.750   5.530 -18.157  0.00  0.00    +0.000 C 
ATOM     11  H   UNL     1       5.565   6.333 -17.436  0.00  0.00    +0.000 HD
ATOM     12  H   UNL     1       5.850   4.595 -17.597  0.00  0.00    +0.000 HD
ATOM     13  H   UNL     1       6.700   5.742 -18.658  0.00  0.00    +0.000 HD
ENDBRANCH   8  10
BRANCH   8  14
ATOM     14  C   UNL     1       4.685   4.181 -20.012  0.00  0.00    +0.000 C 
ATOM     15  H   UNL     1       4.734   4.458 -21.071  0.00  0.00    +0.000 HD
ATOM     16  H   UNL     1       3.775   3.590 -19.857  0.00  0.00    +0.000 HD
ATOM     17  H   UNL     1       5.542   3.532 -19.824  0.00  0.00    +0.000 HD
ENDBRANCH   8  14
ENDBRANCH   4   7
ENDBRANCH   1   4
BRANCH   1  18
ATOM     18  C   UNL     1       0.604   4.564 -20.453  0.00  0.00    +0.000 C 
ATOM     19  H   UNL     1      -0.418   4.851 -20.735  0.00  0.00    +0.000 HD
BRANCH  18  20
ATOM     20  C   UNL     1       0.521   3.282 -19.617  0.00  0.00    +0.000 C 
ATOM     21  H   UNL     1       1.516   2.912 -19.352  0.00  0.00    +0.000 HD
ATOM     22  H   UNL     1      -0.007   3.453 -18.673  0.00  0.00    +0.000 HD
ATOM     23  H   UNL     1      -0.005   2.488 -20.160  0.00  0.00    +0.000 HD
ENDBRANCH  18  20
BRANCH  18  24
ATOM     24  C   UNL     1       1.413   4.319 -21.739  0.00  0.00    +0.000 C 
ATOM     25  H   UNL     1       2.479   4.507 -21.560  0.00  0.00    +0.000 HD
ATOM     26  H   UNL     1       1.086   5.007 -22.526  0.00  0.00    +0.000 HD
BRANCH  24  28
ATOM     27  O   UNL     1       2.200   2.240 -22.727  0.00  0.00    +0.000 OA
ATOM     28  C   UNL     1       1.276   2.920 -22.296  0.00  0.00    +0.000 C 
ATOM     29  H   UNL     1       0.244   2.526 -22.314  0.00  0.00    +0.000 HD
ENDBRANCH  24  28
ENDBRANCH  18  24
ENDBRANCH   1  18
TORSDOF 8
ENDMDL
MODEL 10
REMARK VINA RESULT:    -3.955     14.709     16.622
REMARK INTER + INTRA:          -6.166
REMARK INTER:                  -5.458
REMARK INTRA:                  -0.708
REMARK UNBOUND:                -0.708
REMARK  Name = 443157
REMARK  8 active torsions:
REMARK  status: ('A' for Active; 'I' for Inactive)
REMARK    1  A    between atoms: C_2  and  C_3
REMARK    2  A    between atoms: C_2  and  C_5
REMARK    3  A    between atoms: C_2  and  C_6
REMARK    4  A    between atoms: C_3  and  C_4
REMARK    5  A    between atoms: C_4  and  C_7
REMARK    6  A    between atoms: C_5  and  C_9
REMARK    7  A    between atoms: C_8  and  C_10
REMARK    8  A    between atoms: C_8  and  C_11
REMARK                            x       y       z     vdW  Elec       q    Type
REMARK                         _______ _______ _______ _____ _____    ______ ____
ROOT
ATOM      1  C   UNL     1      -6.054 -14.900   1.041  0.00  0.00    +0.000 C 
ATOM      2  H   UNL     1      -5.940 -15.004  -0.046  0.00  0.00    +0.000 HD
ATOM      3  H   UNL     1      -6.704 -15.723   1.365  0.00  0.00    +0.000 HD
ENDROOT
BRANCH   1   4
ATOM      4  C   UNL     1      -6.736 -13.565   1.355  0.00  0.00    +0.000 C 
ATOM      5  H   UNL     1      -6.016 -12.741   1.314  0.00  0.00    +0.000 HD
ATOM      6  H   UNL     1      -7.493 -13.334   0.597  0.00  0.00    +0.000 HD
BRANCH   4   7
ATOM      7  C   UNL     1      -7.446 -13.618   2.679  0.00  0.00    +0.000 C 
ATOM      8  C   UNL     1      -7.041 -13.093   3.851  0.00  0.00    +0.000 C 
ATOM      9  H   UNL     1      -8.392 -14.158   2.668  0.00  0.00    +0.000 HD
BRANCH   8  10
ATOM     10  C   UNL     1      -7.801 -13.181   5.144  0.00  0.00    +0.000 C 
ATOM     11  H   UNL     1      -8.556 -12.392   5.222  0.00  0.00    +0.000 HD
ATOM     12  H   UNL     1      -8.315 -14.144   5.221  0.00  0.00    +0.000 HD
ATOM     13  H   UNL     1      -7.119 -13.078   5.995  0.00  0.00    +0.000 HD
ENDBRANCH   8  10
BRANCH   8  14
ATOM     14  C   UNL     1      -5.730 -12.359   3.947  0.00  0.00    +0.000 C 
ATOM     15  H   UNL     1      -5.681 -11.585   3.173  0.00  0.00    +0.000 HD
ATOM     16  H   UNL     1      -4.900 -13.056   3.783  0.00  0.00    +0.000 HD
ATOM     17  H   UNL     1      -5.559 -11.854   4.899  0.00  0.00    +0.000 HD
ENDBRANCH   8  14
ENDBRANCH   4   7
ENDBRANCH   1   4
BRANCH   1  18
ATOM     18  C   UNL     1      -4.676 -15.064   1.718  0.00  0.00    +0.000 C 
ATOM     19  H   UNL     1      -4.397 -14.114   2.193  0.00  0.00    +0.000 HD
BRANCH  18  20
ATOM     20  C   UNL     1      -3.585 -15.423   0.702  0.00  0.00    +0.000 C 
ATOM     21  H   UNL     1      -3.957 -16.122  -0.053  0.00  0.00    +0.000 HD
ATOM     22  H   UNL     1      -3.237 -14.537   0.159  0.00  0.00    +0.000 HD
ATOM     23  H   UNL     1      -2.720 -15.880   1.194  0.00  0.00    +0.000 HD
ENDBRANCH  18  20
BRANCH  18  24
ATOM     24  C   UNL     1      -4.772 -16.144   2.810  0.00  0.00    +0.000 C 
ATOM     25  H   UNL     1      -4.239 -17.051   2.497  0.00  0.00    +0.000 HD
ATOM     26  H   UNL     1      -5.819 -16.420   2.974  0.00  0.00    +0.000 HD
BRANCH  24  28
ATOM     27  O   UNL     1      -4.875 -15.593   5.177  0.00  0.00    +0.000 OA
ATOM     28  C   UNL     1      -4.217 -15.718   4.150  0.00  0.00    +0.000 C 
ATOM     29  H   UNL     1      -3.135 -15.496   4.155  0.00  0.00    +0.000 HD
ENDBRANCH  24  28
ENDBRANCH  18  24
ENDBRANCH   1  18
TORSDOF 8
ENDMDL
