MODEL 1
REMARK VINA RESULT:    -4.024      0.000      0.000
REMARK INTER + INTRA:          -5.346
REMARK INTER:                  -5.064
REMARK INTRA:                  -0.282
REMARK UNBOUND:                -0.145
REMARK  Name = 8051
REMARK  6 active torsions:
REMARK  status: ('A' for Active; 'I' for Inactive)
REMARK    1  A    between atoms: C_2  and  C_3
REMARK    2  A    between atoms: C_2  and  C_4
REMARK    3  A    between atoms: C_3  and  C_5
REMARK    4  A    between atoms: C_4  and  C_6
REMARK    5  A    between atoms: C_5  and  C_7
REMARK    6  A    between atoms: C_7  and  C_8
REMARK                            x       y       z     vdW  Elec       q    Type
REMARK                         _______ _______ _______ _____ _____    ______ ____
ROOT
ATOM      1  C   UNL     1      -8.089 -13.084   5.240  0.00  0.00    +0.000 C 
ATOM      2  H   UNL     1      -8.680 -13.866   4.748  0.00  0.00    +0.000 HD
ATOM      3  H   UNL     1      -8.708 -12.177   5.239  0.00  0.00    +0.000 HD
ENDROOT
BRANCH   1   4
ATOM      4  C   UNL     1      -7.802 -13.496   6.688  0.00  0.00    +0.000 C 
ATOM      5  H   UNL     1      -6.772 -13.225   6.949  0.00  0.00    +0.000 HD
ATOM      6  H   UNL     1      -8.464 -12.941   7.363  0.00  0.00    +0.000 HD
BRANCH   4   7
ATOM      7  C   UNL     1      -8.007 -14.998   6.887  0.00  0.00    +0.000 C 
ATOM      8  H   UNL     1      -7.042 -15.516   6.839  0.00  0.00    +0.000 HD
ATOM      9  H   UNL     1      -8.429 -15.187   7.880  0.00  0.00    +0.000 HD
BRANCH   7  10
ATOM     10  C   UNL     1      -8.934 -15.578   5.831  0.00  0.00    +0.000 C 
ATOM     11  H   UNL     1      -9.897 -15.056   5.824  0.00  0.00    +0.000 HD
ATOM     12  H   UNL     1      -8.486 -15.478   4.838  0.00  0.00    +0.000 HD
ATOM     13  H   UNL     1      -9.120 -16.641   6.014  0.00  0.00    +0.000 HD
ENDBRANCH   7  10
ENDBRANCH   4   7
ENDBRANCH   1   4
BRANCH   1  14
ATOM     14  C   UNL     1      -6.815 -12.830   4.442  0.00  0.00    +0.000 C 
ATOM     15  H   UNL     1      -5.951 -12.801   5.115  0.00  0.00    +0.000 HD
ATOM     16  H   UNL     1      -6.887 -11.866   3.926  0.00  0.00    +0.000 HD
BRANCH  14  18
ATOM     17  O   UNL     1      -5.766 -14.817   3.602  0.00  0.00    +0.000 OA
ATOM     18  C   UNL     1      -6.553 -13.893   3.392  0.00  0.00    +0.000 C 
BRANCH  18  19
ATOM     19  C   UNL     1      -7.303 -13.787   2.092  0.00  0.00    +0.000 C 
ATOM     20  H   UNL     1      -8.001 -12.948   2.139  0.00  0.00    +0.000 HD
ATOM     21  H   UNL     1      -6.596 -13.643   1.271  0.00  0.00    +0.000 HD
ATOM     22  H   UNL     1      -7.866 -14.708   1.914  0.00  0.00    +0.000 HD
ENDBRANCH  18  19
ENDBRANCH  14  18
ENDBRANCH   1  14
TORSDOF 6
ENDMDL
MODEL 2
REMARK VINA RESULT:    -4.015      1.705      3.974
REMARK INTER + INTRA:          -5.334
REMARK INTER:                  -5.119
REMARK INTRA:                  -0.216
REMARK UNBOUND:                -0.145
REMARK  Name = 8051
REMARK  6 active torsions:
REMARK  status: ('A' for Active; 'I' for Inactive)
REMARK    1  A    between atoms: C_2  and  C_3
REMARK    2  A    between atoms: C_2  and  C_4
REMARK    3  A    between atoms: C_3  and  C_5
REMARK    4  A    between atoms: C_4  and  C_6
REMARK    5  A    between atoms: C_5  and  C_7
REMARK    6  A    between atoms: C_7  and  C_8
REMARK                            x       y       z     vdW  Elec       q    Type
REMARK                         _______ _______ _______ _____ _____    ______ ____
ROOT
ATOM      1  C   UNL     1      -6.341 -12.855   4.386  0.00  0.00    +0.000 C 
ATOM      2  H   UNL     1      -5.737 -13.388   5.130  0.00  0.00    +0.000 HD
ATOM      3  H   UNL     1      -6.063 -11.795   4.460  0.00  0.00    +0.000 HD
ENDROOT
BRANCH   1   4
ATOM      4  C   UNL     1      -5.999 -13.369   2.985  0.00  0.00    +0.000 C 
ATOM      5  H   UNL     1      -5.449 -12.596   2.434  0.00  0.00    +0.000 HD
ATOM      6  H   UNL     1      -5.338 -14.240   3.068  0.00  0.00    +0.000 HD
BRANCH   4   7
ATOM      7  C   UNL     1      -7.261 -13.754   2.213  0.00  0.00    +0.000 C 
ATOM      8  H   UNL     1      -7.475 -14.820   2.355  0.00  0.00    +0.000 HD
ATOM      9  H   UNL     1      -8.120 -13.195   2.601  0.00  0.00    +0.000 HD
BRANCH   7  10
ATOM     10  C   UNL     1      -7.111 -13.474   0.726  0.00  0.00    +0.000 C 
ATOM     11  H   UNL     1      -6.304 -14.074   0.293  0.00  0.00    +0.000 HD
ATOM     12  H   UNL     1      -8.038 -13.719   0.199  0.00  0.00    +0.000 HD
ATOM     13  H   UNL     1      -6.889 -12.417   0.547  0.00  0.00    +0.000 HD
ENDBRANCH   7  10
ENDBRANCH   4   7
ENDBRANCH   1   4
BRANCH   1  14
ATOM     14  C   UNL     1      -7.820 -13.015   4.722  0.00  0.00    +0.000 C 
ATOM     15  H   UNL     1      -8.327 -13.570   3.924  0.00  0.00    +0.000 HD
ATOM     16  H   UNL     1      -8.289 -12.029   4.812  0.00  0.00    +0.000 HD
BRANCH  14  18
ATOM     17  O   UNL     1      -7.817 -13.224   7.111  0.00  0.00    +0.000 OA
ATOM     18  C   UNL     1      -8.054 -13.754   6.025  0.00  0.00    +0.000 C 
BRANCH  18  19
ATOM     19  C   UNL     1      -8.605 -15.153   5.943  0.00  0.00    +0.000 C 
ATOM     20  H   UNL     1      -9.166 -15.271   5.013  0.00  0.00    +0.000 HD
ATOM     21  H   UNL     1      -7.783 -15.873   5.981  0.00  0.00    +0.000 HD
ATOM     22  H   UNL     1      -9.273 -15.338   6.789  0.00  0.00    +0.000 HD
ENDBRANCH  18  19
ENDBRANCH  14  18
ENDBRANCH   1  14
TORSDOF 6
ENDMDL
MODEL 3
REMARK VINA RESULT:    -3.594     40.646     41.561
REMARK INTER + INTRA:          -4.790
REMARK INTER:                  -4.589
REMARK INTRA:                  -0.201
REMARK UNBOUND:                -0.145
REMARK  Name = 8051
REMARK  6 active torsions:
REMARK  status: ('A' for Active; 'I' for Inactive)
REMARK    1  A    between atoms: C_2  and  C_3
REMARK    2  A    between atoms: C_2  and  C_4
REMARK    3  A    between atoms: C_3  and  C_5
REMARK    4  A    between atoms: C_4  and  C_6
REMARK    5  A    between atoms: C_5  and  C_7
REMARK    6  A    between atoms: C_7  and  C_8
REMARK                            x       y       z     vdW  Elec       q    Type
REMARK                         _______ _______ _______ _____ _____    ______ ____
ROOT
ATOM      1  C   UNL     1      12.881  16.790 -11.174  0.00  0.00    +0.000 C 
ATOM      2  H   UNL     1      13.381  16.819 -10.198  0.00  0.00    +0.000 HD
ATOM      3  H   UNL     1      12.153  15.969 -11.128  0.00  0.00    +0.000 HD
ENDROOT
BRANCH   1   4
ATOM      4  C   UNL     1      12.138  18.109 -11.407  0.00  0.00    +0.000 C 
ATOM      5  H   UNL     1      12.579  18.633 -12.263  0.00  0.00    +0.000 HD
ATOM      6  H   UNL     1      11.091  17.898 -11.660  0.00  0.00    +0.000 HD
BRANCH   4   7
ATOM      7  C   UNL     1      12.197  19.004 -10.169  0.00  0.00    +0.000 C 
ATOM      8  H   UNL     1      12.374  18.393  -9.275  0.00  0.00    +0.000 HD
ATOM      9  H   UNL     1      13.035  19.704 -10.255  0.00  0.00    +0.000 HD
BRANCH   7  10
ATOM     10  C   UNL     1      10.906  19.786  -9.986  0.00  0.00    +0.000 C 
ATOM     11  H   UNL     1      10.057  19.252 -10.425  0.00  0.00    +0.000 HD
ATOM     12  H   UNL     1      10.701  19.934  -8.921  0.00  0.00    +0.000 HD
ATOM     13  H   UNL     1      10.975  20.771 -10.458  0.00  0.00    +0.000 HD
ENDBRANCH   7  10
ENDBRANCH   4   7
ENDBRANCH   1   4
BRANCH   1  14
ATOM     14  C   UNL     1      13.907  16.497 -12.264  0.00  0.00    +0.000 C 
ATOM     15  H   UNL     1      13.467  16.680 -13.250  0.00  0.00    +0.000 HD
ATOM     16  H   UNL     1      14.216  15.447 -12.210  0.00  0.00    +0.000 HD
BRANCH  14  18
ATOM     17  O   UNL     1      15.703  17.824 -13.139  0.00  0.00    +0.000 OA
ATOM     18  C   UNL     1      15.156  17.349 -12.144  0.00  0.00    +0.000 C 
BRANCH  18  19
ATOM     19  C   UNL     1      15.692  17.607 -10.761  0.00  0.00    +0.000 C 
ATOM     20  H   UNL     1      15.587  16.705 -10.153  0.00  0.00    +0.000 HD
ATOM     21  H   UNL     1      16.744  17.898 -10.824  0.00  0.00    +0.000 HD
ATOM     22  H   UNL     1      15.130  18.419 -10.292  0.00  0.00    +0.000 HD
ENDBRANCH  18  19
ENDBRANCH  14  18
ENDBRANCH   1  14
TORSDOF 6
ENDMDL
MODEL 4
REMARK VINA RESULT:    -3.568     24.800     25.923
REMARK INTER + INTRA:          -4.757
REMARK INTER:                  -4.635
REMARK INTRA:                  -0.122
REMARK UNBOUND:                -0.145
REMARK  Name = 8051
REMARK  6 active torsions:
REMARK  status: ('A' for Active; 'I' for Inactive)
REMARK    1  A    between atoms: C_2  and  C_3
REMARK    2  A    between atoms: C_2  and  C_4
REMARK    3  A    between atoms: C_3  and  C_5
REMARK    4  A    between atoms: C_4  and  C_6
REMARK    5  A    between atoms: C_5  and  C_7
REMARK    6  A    between atoms: C_7  and  C_8
REMARK                            x       y       z     vdW  Elec       q    Type
REMARK                         _______ _______ _______ _____ _____    ______ ____
ROOT
ATOM      1  C   UNL     1      15.486  -6.317  -1.812  0.00  0.00    +0.000 C 
ATOM      2  H   UNL     1      16.213  -7.086  -2.101  0.00  0.00    +0.000 HD
ATOM      3  H   UNL     1      14.497  -6.701  -2.093  0.00  0.00    +0.000 HD
ENDROOT
BRANCH   1   4
ATOM      4  C   UNL     1      15.535  -6.111  -0.295  0.00  0.00    +0.000 C 
ATOM      5  H   UNL     1      16.212  -5.282  -0.059  0.00  0.00    +0.000 HD
ATOM      6  H   UNL     1      14.538  -5.829   0.066  0.00  0.00    +0.000 HD
BRANCH   4   7
ATOM      7  C   UNL     1      16.001  -7.378   0.421  0.00  0.00    +0.000 C 
ATOM      8  H   UNL     1      16.076  -8.206  -0.296  0.00  0.00    +0.000 HD
ATOM      9  H   UNL     1      17.000  -7.222   0.842  0.00  0.00    +0.000 HD
BRANCH   7  10
ATOM     10  C   UNL     1      15.044  -7.773   1.534  0.00  0.00    +0.000 C 
ATOM     11  H   UNL     1      14.032  -7.929   1.145  0.00  0.00    +0.000 HD
ATOM     12  H   UNL     1      15.375  -8.703   2.006  0.00  0.00    +0.000 HD
ATOM     13  H   UNL     1      15.000  -6.998   2.306  0.00  0.00    +0.000 HD
ENDBRANCH   7  10
ENDBRANCH   4   7
ENDBRANCH   1   4
BRANCH   1  14
ATOM     14  C   UNL     1      15.769  -5.033  -2.586  0.00  0.00    +0.000 C 
ATOM     15  H   UNL     1      15.587  -4.163  -1.946  0.00  0.00    +0.000 HD
ATOM     16  H   UNL     1      15.106  -4.970  -3.456  0.00  0.00    +0.000 HD
BRANCH  14  18
ATOM     17  O   UNL     1      17.944  -4.034  -2.746  0.00  0.00    +0.000 OA
ATOM     18  C   UNL     1      17.196  -4.950  -3.091  0.00  0.00    +0.000 C 
BRANCH  18  19
ATOM     19  C   UNL     1      17.672  -6.038  -4.017  0.00  0.00    +0.000 C 
ATOM     20  H   UNL     1      17.492  -5.741  -5.053  0.00  0.00    +0.000 HD
ATOM     21  H   UNL     1      18.738  -6.217  -3.855  0.00  0.00    +0.000 HD
ATOM     22  H   UNL     1      17.125  -6.963  -3.812  0.00  0.00    +0.000 HD
ENDBRANCH  18  19
ENDBRANCH  14  18
ENDBRANCH   1  14
TORSDOF 6
ENDMDL
MODEL 5
REMARK VINA RESULT:    -3.501      1.923      2.841
REMARK INTER + INTRA:          -4.669
REMARK INTER:                  -4.610
REMARK INTRA:                  -0.059
REMARK UNBOUND:                -0.145
REMARK  Name = 8051
REMARK  6 active torsions:
REMARK  status: ('A' for Active; 'I' for Inactive)
REMARK    1  A    between atoms: C_2  and  C_3
REMARK    2  A    between atoms: C_2  and  C_4
REMARK    3  A    between atoms: C_3  and  C_5
REMARK    4  A    between atoms: C_4  and  C_6
REMARK    5  A    between atoms: C_5  and  C_7
REMARK    6  A    between atoms: C_7  and  C_8
REMARK                            x       y       z     vdW  Elec       q    Type
REMARK                         _______ _______ _______ _____ _____    ______ ____
ROOT
ATOM      1  C   UNL     1      -7.472 -13.259   2.913  0.00  0.00    +0.000 C 
ATOM      2  H   UNL     1      -8.542 -13.498   2.862  0.00  0.00    +0.000 HD
ATOM      3  H   UNL     1      -7.355 -12.257   2.481  0.00  0.00    +0.000 HD
ENDROOT
BRANCH   1   4
ATOM      4  C   UNL     1      -7.024 -13.232   4.378  0.00  0.00    +0.000 C 
ATOM      5  H   UNL     1      -6.313 -14.047   4.559  0.00  0.00    +0.000 HD
ATOM      6  H   UNL     1      -6.497 -12.292   4.580  0.00  0.00    +0.000 HD
BRANCH   4   7
ATOM      7  C   UNL     1      -8.217 -13.366   5.324  0.00  0.00    +0.000 C 
ATOM      8  H   UNL     1      -8.871 -12.491   5.226  0.00  0.00    +0.000 HD
ATOM      9  H   UNL     1      -8.809 -14.247   5.054  0.00  0.00    +0.000 HD
BRANCH   7  10
ATOM     10  C   UNL     1      -7.768 -13.489   6.771  0.00  0.00    +0.000 C 
ATOM     11  H   UNL     1      -6.683 -13.361   6.859  0.00  0.00    +0.000 HD
ATOM     12  H   UNL     1      -8.250 -12.722   7.384  0.00  0.00    +0.000 HD
ATOM     13  H   UNL     1      -8.033 -14.468   7.183  0.00  0.00    +0.000 HD
ENDBRANCH   7  10
ENDBRANCH   4   7
ENDBRANCH   1   4
BRANCH   1  14
ATOM     14  C   UNL     1      -6.686 -14.266   2.080  0.00  0.00    +0.000 C 
ATOM     15  H   UNL     1      -6.857 -15.279   2.459  0.00  0.00    +0.000 HD
ATOM     16  H   UNL     1      -5.614 -14.046   2.148  0.00  0.00    +0.000 HD
BRANCH  14  18
ATOM     17  O   UNL     1      -7.082 -13.193  -0.028  0.00  0.00    +0.000 OA
ATOM     18  C   UNL     1      -7.066 -14.245   0.613  0.00  0.00    +0.000 C 
BRANCH  18  19
ATOM     19  C   UNL     1      -7.407 -15.560  -0.037  0.00  0.00    +0.000 C 
ATOM     20  H   UNL     1      -6.577 -15.879  -0.673  0.00  0.00    +0.000 HD
ATOM     21  H   UNL     1      -7.601 -16.310   0.734  0.00  0.00    +0.000 HD
ATOM     22  H   UNL     1      -8.304 -15.447  -0.653  0.00  0.00    +0.000 HD
ENDBRANCH  18  19
ENDBRANCH  14  18
ENDBRANCH   1  14
TORSDOF 6
ENDMDL
MODEL 6
REMARK VINA RESULT:    -3.485     13.839     14.853
REMARK INTER + INTRA:          -4.649
REMARK INTER:                  -4.460
REMARK INTRA:                  -0.189
REMARK UNBOUND:                -0.145
REMARK  Name = 8051
REMARK  6 active torsions:
REMARK  status: ('A' for Active; 'I' for Inactive)
REMARK    1  A    between atoms: C_2  and  C_3
REMARK    2  A    between atoms: C_2  and  C_4
REMARK    3  A    between atoms: C_3  and  C_5
REMARK    4  A    between atoms: C_4  and  C_6
REMARK    5  A    between atoms: C_5  and  C_7
REMARK    6  A    between atoms: C_7  and  C_8
REMARK                            x       y       z     vdW  Elec       q    Type
REMARK                         _______ _______ _______ _____ _____    ______ ____
ROOT
ATOM      1  C   UNL     1     -14.869  -5.901  -4.950  0.00  0.00    +0.000 C 
ATOM      2  H   UNL     1     -14.817  -4.841  -5.232  0.00  0.00    +0.000 HD
ATOM      3  H   UNL     1     -14.661  -6.476  -5.862  0.00  0.00    +0.000 HD
ENDROOT
BRANCH   1   4
ATOM      4  C   UNL     1     -13.791  -6.205  -3.906  0.00  0.00    +0.000 C 
ATOM      5  H   UNL     1     -14.127  -5.861  -2.920  0.00  0.00    +0.000 HD
ATOM      6  H   UNL     1     -13.645  -7.290  -3.838  0.00  0.00    +0.000 HD
BRANCH   4   7
ATOM      7  C   UNL     1     -12.466  -5.530  -4.264  0.00  0.00    +0.000 C 
ATOM      8  H   UNL     1     -12.234  -4.751  -3.528  0.00  0.00    +0.000 HD
ATOM      9  H   UNL     1     -11.653  -6.263  -4.228  0.00  0.00    +0.000 HD
BRANCH   7  10
ATOM     10  C   UNL     1     -12.517  -4.906  -5.649  0.00  0.00    +0.000 C 
ATOM     11  H   UNL     1     -11.939  -3.976  -5.682  0.00  0.00    +0.000 HD
ATOM     12  H   UNL     1     -12.098  -5.593  -6.390  0.00  0.00    +0.000 HD
ATOM     13  H   UNL     1     -13.548  -4.680  -5.940  0.00  0.00    +0.000 HD
ENDBRANCH   7  10
ENDBRANCH   4   7
ENDBRANCH   1   4
BRANCH   1  14
ATOM     14  C   UNL     1     -16.273  -6.228  -4.453  0.00  0.00    +0.000 C 
ATOM     15  H   UNL     1     -16.359  -7.301  -4.255  0.00  0.00    +0.000 HD
ATOM     16  H   UNL     1     -17.010  -5.955  -5.218  0.00  0.00    +0.000 HD
BRANCH  14  18
ATOM     17  O   UNL     1     -16.601  -4.258  -3.125  0.00  0.00    +0.000 OA
ATOM     18  C   UNL     1     -16.638  -5.487  -3.181  0.00  0.00    +0.000 C 
BRANCH  18  19
ATOM     19  C   UNL     1     -17.064  -6.310  -1.995  0.00  0.00    +0.000 C 
ATOM     20  H   UNL     1     -17.984  -5.897  -1.575  0.00  0.00    +0.000 HD
ATOM     21  H   UNL     1     -17.223  -7.346  -2.306  0.00  0.00    +0.000 HD
ATOM     22  H   UNL     1     -16.283  -6.288  -1.230  0.00  0.00    +0.000 HD
ENDBRANCH  18  19
ENDBRANCH  14  18
ENDBRANCH   1  14
TORSDOF 6
ENDMDL
MODEL 7
REMARK VINA RESULT:    -3.471     31.934     32.732
REMARK INTER + INTRA:          -4.631
REMARK INTER:                  -4.313
REMARK INTRA:                  -0.318
REMARK UNBOUND:                -0.145
REMARK  Name = 8051
REMARK  6 active torsions:
REMARK  status: ('A' for Active; 'I' for Inactive)
REMARK    1  A    between atoms: C_2  and  C_3
REMARK    2  A    between atoms: C_2  and  C_4
REMARK    3  A    between atoms: C_3  and  C_5
REMARK    4  A    between atoms: C_4  and  C_6
REMARK    5  A    between atoms: C_5  and  C_7
REMARK    6  A    between atoms: C_7  and  C_8
REMARK                            x       y       z     vdW  Elec       q    Type
REMARK                         _______ _______ _______ _____ _____    ______ ____
ROOT
ATOM      1  C   UNL     1       0.823   4.033 -19.934  0.00  0.00    +0.000 C 
ATOM      2  H   UNL     1       1.464   3.445 -19.266  0.00  0.00    +0.000 HD
ATOM      3  H   UNL     1      -0.201   3.663 -19.791  0.00  0.00    +0.000 HD
ENDROOT
BRANCH   1   4
ATOM      4  C   UNL     1       0.884   5.510 -19.533  0.00  0.00    +0.000 C 
ATOM      5  H   UNL     1      -0.071   5.995 -19.768  0.00  0.00    +0.000 HD
ATOM      6  H   UNL     1       1.028   5.587 -18.448  0.00  0.00    +0.000 HD
BRANCH   4   7
ATOM      7  C   UNL     1       2.022   6.233 -20.254  0.00  0.00    +0.000 C 
ATOM      8  H   UNL     1       2.282   5.695 -21.174  0.00  0.00    +0.000 HD
ATOM      9  H   UNL     1       1.699   7.238 -20.546  0.00  0.00    +0.000 HD
BRANCH   7  10
ATOM     10  C   UNL     1       3.259   6.340 -19.377  0.00  0.00    +0.000 C 
ATOM     11  H   UNL     1       3.448   5.399 -18.849  0.00  0.00    +0.000 HD
ATOM     12  H   UNL     1       4.137   6.570 -19.987  0.00  0.00    +0.000 HD
ATOM     13  H   UNL     1       3.144   7.134 -18.633  0.00  0.00    +0.000 HD
ENDBRANCH   7  10
ENDBRANCH   4   7
ENDBRANCH   1   4
BRANCH   1  14
ATOM     14  C   UNL     1       1.248   3.804 -21.381  0.00  0.00    +0.000 C 
ATOM     15  H   UNL     1       1.722   4.707 -21.779  0.00  0.00    +0.000 HD
ATOM     16  H   UNL     1       0.368   3.573 -21.993  0.00  0.00    +0.000 HD
BRANCH  14  18
ATOM     17  O   UNL     1       2.282   1.999 -22.575  0.00  0.00    +0.000 OA
ATOM     18  C   UNL     1       2.226   2.656 -21.535  0.00  0.00    +0.000 C 
BRANCH  18  19
ATOM     19  C   UNL     1       3.140   2.360 -20.375  0.00  0.00    +0.000 C 
ATOM     20  H   UNL     1       3.128   1.288 -20.163  0.00  0.00    +0.000 HD
ATOM     21  H   UNL     1       4.156   2.685 -20.617  0.00  0.00    +0.000 HD
ATOM     22  H   UNL     1       2.799   2.902 -19.488  0.00  0.00    +0.000 HD
ENDBRANCH  18  19
ENDBRANCH  14  18
ENDBRANCH   1  14
TORSDOF 6
ENDMDL
MODEL 8
REMARK VINA RESULT:    -3.407     31.745     32.817
REMARK INTER + INTRA:          -4.548
REMARK INTER:                  -4.468
REMARK INTRA:                  -0.080
REMARK UNBOUND:                -0.145
REMARK  Name = 8051
REMARK  6 active torsions:
REMARK  status: ('A' for Active; 'I' for Inactive)
REMARK    1  A    between atoms: C_2  and  C_3
REMARK    2  A    between atoms: C_2  and  C_4
REMARK    3  A    between atoms: C_3  and  C_5
REMARK    4  A    between atoms: C_4  and  C_6
REMARK    5  A    between atoms: C_5  and  C_7
REMARK    6  A    between atoms: C_7  and  C_8
REMARK                            x       y       z     vdW  Elec       q    Type
REMARK                         _______ _______ _______ _____ _____    ______ ____
ROOT
ATOM      1  C   UNL     1       3.529   6.381 -19.204  0.00  0.00    +0.000 C 
ATOM      2  H   UNL     1       3.141   6.259 -18.185  0.00  0.00    +0.000 HD
ATOM      3  H   UNL     1       3.710   7.455 -19.343  0.00  0.00    +0.000 HD
ENDROOT
BRANCH   1   4
ATOM      4  C   UNL     1       4.853   5.625 -19.341  0.00  0.00    +0.000 C 
ATOM      5  H   UNL     1       4.654   4.584 -19.623  0.00  0.00    +0.000 HD
ATOM      6  H   UNL     1       5.446   6.072 -20.148  0.00  0.00    +0.000 HD
BRANCH   4   7
ATOM      7  C   UNL     1       5.650   5.663 -18.037  0.00  0.00    +0.000 C 
ATOM      8  H   UNL     1       6.288   6.556 -18.015  0.00  0.00    +0.000 HD
ATOM      9  H   UNL     1       4.966   5.732 -17.184  0.00  0.00    +0.000 HD
BRANCH   7  10
ATOM     10  C   UNL     1       6.523   4.428 -17.881  0.00  0.00    +0.000 C 
ATOM     11  H   UNL     1       7.582   4.677 -18.002  0.00  0.00    +0.000 HD
ATOM     12  H   UNL     1       6.388   3.992 -16.887  0.00  0.00    +0.000 HD
ATOM     13  H   UNL     1       6.261   3.667 -18.623  0.00  0.00    +0.000 HD
ENDBRANCH   7  10
ENDBRANCH   4   7
ENDBRANCH   1   4
BRANCH   1  14
ATOM     14  C   UNL     1       2.481   5.911 -20.207  0.00  0.00    +0.000 C 
ATOM     15  H   UNL     1       2.849   5.032 -20.748  0.00  0.00    +0.000 HD
ATOM     16  H   UNL     1       2.278   6.707 -20.933  0.00  0.00    +0.000 HD
BRANCH  14  18
ATOM     17  O   UNL     1       0.518   6.361 -18.904  0.00  0.00    +0.000 OA
ATOM     18  C   UNL     1       1.163   5.539 -19.556  0.00  0.00    +0.000 C 
BRANCH  18  19
ATOM     19  C   UNL     1       0.663   4.132 -19.749  0.00  0.00    +0.000 C 
ATOM     20  H   UNL     1      -0.201   4.139 -20.418  0.00  0.00    +0.000 HD
ATOM     21  H   UNL     1       1.461   3.515 -20.171  0.00  0.00    +0.000 HD
ATOM     22  H   UNL     1       0.364   3.709 -18.786  0.00  0.00    +0.000 HD
ENDBRANCH  18  19
ENDBRANCH  14  18
ENDBRANCH   1  14
TORSDOF 6
ENDMDL
MODEL 9
REMARK VINA RESULT:    -3.365      1.860      4.039
REMARK INTER + INTRA:          -4.494
REMARK INTER:                  -4.362
REMARK INTRA:                  -0.132
REMARK UNBOUND:                -0.145
REMARK  Name = 8051
REMARK  6 active torsions:
REMARK  status: ('A' for Active; 'I' for Inactive)
REMARK    1  A    between atoms: C_2  and  C_3
REMARK    2  A    between atoms: C_2  and  C_4
REMARK    3  A    between atoms: C_3  and  C_5
REMARK    4  A    between atoms: C_4  and  C_6
REMARK    5  A    between atoms: C_5  and  C_7
REMARK    6  A    between atoms: C_7  and  C_8
REMARK                            x       y       z     vdW  Elec       q    Type
REMARK                         _______ _______ _______ _____ _____    ______ ____
ROOT
ATOM      1  C   UNL     1      -8.514 -14.601   5.663  0.00  0.00    +0.000 C 
ATOM      2  H   UNL     1      -9.596 -14.681   5.499  0.00  0.00    +0.000 HD
ATOM      3  H   UNL     1      -8.035 -15.212   4.887  0.00  0.00    +0.000 HD
ENDROOT
BRANCH   1   4
ATOM      4  C   UNL     1      -8.078 -13.143   5.498  0.00  0.00    +0.000 C 
ATOM      5  H   UNL     1      -8.959 -12.513   5.329  0.00  0.00    +0.000 HD
ATOM      6  H   UNL     1      -7.604 -12.797   6.425  0.00  0.00    +0.000 HD
BRANCH   4   7
ATOM      7  C   UNL     1      -7.100 -12.986   4.333  0.00  0.00    +0.000 C 
ATOM      8  H   UNL     1      -7.478 -13.523   3.455  0.00  0.00    +0.000 HD
ATOM      9  H   UNL     1      -7.016 -11.929   4.057  0.00  0.00    +0.000 HD
BRANCH   7  10
ATOM     10  C   UNL     1      -5.722 -13.523   4.687  0.00  0.00    +0.000 C 
ATOM     11  H   UNL     1      -5.030 -13.412   3.846  0.00  0.00    +0.000 HD
ATOM     12  H   UNL     1      -5.310 -12.975   5.540  0.00  0.00    +0.000 HD
ATOM     13  H   UNL     1      -5.771 -14.582   4.956  0.00  0.00    +0.000 HD
ENDBRANCH   7  10
ENDBRANCH   4   7
ENDBRANCH   1   4
BRANCH   1  14
ATOM     14  C   UNL     1      -8.166 -15.164   7.037  0.00  0.00    +0.000 C 
ATOM     15  H   UNL     1      -9.009 -15.025   7.723  0.00  0.00    +0.000 HD
ATOM     16  H   UNL     1      -7.296 -14.636   7.444  0.00  0.00    +0.000 HD
BRANCH  14  18
ATOM     17  O   UNL     1      -6.867 -17.063   6.361  0.00  0.00    +0.000 OA
ATOM     18  C   UNL     1      -7.829 -16.642   7.003  0.00  0.00    +0.000 C 
BRANCH  18  19
ATOM     19  C   UNL     1      -8.704 -17.574   7.800  0.00  0.00    +0.000 C 
ATOM     20  H   UNL     1      -8.707 -18.561   7.332  0.00  0.00    +0.000 HD
ATOM     21  H   UNL     1      -8.329 -17.642   8.824  0.00  0.00    +0.000 HD
ATOM     22  H   UNL     1      -9.727 -17.189   7.825  0.00  0.00    +0.000 HD
ENDBRANCH  18  19
ENDBRANCH  14  18
ENDBRANCH   1  14
TORSDOF 6
ENDMDL
MODEL 10
REMARK VINA RESULT:    -3.342     14.490     15.385
REMARK INTER + INTRA:          -4.464
REMARK INTER:                  -4.319
REMARK INTRA:                  -0.145
REMARK UNBOUND:                -0.145
REMARK  Name = 8051
REMARK  6 active torsions:
REMARK  status: ('A' for Active; 'I' for Inactive)
REMARK    1  A    between atoms: C_2  and  C_3
REMARK    2  A    between atoms: C_2  and  C_4
REMARK    3  A    between atoms: C_3  and  C_5
REMARK    4  A    between atoms: C_4  and  C_6
REMARK    5  A    between atoms: C_5  and  C_7
REMARK    6  A    between atoms: C_7  and  C_8
REMARK                            x       y       z     vdW  Elec       q    Type
REMARK                         _______ _______ _______ _____ _____    ______ ____
ROOT
ATOM      1  C   UNL     1     -18.284  -6.790  -2.777  0.00  0.00    +0.000 C 
ATOM      2  H   UNL     1     -18.572  -7.725  -2.281  0.00  0.00    +0.000 HD
ATOM      3  H   UNL     1     -18.012  -7.053  -3.807  0.00  0.00    +0.000 HD
ENDROOT
BRANCH   1   4
ATOM      4  C   UNL     1     -19.480  -5.833  -2.801  0.00  0.00    +0.000 C 
ATOM      5  H   UNL     1     -19.240  -4.931  -2.226  0.00  0.00    +0.000 HD
ATOM      6  H   UNL     1     -19.674  -5.518  -3.833  0.00  0.00    +0.000 HD
BRANCH   4   7
ATOM      7  C   UNL     1     -20.730  -6.497  -2.222  0.00  0.00    +0.000 C 
ATOM      8  H   UNL     1     -20.670  -6.515  -1.127  0.00  0.00    +0.000 HD
ATOM      9  H   UNL     1     -21.618  -5.913  -2.489  0.00  0.00    +0.000 HD
BRANCH   7  10
ATOM     10  C   UNL     1     -20.893  -7.919  -2.734  0.00  0.00    +0.000 C 
ATOM     11  H   UNL     1     -21.377  -8.553  -1.984  0.00  0.00    +0.000 HD
ATOM     12  H   UNL     1     -21.511  -7.928  -3.637  0.00  0.00    +0.000 HD
ATOM     13  H   UNL     1     -19.923  -8.359  -2.983  0.00  0.00    +0.000 HD
ENDBRANCH   7  10
ENDBRANCH   4   7
ENDBRANCH   1   4
BRANCH   1  14
ATOM     14  C   UNL     1     -17.072  -6.192  -2.070  0.00  0.00    +0.000 C 
ATOM     15  H   UNL     1     -16.525  -6.977  -1.538  0.00  0.00    +0.000 HD
ATOM     16  H   UNL     1     -17.400  -5.442  -1.341  0.00  0.00    +0.000 HD
BRANCH  14  18
ATOM     17  O   UNL     1     -16.040  -4.286  -3.096  0.00  0.00    +0.000 OA
ATOM     18  C   UNL     1     -16.107  -5.513  -3.022  0.00  0.00    +0.000 C 
BRANCH  18  19
ATOM     19  C   UNL     1     -15.220  -6.395  -3.861  0.00  0.00    +0.000 C 
ATOM     20  H   UNL     1     -14.553  -6.966  -3.211  0.00  0.00    +0.000 HD
ATOM     21  H   UNL     1     -15.837  -7.073  -4.457  0.00  0.00    +0.000 HD
ATOM     22  H   UNL     1     -14.619  -5.780  -4.536  0.00  0.00    +0.000 HD
ENDBRANCH  18  19
ENDBRANCH  14  18
ENDBRANCH   1  14
TORSDOF 6
ENDMDL
