MODEL 1
REMARK VINA RESULT:    -4.502      0.000      0.000
REMARK INTER + INTRA:          -5.899
REMARK INTER:                  -5.637
REMARK INTRA:                  -0.262
REMARK UNBOUND:                -0.213
REMARK  Name = 32594
REMARK  6 active torsions:
REMARK  status: ('A' for Active; 'I' for Inactive)
REMARK    1  A    between atoms: O_1  and  C_9
REMARK    2  A    between atoms: O_1  and  C_12
REMARK    3  A    between atoms: C_4  and  C_5
REMARK    4  A    between atoms: C_4  and  C_6
REMARK    5  A    between atoms: C_4  and  C_7
REMARK    6  A    between atoms: C_5  and  C_8
REMARK                            x       y       z     vdW  Elec       q    Type
REMARK                         _______ _______ _______ _____ _____    ______ ____
ROOT
ATOM      1  C   UNL     1       1.060   4.193 -19.736  0.00  0.00    +0.000 C 
ATOM      2  H   UNL     1       0.537   3.947 -18.802  0.00  0.00    +0.000 HD
ATOM      3  H   UNL     1       2.121   4.001 -19.527  0.00  0.00    +0.000 HD
ENDROOT
BRANCH   1   6
ATOM      4  N   UNL     1      -0.749   3.065 -20.877  0.00  0.00    +0.000 NA
ATOM      5  N   UNL     1       1.043   1.839 -22.652  0.00  0.00    +0.000 NA
ATOM      6  C   UNL     1       0.574   3.263 -20.820  0.00  0.00    +0.000 A 
ATOM      7  C   UNL     1       1.460   2.673 -21.679  0.00  0.00    +0.000 A 
ATOM      8  C   UNL     1      -1.167   2.232 -21.850  0.00  0.00    +0.000 A 
ATOM      9  C   UNL     1      -0.287   1.630 -22.723  0.00  0.00    +0.000 A 
ATOM     10  H   UNL     1      -2.235   2.064 -21.907  0.00  0.00    +0.000 HD
ATOM     11  H   UNL     1      -0.623   0.961 -23.505  0.00  0.00    +0.000 HD
BRANCH   7  12
ATOM     12  O   UNL     1       2.805   2.900 -21.589  0.00  0.00    +0.000 OA
BRANCH  12  13
ATOM     13  C   UNL     1       3.512   3.070 -22.814  0.00  0.00    +0.000 C 
ATOM     14  H   UNL     1       3.755   2.102 -23.264  0.00  0.00    +0.000 HD
ATOM     15  H   UNL     1       4.417   3.669 -22.664  0.00  0.00    +0.000 HD
ATOM     16  H   UNL     1       2.860   3.611 -23.506  0.00  0.00    +0.000 HD
ENDBRANCH  12  13
ENDBRANCH   7  12
ENDBRANCH   1   6
BRANCH   1  17
ATOM     17  C   UNL     1       0.858   5.686 -20.058  0.00  0.00    +0.000 C 
ATOM     18  H   UNL     1       0.028   5.771 -20.770  0.00  0.00    +0.000 HD
BRANCH  17  19
ATOM     19  C   UNL     1       0.521   6.503 -18.808  0.00  0.00    +0.000 C 
ATOM     20  H   UNL     1       0.926   6.065 -17.890  0.00  0.00    +0.000 HD
ATOM     21  H   UNL     1      -0.560   6.630 -18.701  0.00  0.00    +0.000 HD
ATOM     22  H   UNL     1       0.952   7.507 -18.895  0.00  0.00    +0.000 HD
ENDBRANCH  17  19
BRANCH  17  23
ATOM     23  C   UNL     1       2.120   6.249 -20.716  0.00  0.00    +0.000 C 
ATOM     24  H   UNL     1       2.203   5.881 -21.745  0.00  0.00    +0.000 HD
ATOM     25  H   UNL     1       2.114   7.343 -20.765  0.00  0.00    +0.000 HD
ATOM     26  H   UNL     1       3.021   5.931 -20.181  0.00  0.00    +0.000 HD
ENDBRANCH  17  23
ENDBRANCH   1  17
TORSDOF 6
ENDMDL
MODEL 2
REMARK VINA RESULT:    -4.089     34.302     35.430
REMARK INTER + INTRA:          -5.377
REMARK INTER:                  -5.218
REMARK INTRA:                  -0.159
REMARK UNBOUND:                -0.213
REMARK  Name = 32594
REMARK  6 active torsions:
REMARK  status: ('A' for Active; 'I' for Inactive)
REMARK    1  A    between atoms: O_1  and  C_9
REMARK    2  A    between atoms: O_1  and  C_12
REMARK    3  A    between atoms: C_4  and  C_5
REMARK    4  A    between atoms: C_4  and  C_6
REMARK    5  A    between atoms: C_4  and  C_7
REMARK    6  A    between atoms: C_5  and  C_8
REMARK                            x       y       z     vdW  Elec       q    Type
REMARK                         _______ _______ _______ _____ _____    ______ ____
ROOT
ATOM      1  C   UNL     1     -15.850 -15.415   3.546  0.00  0.00    +0.000 C 
ATOM      2  H   UNL     1     -16.022 -14.344   3.373  0.00  0.00    +0.000 HD
ATOM      3  H   UNL     1     -16.649 -15.727   4.231  0.00  0.00    +0.000 HD
ENDROOT
BRANCH   1   6
ATOM      4  N   UNL     1     -14.844 -16.453   1.606  0.00  0.00    +0.000 NA
ATOM      5  N   UNL     1     -17.365 -17.105   0.563  0.00  0.00    +0.000 NA
ATOM      6  C   UNL     1     -15.988 -16.144   2.232  0.00  0.00    +0.000 A 
ATOM      7  C   UNL     1     -17.223 -16.456   1.736  0.00  0.00    +0.000 A 
ATOM      8  C   UNL     1     -14.984 -17.102   0.433  0.00  0.00    +0.000 A 
ATOM      9  C   UNL     1     -16.222 -17.423  -0.079  0.00  0.00    +0.000 A 
ATOM     10  H   UNL     1     -14.067 -17.357  -0.082  0.00  0.00    +0.000 HD
ATOM     11  H   UNL     1     -16.335 -17.945  -1.021  0.00  0.00    +0.000 HD
BRANCH   7  12
ATOM     12  O   UNL     1     -18.369 -16.124   2.405  0.00  0.00    +0.000 OA
BRANCH  12  13
ATOM     13  C   UNL     1     -19.597 -16.574   1.841  0.00  0.00    +0.000 C 
ATOM     14  H   UNL     1     -20.162 -17.175   2.561  0.00  0.00    +0.000 HD
ATOM     15  H   UNL     1     -19.422 -17.136   0.916  0.00  0.00    +0.000 HD
ATOM     16  H   UNL     1     -20.196 -15.693   1.593  0.00  0.00    +0.000 HD
ENDBRANCH  12  13
ENDBRANCH   7  12
ENDBRANCH   1   6
BRANCH   1  17
ATOM     17  C   UNL     1     -14.481 -15.611   4.226  0.00  0.00    +0.000 C 
ATOM     18  H   UNL     1     -13.722 -15.713   3.440  0.00  0.00    +0.000 HD
BRANCH  17  19
ATOM     19  C   UNL     1     -14.109 -14.425   5.119  0.00  0.00    +0.000 C 
ATOM     20  H   UNL     1     -13.689 -13.583   4.558  0.00  0.00    +0.000 HD
ATOM     21  H   UNL     1     -13.404 -14.726   5.899  0.00  0.00    +0.000 HD
ATOM     22  H   UNL     1     -15.005 -14.049   5.627  0.00  0.00    +0.000 HD
ENDBRANCH  17  19
BRANCH  17  23
ATOM     23  C   UNL     1     -14.493 -16.896   5.056  0.00  0.00    +0.000 C 
ATOM     24  H   UNL     1     -14.629 -16.658   6.116  0.00  0.00    +0.000 HD
ATOM     25  H   UNL     1     -15.307 -17.571   4.770  0.00  0.00    +0.000 HD
ATOM     26  H   UNL     1     -13.545 -17.438   4.961  0.00  0.00    +0.000 HD
ENDBRANCH  17  23
ENDBRANCH   1  17
TORSDOF 6
ENDMDL
MODEL 3
REMARK VINA RESULT:    -4.072     31.245     32.002
REMARK INTER + INTRA:          -5.356
REMARK INTER:                  -5.153
REMARK INTRA:                  -0.203
REMARK UNBOUND:                -0.213
REMARK  Name = 32594
REMARK  6 active torsions:
REMARK  status: ('A' for Active; 'I' for Inactive)
REMARK    1  A    between atoms: O_1  and  C_9
REMARK    2  A    between atoms: O_1  and  C_12
REMARK    3  A    between atoms: C_4  and  C_5
REMARK    4  A    between atoms: C_4  and  C_6
REMARK    5  A    between atoms: C_4  and  C_7
REMARK    6  A    between atoms: C_5  and  C_8
REMARK                            x       y       z     vdW  Elec       q    Type
REMARK                         _______ _______ _______ _____ _____    ______ ____
ROOT
ATOM      1  C   UNL     1      -7.713 -14.901   4.536  0.00  0.00    +0.000 C 
ATOM      2  H   UNL     1      -8.291 -14.048   4.155  0.00  0.00    +0.000 HD
ATOM      3  H   UNL     1      -8.312 -15.787   4.289  0.00  0.00    +0.000 HD
ENDROOT
BRANCH   1   6
ATOM      4  N   UNL     1      -5.366 -15.486   4.482  0.00  0.00    +0.000 NA
ATOM      5  N   UNL     1      -5.115 -14.514   1.863  0.00  0.00    +0.000 NA
ATOM      6  C   UNL     1      -6.393 -14.954   3.806  0.00  0.00    +0.000 A 
ATOM      7  C   UNL     1      -6.285 -14.476   2.529  0.00  0.00    +0.000 A 
ATOM      8  C   UNL     1      -4.195 -15.524   3.816  0.00  0.00    +0.000 A 
ATOM      9  C   UNL     1      -4.071 -15.048   2.530  0.00  0.00    +0.000 A 
ATOM     10  H   UNL     1      -3.357 -15.953   4.352  0.00  0.00    +0.000 HD
ATOM     11  H   UNL     1      -3.130 -15.079   1.995  0.00  0.00    +0.000 HD
BRANCH   7  12
ATOM     12  O   UNL     1      -7.358 -13.940   1.872  0.00  0.00    +0.000 OA
BRANCH  12  13
ATOM     13  C   UNL     1      -7.126 -13.450   0.555  0.00  0.00    +0.000 C 
ATOM     14  H   UNL     1      -7.852 -13.864  -0.152  0.00  0.00    +0.000 HD
ATOM     15  H   UNL     1      -6.101 -13.663   0.231  0.00  0.00    +0.000 HD
ATOM     16  H   UNL     1      -7.255 -12.363   0.574  0.00  0.00    +0.000 HD
ENDBRANCH  12  13
ENDBRANCH   7  12
ENDBRANCH   1   6
BRANCH   1  17
ATOM     17  C   UNL     1      -7.573 -14.782   6.066  0.00  0.00    +0.000 C 
ATOM     18  H   UNL     1      -6.541 -15.042   6.335  0.00  0.00    +0.000 HD
BRANCH  17  19
ATOM     19  C   UNL     1      -7.870 -13.365   6.562  0.00  0.00    +0.000 C 
ATOM     20  H   UNL     1      -8.941 -13.145   6.609  0.00  0.00    +0.000 HD
ATOM     21  H   UNL     1      -7.375 -12.618   5.935  0.00  0.00    +0.000 HD
ATOM     22  H   UNL     1      -7.478 -13.239   7.578  0.00  0.00    +0.000 HD
ENDBRANCH  17  19
BRANCH  17  23
ATOM     23  C   UNL     1      -8.515 -15.775   6.751  0.00  0.00    +0.000 C 
ATOM     24  H   UNL     1      -9.380 -15.247   7.167  0.00  0.00    +0.000 HD
ATOM     25  H   UNL     1      -8.901 -16.531   6.060  0.00  0.00    +0.000 HD
ATOM     26  H   UNL     1      -8.015 -16.287   7.581  0.00  0.00    +0.000 HD
ENDBRANCH  17  23
ENDBRANCH   1  17
TORSDOF 6
ENDMDL
MODEL 4
REMARK VINA RESULT:    -3.960     31.058     31.895
REMARK INTER + INTRA:          -5.214
REMARK INTER:                  -4.979
REMARK INTRA:                  -0.235
REMARK UNBOUND:                -0.213
REMARK  Name = 32594
REMARK  6 active torsions:
REMARK  status: ('A' for Active; 'I' for Inactive)
REMARK    1  A    between atoms: O_1  and  C_9
REMARK    2  A    between atoms: O_1  and  C_12
REMARK    3  A    between atoms: C_4  and  C_5
REMARK    4  A    between atoms: C_4  and  C_6
REMARK    5  A    between atoms: C_4  and  C_7
REMARK    6  A    between atoms: C_5  and  C_8
REMARK                            x       y       z     vdW  Elec       q    Type
REMARK                         _______ _______ _______ _____ _____    ______ ____
ROOT
ATOM      1  C   UNL     1      -6.148 -13.604   2.530  0.00  0.00    +0.000 C 
ATOM      2  H   UNL     1      -6.049 -12.523   2.365  0.00  0.00    +0.000 HD
ATOM      3  H   UNL     1      -5.121 -13.991   2.518  0.00  0.00    +0.000 HD
ENDROOT
BRANCH   1   6
ATOM      4  N   UNL     1      -7.713 -12.957   4.257  0.00  0.00    +0.000 NA
ATOM      5  N   UNL     1      -6.898 -15.088   5.889  0.00  0.00    +0.000 NA
ATOM      6  C   UNL     1      -6.766 -13.830   3.888  0.00  0.00    +0.000 A 
ATOM      7  C   UNL     1      -6.359 -14.873   4.673  0.00  0.00    +0.000 A 
ATOM      8  C   UNL     1      -8.253 -13.172   5.473  0.00  0.00    +0.000 A 
ATOM      9  C   UNL     1      -7.854 -14.218   6.275  0.00  0.00    +0.000 A 
ATOM     10  H   UNL     1      -9.021 -12.474   5.783  0.00  0.00    +0.000 HD
ATOM     11  H   UNL     1      -8.289 -14.391   7.251  0.00  0.00    +0.000 HD
BRANCH   7  12
ATOM     12  O   UNL     1      -5.388 -15.743   4.260  0.00  0.00    +0.000 OA
BRANCH  12  13
ATOM     13  C   UNL     1      -4.447 -16.169   5.241  0.00  0.00    +0.000 C 
ATOM     14  H   UNL     1      -4.845 -17.002   5.830  0.00  0.00    +0.000 HD
ATOM     15  H   UNL     1      -4.153 -15.338   5.890  0.00  0.00    +0.000 HD
ATOM     16  H   UNL     1      -3.553 -16.523   4.718  0.00  0.00    +0.000 HD
ENDBRANCH  12  13
ENDBRANCH   7  12
ENDBRANCH   1   6
BRANCH   1  17
ATOM     17  C   UNL     1      -6.949 -14.228   1.371  0.00  0.00    +0.000 C 
ATOM     18  H   UNL     1      -7.934 -14.520   1.756  0.00  0.00    +0.000 HD
BRANCH  17  19
ATOM     19  C   UNL     1      -7.145 -13.245   0.214  0.00  0.00    +0.000 C 
ATOM     20  H   UNL     1      -7.587 -13.712  -0.672  0.00  0.00    +0.000 HD
ATOM     21  H   UNL     1      -6.199 -12.769  -0.062  0.00  0.00    +0.000 HD
ATOM     22  H   UNL     1      -7.827 -12.443   0.521  0.00  0.00    +0.000 HD
ENDBRANCH  17  19
BRANCH  17  23
ATOM     23  C   UNL     1      -6.236 -15.483   0.865  0.00  0.00    +0.000 C 
ATOM     24  H   UNL     1      -6.379 -15.587  -0.217  0.00  0.00    +0.000 HD
ATOM     25  H   UNL     1      -5.156 -15.453   1.046  0.00  0.00    +0.000 HD
ATOM     26  H   UNL     1      -6.641 -16.386   1.336  0.00  0.00    +0.000 HD
ENDBRANCH  17  23
ENDBRANCH   1  17
TORSDOF 6
ENDMDL
MODEL 5
REMARK VINA RESULT:    -3.952      1.137      3.296
REMARK INTER + INTRA:          -5.204
REMARK INTER:                  -4.925
REMARK INTRA:                  -0.279
REMARK UNBOUND:                -0.213
REMARK  Name = 32594
REMARK  6 active torsions:
REMARK  status: ('A' for Active; 'I' for Inactive)
REMARK    1  A    between atoms: O_1  and  C_9
REMARK    2  A    between atoms: O_1  and  C_12
REMARK    3  A    between atoms: C_4  and  C_5
REMARK    4  A    between atoms: C_4  and  C_6
REMARK    5  A    between atoms: C_4  and  C_7
REMARK    6  A    between atoms: C_5  and  C_8
REMARK                            x       y       z     vdW  Elec       q    Type
REMARK                         _______ _______ _______ _____ _____    ______ ____
ROOT
ATOM      1  C   UNL     1       2.991   2.847 -22.103  0.00  0.00    +0.000 C 
ATOM      2  H   UNL     1       3.451   3.062 -21.129  0.00  0.00    +0.000 HD
ATOM      3  H   UNL     1       3.459   1.914 -22.442  0.00  0.00    +0.000 HD
ENDROOT
BRANCH   1   6
ATOM      4  N   UNL     1       0.905   1.828 -22.781  0.00  0.00    +0.000 NA
ATOM      5  N   UNL     1      -0.467   3.070 -20.674  0.00  0.00    +0.000 NA
ATOM      6  C   UNL     1       1.510   2.635 -21.901  0.00  0.00    +0.000 A 
ATOM      7  C   UNL     1       0.855   3.247 -20.868  0.00  0.00    +0.000 A 
ATOM      8  C   UNL     1      -0.417   1.650 -22.588  0.00  0.00    +0.000 A 
ATOM      9  C   UNL     1      -1.091   2.259 -21.552  0.00  0.00    +0.000 A 
ATOM     10  H   UNL     1      -0.919   0.999 -23.293  0.00  0.00    +0.000 HD
ATOM     11  H   UNL     1      -2.153   2.115 -21.396  0.00  0.00    +0.000 HD
BRANCH   7  12
ATOM     12  O   UNL     1       1.509   4.064 -19.989  0.00  0.00    +0.000 OA
BRANCH  12  13
ATOM     13  C   UNL     1       0.895   5.315 -19.694  0.00  0.00    +0.000 C 
ATOM     14  H   UNL     1       1.116   6.054 -20.472  0.00  0.00    +0.000 HD
ATOM     15  H   UNL     1       1.203   5.682 -18.709  0.00  0.00    +0.000 HD
ATOM     16  H   UNL     1      -0.189   5.161 -19.675  0.00  0.00    +0.000 HD
ENDBRANCH  12  13
ENDBRANCH   7  12
ENDBRANCH   1   6
BRANCH   1  17
ATOM     17  C   UNL     1       3.327   3.983 -23.089  0.00  0.00    +0.000 C 
ATOM     18  H   UNL     1       2.396   4.296 -23.579  0.00  0.00    +0.000 HD
BRANCH  17  19
ATOM     19  C   UNL     1       3.944   5.192 -22.384  0.00  0.00    +0.000 C 
ATOM     20  H   UNL     1       3.517   5.371 -21.391  0.00  0.00    +0.000 HD
ATOM     21  H   UNL     1       3.839   6.097 -22.990  0.00  0.00    +0.000 HD
ATOM     22  H   UNL     1       5.018   5.029 -22.239  0.00  0.00    +0.000 HD
ENDBRANCH  17  19
BRANCH  17  23
ATOM     23  C   UNL     1       4.288   3.468 -24.163  0.00  0.00    +0.000 C 
ATOM     24  H   UNL     1       3.749   2.841 -24.881  0.00  0.00    +0.000 HD
ATOM     25  H   UNL     1       4.755   4.279 -24.731  0.00  0.00    +0.000 HD
ATOM     26  H   UNL     1       5.081   2.852 -23.723  0.00  0.00    +0.000 HD
ENDBRANCH  17  23
ENDBRANCH   1  17
TORSDOF 6
ENDMDL
MODEL 6
REMARK VINA RESULT:    -3.891     47.264     49.066
REMARK INTER + INTRA:          -5.127
REMARK INTER:                  -4.911
REMARK INTRA:                  -0.216
REMARK UNBOUND:                -0.213
REMARK  Name = 32594
REMARK  6 active torsions:
REMARK  status: ('A' for Active; 'I' for Inactive)
REMARK    1  A    between atoms: O_1  and  C_9
REMARK    2  A    between atoms: O_1  and  C_12
REMARK    3  A    between atoms: C_4  and  C_5
REMARK    4  A    between atoms: C_4  and  C_6
REMARK    5  A    between atoms: C_4  and  C_7
REMARK    6  A    between atoms: C_5  and  C_8
REMARK                            x       y       z     vdW  Elec       q    Type
REMARK                         _______ _______ _______ _____ _____    ______ ____
ROOT
ATOM      1  C   UNL     1      -4.055   4.973  26.809  0.00  0.00    +0.000 C 
ATOM      2  H   UNL     1      -5.022   5.472  26.959  0.00  0.00    +0.000 HD
ATOM      3  H   UNL     1      -3.301   5.752  26.980  0.00  0.00    +0.000 HD
ENDROOT
BRANCH   1   6
ATOM      4  N   UNL     1      -4.981   3.099  28.027  0.00  0.00    +0.000 NA
ATOM      5  N   UNL     1      -2.594   2.766  29.462  0.00  0.00    +0.000 NA
ATOM      6  C   UNL     1      -3.910   3.883  27.843  0.00  0.00    +0.000 A 
ATOM      7  C   UNL     1      -2.740   3.732  28.535  0.00  0.00    +0.000 A 
ATOM      8  C   UNL     1      -4.835   2.132  28.954  0.00  0.00    +0.000 A 
ATOM      9  C   UNL     1      -3.663   1.967  29.659  0.00  0.00    +0.000 A 
ATOM     10  H   UNL     1      -5.693   1.490  29.112  0.00  0.00    +0.000 HD
ATOM     11  H   UNL     1      -3.546   1.190  30.403  0.00  0.00    +0.000 HD
BRANCH   7  12
ATOM     12  O   UNL     1      -1.669   4.553  28.318  0.00  0.00    +0.000 OA
BRANCH  12  13
ATOM     13  C   UNL     1      -0.395   4.072  28.734  0.00  0.00    +0.000 C 
ATOM     14  H   UNL     1       0.362   4.246  27.962  0.00  0.00    +0.000 HD
ATOM     15  H   UNL     1      -0.444   3.010  29.001  0.00  0.00    +0.000 HD
ATOM     16  H   UNL     1      -0.099   4.631  29.627  0.00  0.00    +0.000 HD
ENDBRANCH  12  13
ENDBRANCH   7  12
ENDBRANCH   1   6
BRANCH   1  17
ATOM     17  C   UNL     1      -3.959   4.470  25.356  0.00  0.00    +0.000 C 
ATOM     18  H   UNL     1      -3.609   3.430  25.378  0.00  0.00    +0.000 HD
BRANCH  17  19
ATOM     19  C   UNL     1      -5.310   4.520  24.639  0.00  0.00    +0.000 C 
ATOM     20  H   UNL     1      -5.262   4.147  23.611  0.00  0.00    +0.000 HD
ATOM     21  H   UNL     1      -5.716   5.536  24.636  0.00  0.00    +0.000 HD
ATOM     22  H   UNL     1      -6.034   3.889  25.169  0.00  0.00    +0.000 HD
ENDBRANCH  17  19
BRANCH  17  23
ATOM     23  C   UNL     1      -2.935   5.307  24.585  0.00  0.00    +0.000 C 
ATOM     24  H   UNL     1      -2.261   4.652  24.022  0.00  0.00    +0.000 HD
ATOM     25  H   UNL     1      -3.406   5.982  23.863  0.00  0.00    +0.000 HD
ATOM     26  H   UNL     1      -2.318   5.903  25.267  0.00  0.00    +0.000 HD
ENDBRANCH  17  23
ENDBRANCH   1  17
TORSDOF 6
ENDMDL
MODEL 7
REMARK VINA RESULT:    -3.888     20.821     21.925
REMARK INTER + INTRA:          -5.123
REMARK INTER:                  -4.838
REMARK INTRA:                  -0.285
REMARK UNBOUND:                -0.213
REMARK  Name = 32594
REMARK  6 active torsions:
REMARK  status: ('A' for Active; 'I' for Inactive)
REMARK    1  A    between atoms: O_1  and  C_9
REMARK    2  A    between atoms: O_1  and  C_12
REMARK    3  A    between atoms: C_4  and  C_5
REMARK    4  A    between atoms: C_4  and  C_6
REMARK    5  A    between atoms: C_4  and  C_7
REMARK    6  A    between atoms: C_5  and  C_8
REMARK                            x       y       z     vdW  Elec       q    Type
REMARK                         _______ _______ _______ _____ _____    ______ ____
ROOT
ATOM      1  C   UNL     1      11.427  18.326 -11.716  0.00  0.00    +0.000 C 
ATOM      2  H   UNL     1      10.743  17.588 -11.276  0.00  0.00    +0.000 HD
ATOM      3  H   UNL     1      11.294  18.229 -12.801  0.00  0.00    +0.000 HD
ENDROOT
BRANCH   1   6
ATOM      4  N   UNL     1      10.903  19.887  -9.944  0.00  0.00    +0.000 NA
ATOM      5  N   UNL     1      10.361  21.918 -11.801  0.00  0.00    +0.000 NA
ATOM      6  C   UNL     1      11.003  19.703 -11.267  0.00  0.00    +0.000 A 
ATOM      7  C   UNL     1      10.743  20.684 -12.184  0.00  0.00    +0.000 A 
ATOM      8  C   UNL     1      10.522  21.122  -9.560  0.00  0.00    +0.000 A 
ATOM      9  C   UNL     1      10.256  22.120 -10.472  0.00  0.00    +0.000 A 
ATOM     10  H   UNL     1      10.437  21.284  -8.493  0.00  0.00    +0.000 HD
ATOM     11  H   UNL     1       9.951  23.112 -10.163  0.00  0.00    +0.000 HD
BRANCH   7  12
ATOM     12  O   UNL     1      10.857  20.457 -13.528  0.00  0.00    +0.000 OA
BRANCH  12  13
ATOM     13  C   UNL     1      11.840  21.214 -14.227  0.00  0.00    +0.000 C 
ATOM     14  H   UNL     1      12.741  21.344 -13.618  0.00  0.00    +0.000 HD
ATOM     15  H   UNL     1      11.438  22.183 -14.542  0.00  0.00    +0.000 HD
ATOM     16  H   UNL     1      12.119  20.654 -15.125  0.00  0.00    +0.000 HD
ENDBRANCH  12  13
ENDBRANCH   7  12
ENDBRANCH   1   6
BRANCH   1  17
ATOM     17  C   UNL     1      12.878  17.968 -11.340  0.00  0.00    +0.000 C 
ATOM     18  H   UNL     1      13.100  18.424 -10.366  0.00  0.00    +0.000 HD
BRANCH  17  19
ATOM     19  C   UNL     1      13.087  16.456 -11.234  0.00  0.00    +0.000 C 
ATOM     20  H   UNL     1      13.241  15.978 -12.207  0.00  0.00    +0.000 HD
ATOM     21  H   UNL     1      12.246  15.976 -10.726  0.00  0.00    +0.000 HD
ATOM     22  H   UNL     1      13.982  16.247 -10.636  0.00  0.00    +0.000 HD
ENDBRANCH  17  19
BRANCH  17  23
ATOM     23  C   UNL     1      13.841  18.550 -12.377  0.00  0.00    +0.000 C 
ATOM     24  H   UNL     1      14.256  17.748 -12.997  0.00  0.00    +0.000 HD
ATOM     25  H   UNL     1      13.350  19.259 -13.052  0.00  0.00    +0.000 HD
ATOM     26  H   UNL     1      14.683  19.059 -11.893  0.00  0.00    +0.000 HD
ENDBRANCH  17  23
ENDBRANCH   1  17
TORSDOF 6
ENDMDL
MODEL 8
REMARK VINA RESULT:    -3.860     35.921     37.116
REMARK INTER + INTRA:          -5.088
REMARK INTER:                  -4.901
REMARK INTRA:                  -0.187
REMARK UNBOUND:                -0.213
REMARK  Name = 32594
REMARK  6 active torsions:
REMARK  status: ('A' for Active; 'I' for Inactive)
REMARK    1  A    between atoms: O_1  and  C_9
REMARK    2  A    between atoms: O_1  and  C_12
REMARK    3  A    between atoms: C_4  and  C_5
REMARK    4  A    between atoms: C_4  and  C_6
REMARK    5  A    between atoms: C_4  and  C_7
REMARK    6  A    between atoms: C_5  and  C_8
REMARK                            x       y       z     vdW  Elec       q    Type
REMARK                         _______ _______ _______ _____ _____    ______ ____
ROOT
ATOM      1  C   UNL     1      -0.347  -4.175  15.704  0.00  0.00    +0.000 C 
ATOM      2  H   UNL     1      -1.247  -3.718  15.271  0.00  0.00    +0.000 HD
ATOM      3  H   UNL     1      -0.716  -5.007  16.319  0.00  0.00    +0.000 HD
ENDROOT
BRANCH   1   6
ATOM      4  N   UNL     1       1.382  -3.842  14.046  0.00  0.00    +0.000 NA
ATOM      5  N   UNL     1       1.138  -6.492  13.160  0.00  0.00    +0.000 NA
ATOM      6  C   UNL     1       0.511  -4.707  14.583  0.00  0.00    +0.000 A 
ATOM      7  C   UNL     1       0.381  -6.002  14.161  0.00  0.00    +0.000 A 
ATOM      8  C   UNL     1       2.140  -4.332  13.045  0.00  0.00    +0.000 A 
ATOM      9  C   UNL     1       2.020  -5.633  12.609  0.00  0.00    +0.000 A 
ATOM     10  H   UNL     1       2.848  -3.643  12.603  0.00  0.00    +0.000 HD
ATOM     11  H   UNL     1       2.630  -6.027  11.806  0.00  0.00    +0.000 HD
BRANCH   7  12
ATOM     12  O   UNL     1      -0.520  -6.854  14.735  0.00  0.00    +0.000 OA
BRANCH  12  13
ATOM     13  C   UNL     1      -0.154  -8.230  14.798  0.00  0.00    +0.000 C 
ATOM     14  H   UNL     1       0.805  -8.404  14.300  0.00  0.00    +0.000 HD
ATOM     15  H   UNL     1      -0.937  -8.864  14.370  0.00  0.00    +0.000 HD
ATOM     16  H   UNL     1      -0.040  -8.499  15.853  0.00  0.00    +0.000 HD
ENDBRANCH  12  13
ENDBRANCH   7  12
ENDBRANCH   1   6
BRANCH   1  17
ATOM     17  C   UNL     1       0.368  -3.147  16.602  0.00  0.00    +0.000 C 
ATOM     18  H   UNL     1       1.414  -3.080  16.276  0.00  0.00    +0.000 HD
BRANCH  17  19
ATOM     19  C   UNL     1      -0.269  -1.759  16.505  0.00  0.00    +0.000 C 
ATOM     20  H   UNL     1       0.430  -0.951  16.747  0.00  0.00    +0.000 HD
ATOM     21  H   UNL     1      -1.146  -1.683  17.154  0.00  0.00    +0.000 HD
ATOM     22  H   UNL     1      -0.613  -1.580  15.480  0.00  0.00    +0.000 HD
ENDBRANCH  17  19
BRANCH  17  23
ATOM     23  C   UNL     1       0.346  -3.624  18.056  0.00  0.00    +0.000 C 
ATOM     24  H   UNL     1       1.369  -3.728  18.434  0.00  0.00    +0.000 HD
ATOM     25  H   UNL     1      -0.174  -2.924  18.718  0.00  0.00    +0.000 HD
ATOM     26  H   UNL     1      -0.136  -4.605  18.143  0.00  0.00    +0.000 HD
ENDBRANCH  17  23
ENDBRANCH   1  17
TORSDOF 6
ENDMDL
MODEL 9
REMARK VINA RESULT:    -3.728     30.566     31.384
REMARK INTER + INTRA:          -4.922
REMARK INTER:                  -4.709
REMARK INTRA:                  -0.213
REMARK UNBOUND:                -0.213
REMARK  Name = 32594
REMARK  6 active torsions:
REMARK  status: ('A' for Active; 'I' for Inactive)
REMARK    1  A    between atoms: O_1  and  C_9
REMARK    2  A    between atoms: O_1  and  C_12
REMARK    3  A    between atoms: C_4  and  C_5
REMARK    4  A    between atoms: C_4  and  C_6
REMARK    5  A    between atoms: C_4  and  C_7
REMARK    6  A    between atoms: C_5  and  C_8
REMARK                            x       y       z     vdW  Elec       q    Type
REMARK                         _______ _______ _______ _____ _____    ______ ____
ROOT
ATOM      1  C   UNL     1      -3.806 -15.159   1.611  0.00  0.00    +0.000 C 
ATOM      2  H   UNL     1      -4.418 -15.755   0.919  0.00  0.00    +0.000 HD
ATOM      3  H   UNL     1      -4.102 -14.117   1.430  0.00  0.00    +0.000 HD
ENDROOT
BRANCH   1   6
ATOM      4  N   UNL     1      -3.614 -16.697   3.468  0.00  0.00    +0.000 NA
ATOM      5  N   UNL     1      -5.300 -15.107   5.048  0.00  0.00    +0.000 NA
ATOM      6  C   UNL     1      -4.154 -15.554   3.025  0.00  0.00    +0.000 A 
ATOM      7  C   UNL     1      -4.978 -14.768   3.784  0.00  0.00    +0.000 A 
ATOM      8  C   UNL     1      -3.936 -17.036   4.732  0.00  0.00    +0.000 A 
ATOM      9  C   UNL     1      -4.763 -16.255   5.508  0.00  0.00    +0.000 A 
ATOM     10  H   UNL     1      -3.505 -17.958   5.102  0.00  0.00    +0.000 HD
ATOM     11  H   UNL     1      -5.021 -16.527   6.524  0.00  0.00    +0.000 HD
BRANCH   7  12
ATOM     12  O   UNL     1      -5.510 -13.607   3.296  0.00  0.00    +0.000 OA
BRANCH  12  13
ATOM     13  C   UNL     1      -6.424 -12.914   4.140  0.00  0.00    +0.000 C 
ATOM     14  H   UNL     1      -7.457 -13.067   3.808  0.00  0.00    +0.000 HD
ATOM     15  H   UNL     1      -6.183 -11.847   4.187  0.00  0.00    +0.000 HD
ATOM     16  H   UNL     1      -6.329 -13.327   5.149  0.00  0.00    +0.000 HD
ENDBRANCH  12  13
ENDBRANCH   7  12
ENDBRANCH   1   6
BRANCH   1  17
ATOM     17  C   UNL     1      -2.316 -15.340   1.262  0.00  0.00    +0.000 C 
ATOM     18  H   UNL     1      -1.931 -16.187   1.844  0.00  0.00    +0.000 HD
BRANCH  17  19
ATOM     19  C   UNL     1      -2.105 -15.629  -0.226  0.00  0.00    +0.000 C 
ATOM     20  H   UNL     1      -2.756 -16.425  -0.602  0.00  0.00    +0.000 HD
ATOM     21  H   UNL     1      -1.062 -15.886  -0.432  0.00  0.00    +0.000 HD
ATOM     22  H   UNL     1      -2.334 -14.732  -0.813  0.00  0.00    +0.000 HD
ENDBRANCH  17  19
BRANCH  17  23
ATOM     23  C   UNL     1      -1.535 -14.086   1.660  0.00  0.00    +0.000 C 
ATOM     24  H   UNL     1      -1.084 -14.221   2.649  0.00  0.00    +0.000 HD
ATOM     25  H   UNL     1      -0.721 -13.861   0.963  0.00  0.00    +0.000 HD
ATOM     26  H   UNL     1      -2.193 -13.211   1.717  0.00  0.00    +0.000 HD
ENDBRANCH  17  23
ENDBRANCH   1  17
TORSDOF 6
ENDMDL
MODEL 10
REMARK VINA RESULT:    -3.695     31.254     31.954
REMARK INTER + INTRA:          -4.879
REMARK INTER:                  -4.590
REMARK INTRA:                  -0.289
REMARK UNBOUND:                -0.213
REMARK  Name = 32594
REMARK  6 active torsions:
REMARK  status: ('A' for Active; 'I' for Inactive)
REMARK    1  A    between atoms: O_1  and  C_9
REMARK    2  A    between atoms: O_1  and  C_12
REMARK    3  A    between atoms: C_4  and  C_5
REMARK    4  A    between atoms: C_4  and  C_6
REMARK    5  A    between atoms: C_4  and  C_7
REMARK    6  A    between atoms: C_5  and  C_8
REMARK                            x       y       z     vdW  Elec       q    Type
REMARK                         _______ _______ _______ _____ _____    ______ ____
ROOT
ATOM      1  C   UNL     1      -5.572 -13.787   4.343  0.00  0.00    +0.000 C 
ATOM      2  H   UNL     1      -5.429 -13.252   5.291  0.00  0.00    +0.000 HD
ATOM      3  H   UNL     1      -5.153 -13.125   3.574  0.00  0.00    +0.000 HD
ENDROOT
BRANCH   1   6
ATOM      4  N   UNL     1      -4.877 -15.775   5.532  0.00  0.00    +0.000 NA
ATOM      5  N   UNL     1      -3.337 -16.626   3.348  0.00  0.00    +0.000 NA
ATOM      6  C   UNL     1      -4.790 -15.076   4.393  0.00  0.00    +0.000 A 
ATOM      7  C   UNL     1      -4.043 -15.479   3.320  0.00  0.00    +0.000 A 
ATOM      8  C   UNL     1      -4.171 -16.923   5.561  0.00  0.00    +0.000 A 
ATOM      9  C   UNL     1      -3.415 -17.341   4.489  0.00  0.00    +0.000 A 
ATOM     10  H   UNL     1      -4.234 -17.498   6.477  0.00  0.00    +0.000 HD
ATOM     11  H   UNL     1      -2.849 -18.264   4.512  0.00  0.00    +0.000 HD
BRANCH   7  12
ATOM     12  O   UNL     1      -3.979 -14.737   2.173  0.00  0.00    +0.000 OA
BRANCH  12  13
ATOM     13  C   UNL     1      -4.439 -15.360   0.978  0.00  0.00    +0.000 C 
ATOM     14  H   UNL     1      -5.410 -15.843   1.135  0.00  0.00    +0.000 HD
ATOM     15  H   UNL     1      -3.703 -16.078   0.601  0.00  0.00    +0.000 HD
ATOM     16  H   UNL     1      -4.569 -14.580   0.221  0.00  0.00    +0.000 HD
ENDBRANCH  12  13
ENDBRANCH   7  12
ENDBRANCH   1   6
BRANCH   1  17
ATOM     17  C   UNL     1      -7.080 -13.983   4.089  0.00  0.00    +0.000 C 
ATOM     18  H   UNL     1      -7.331 -15.026   4.320  0.00  0.00    +0.000 HD
BRANCH  17  19
ATOM     19  C   UNL     1      -7.934 -13.065   4.967  0.00  0.00    +0.000 C 
ATOM     20  H   UNL     1      -7.337 -12.358   5.552  0.00  0.00    +0.000 HD
ATOM     21  H   UNL     1      -8.570 -13.645   5.641  0.00  0.00    +0.000 HD
ATOM     22  H   UNL     1      -8.601 -12.466   4.336  0.00  0.00    +0.000 HD
ENDBRANCH  17  19
BRANCH  17  23
ATOM     23  C   UNL     1      -7.395 -13.726   2.614  0.00  0.00    +0.000 C 
ATOM     24  H   UNL     1      -7.112 -14.596   2.012  0.00  0.00    +0.000 HD
ATOM     25  H   UNL     1      -8.461 -13.545   2.439  0.00  0.00    +0.000 HD
ATOM     26  H   UNL     1      -6.831 -12.867   2.233  0.00  0.00    +0.000 HD
ENDBRANCH  17  23
ENDBRANCH   1  17
TORSDOF 6
ENDMDL
