MODEL 1
REMARK VINA RESULT:    -4.508      0.000      0.000
REMARK INTER + INTRA:          -5.915
REMARK INTER:                  -5.642
REMARK INTRA:                  -0.273
REMARK UNBOUND:                -0.221
REMARK  Name = 32594
REMARK  6 active torsions:
REMARK  status: ('A' for Active; 'I' for Inactive)
REMARK    1  A    between atoms: O_1  and  C_9
REMARK    2  A    between atoms: O_1  and  C_12
REMARK    3  A    between atoms: C_4  and  C_5
REMARK    4  A    between atoms: C_4  and  C_6
REMARK    5  A    between atoms: C_4  and  C_7
REMARK    6  A    between atoms: C_5  and  C_8
REMARK                            x       y       z     vdW  Elec       q    Type
REMARK                         _______ _______ _______ _____ _____    ______ ____
ROOT
ATOM      1  C   UNL     1       1.023   4.143 -19.719  0.00  0.00    +0.000 C 
ATOM      2  H   UNL     1       0.483   3.899 -18.793  0.00  0.00    +0.000 HD
ATOM      3  H   UNL     1       2.077   3.929 -19.500  0.00  0.00    +0.000 HD
ENDROOT
BRANCH   1   6
ATOM      4  N   UNL     1      -0.797   3.076 -20.903  0.00  0.00    +0.000 NA
ATOM      5  N   UNL     1       0.995   1.801 -22.645  0.00  0.00    +0.000 NA
ATOM      6  C   UNL     1       0.531   3.233 -20.818  0.00  0.00    +0.000 A 
ATOM      7  C   UNL     1       1.416   2.618 -21.659  0.00  0.00    +0.000 A 
ATOM      8  C   UNL     1      -1.219   2.259 -21.888  0.00  0.00    +0.000 A 
ATOM      9  C   UNL     1      -0.340   1.633 -22.744  0.00  0.00    +0.000 A 
ATOM     10  H   UNL     1      -2.291   2.124 -21.969  0.00  0.00    +0.000 HD
ATOM     11  H   UNL     1      -0.680   0.978 -23.536  0.00  0.00    +0.000 HD
BRANCH   7  12
ATOM     12  O   UNL     1       2.765   2.804 -21.540  0.00  0.00    +0.000 OA
BRANCH  12  13
ATOM     13  C   UNL     1       3.483   3.092 -22.736  0.00  0.00    +0.000 C 
ATOM     14  H   UNL     1       2.870   2.891 -23.620  0.00  0.00    +0.000 HD
ATOM     15  H   UNL     1       4.422   2.529 -22.776  0.00  0.00    +0.000 HD
ATOM     16  H   UNL     1       3.729   4.159 -22.732  0.00  0.00    +0.000 HD
ENDBRANCH  12  13
ENDBRANCH   7  12
ENDBRANCH   1   6
BRANCH   1  17
ATOM     17  C   UNL     1       0.853   5.643 -20.030  0.00  0.00    +0.000 C 
ATOM     18  H   UNL     1       0.033   5.750 -20.751  0.00  0.00    +0.000 HD
BRANCH  17  19
ATOM     19  C   UNL     1       0.518   6.455 -18.777  0.00  0.00    +0.000 C 
ATOM     20  H   UNL     1      -0.417   6.142 -18.303  0.00  0.00    +0.000 HD
ATOM     21  H   UNL     1       0.468   7.524 -19.004  0.00  0.00    +0.000 HD
ATOM     22  H   UNL     1       1.309   6.325 -18.029  0.00  0.00    +0.000 HD
ENDBRANCH  17  19
BRANCH  17  23
ATOM     23  C   UNL     1       2.133   6.186 -20.670  0.00  0.00    +0.000 C 
ATOM     24  H   UNL     1       2.790   5.359 -20.959  0.00  0.00    +0.000 HD
ATOM     25  H   UNL     1       1.933   6.771 -21.573  0.00  0.00    +0.000 HD
ATOM     26  H   UNL     1       2.691   6.815 -19.966  0.00  0.00    +0.000 HD
ENDBRANCH  17  23
ENDBRANCH   1  17
TORSDOF 6
ENDMDL
MODEL 2
REMARK VINA RESULT:    -4.468     25.968     26.757
REMARK INTER + INTRA:          -5.864
REMARK INTER:                  -5.702
REMARK INTRA:                  -0.163
REMARK UNBOUND:                -0.221
REMARK  Name = 32594
REMARK  6 active torsions:
REMARK  status: ('A' for Active; 'I' for Inactive)
REMARK    1  A    between atoms: O_1  and  C_9
REMARK    2  A    between atoms: O_1  and  C_12
REMARK    3  A    between atoms: C_4  and  C_5
REMARK    4  A    between atoms: C_4  and  C_6
REMARK    5  A    between atoms: C_4  and  C_7
REMARK    6  A    between atoms: C_5  and  C_8
REMARK                            x       y       z     vdW  Elec       q    Type
REMARK                         _______ _______ _______ _____ _____    ______ ____
ROOT
ATOM      1  C   UNL     1      16.025  -4.721  -1.894  0.00  0.00    +0.000 C 
ATOM      2  H   UNL     1      15.569  -4.149  -1.075  0.00  0.00    +0.000 HD
ATOM      3  H   UNL     1      15.445  -4.454  -2.787  0.00  0.00    +0.000 HD
ENDROOT
BRANCH   1   6
ATOM      4  N   UNL     1      17.964  -3.543  -1.054  0.00  0.00    +0.000 NA
ATOM      5  N   UNL     1      19.444  -4.213  -3.341  0.00  0.00    +0.000 NA
ATOM      6  C   UNL     1      17.456  -4.272  -2.057  0.00  0.00    +0.000 A 
ATOM      7  C   UNL     1      18.166  -4.606  -3.178  0.00  0.00    +0.000 A 
ATOM      8  C   UNL     1      19.242  -3.149  -1.217  0.00  0.00    +0.000 A 
ATOM      9  C   UNL     1      19.970  -3.478  -2.339  0.00  0.00    +0.000 A 
ATOM     10  H   UNL     1      19.665  -2.560  -0.412  0.00  0.00    +0.000 HD
ATOM     11  H   UNL     1      20.998  -3.162  -2.469  0.00  0.00    +0.000 HD
BRANCH   7  12
ATOM     12  O   UNL     1      17.613  -5.353  -4.180  0.00  0.00    +0.000 OA
BRANCH  12  13
ATOM     13  C   UNL     1      18.285  -6.558  -4.532  0.00  0.00    +0.000 C 
ATOM     14  H   UNL     1      17.853  -7.000  -5.436  0.00  0.00    +0.000 HD
ATOM     15  H   UNL     1      18.269  -7.273  -3.702  0.00  0.00    +0.000 HD
ATOM     16  H   UNL     1      19.330  -6.310  -4.744  0.00  0.00    +0.000 HD
ENDBRANCH  12  13
ENDBRANCH   7  12
ENDBRANCH   1   6
BRANCH   1  17
ATOM     17  C   UNL     1      15.873  -6.228  -1.611  0.00  0.00    +0.000 C 
ATOM     18  H   UNL     1      16.852  -6.702  -1.759  0.00  0.00    +0.000 HD
BRANCH  17  19
ATOM     19  C   UNL     1      15.405  -6.500  -0.179  0.00  0.00    +0.000 C 
ATOM     20  H   UNL     1      15.353  -5.593   0.432  0.00  0.00    +0.000 HD
ATOM     21  H   UNL     1      16.053  -7.231   0.314  0.00  0.00    +0.000 HD
ATOM     22  H   UNL     1      14.396  -6.927  -0.195  0.00  0.00    +0.000 HD
ENDBRANCH  17  19
BRANCH  17  23
ATOM     23  C   UNL     1      14.883  -6.844  -2.602  0.00  0.00    +0.000 C 
ATOM     24  H   UNL     1      15.213  -6.656  -3.629  0.00  0.00    +0.000 HD
ATOM     25  H   UNL     1      14.795  -7.929  -2.486  0.00  0.00    +0.000 HD
ATOM     26  H   UNL     1      13.886  -6.402  -2.492  0.00  0.00    +0.000 HD
ENDBRANCH  17  23
ENDBRANCH   1  17
TORSDOF 6
ENDMDL
MODEL 3
REMARK VINA RESULT:    -4.363     26.221     27.011
REMARK INTER + INTRA:          -5.732
REMARK INTER:                  -5.494
REMARK INTRA:                  -0.238
REMARK UNBOUND:                -0.221
REMARK  Name = 32594
REMARK  6 active torsions:
REMARK  status: ('A' for Active; 'I' for Inactive)
REMARK    1  A    between atoms: O_1  and  C_9
REMARK    2  A    between atoms: O_1  and  C_12
REMARK    3  A    between atoms: C_4  and  C_5
REMARK    4  A    between atoms: C_4  and  C_6
REMARK    5  A    between atoms: C_4  and  C_7
REMARK    6  A    between atoms: C_5  and  C_8
REMARK                            x       y       z     vdW  Elec       q    Type
REMARK                         _______ _______ _______ _____ _____    ______ ____
ROOT
ATOM      1  C   UNL     1      17.049  -5.231  -3.503  0.00  0.00    +0.000 C 
ATOM      2  H   UNL     1      16.134  -5.196  -4.110  0.00  0.00    +0.000 HD
ATOM      3  H   UNL     1      17.513  -4.244  -3.630  0.00  0.00    +0.000 HD
ENDROOT
BRANCH   1   6
ATOM      4  N   UNL     1      15.747  -6.383  -1.822  0.00  0.00    +0.000 NA
ATOM      5  N   UNL     1      16.902  -4.848   0.222  0.00  0.00    +0.000 NA
ATOM      6  C   UNL     1      16.664  -5.435  -2.059  0.00  0.00    +0.000 A 
ATOM      7  C   UNL     1      17.235  -4.680  -1.073  0.00  0.00    +0.000 A 
ATOM      8  C   UNL     1      15.412  -6.552  -0.528  0.00  0.00    +0.000 A 
ATOM      9  C   UNL     1      15.980  -5.798   0.477  0.00  0.00    +0.000 A 
ATOM     10  H   UNL     1      14.672  -7.315  -0.322  0.00  0.00    +0.000 HD
ATOM     11  H   UNL     1      15.712  -5.935   1.517  0.00  0.00    +0.000 HD
BRANCH   7  12
ATOM     12  O   UNL     1      18.169  -3.722  -1.355  0.00  0.00    +0.000 OA
BRANCH  12  13
ATOM     13  C   UNL     1      18.751  -3.043  -0.246  0.00  0.00    +0.000 C 
ATOM     14  H   UNL     1      18.066  -3.030   0.609  0.00  0.00    +0.000 HD
ATOM     15  H   UNL     1      19.051  -2.026  -0.521  0.00  0.00    +0.000 HD
ATOM     16  H   UNL     1      19.649  -3.593   0.051  0.00  0.00    +0.000 HD
ENDBRANCH  12  13
ENDBRANCH   7  12
ENDBRANCH   1   6
BRANCH   1  17
ATOM     17  C   UNL     1      17.989  -6.319  -4.057  0.00  0.00    +0.000 C 
ATOM     18  H   UNL     1      17.988  -7.161  -3.353  0.00  0.00    +0.000 HD
BRANCH  17  19
ATOM     19  C   UNL     1      17.537  -6.824  -5.429  0.00  0.00    +0.000 C 
ATOM     20  H   UNL     1      18.374  -7.112  -6.075  0.00  0.00    +0.000 HD
ATOM     21  H   UNL     1      16.926  -6.076  -5.942  0.00  0.00    +0.000 HD
ATOM     22  H   UNL     1      16.913  -7.717  -5.308  0.00  0.00    +0.000 HD
ENDBRANCH  17  19
BRANCH  17  23
ATOM     23  C   UNL     1      19.415  -5.772  -4.154  0.00  0.00    +0.000 C 
ATOM     24  H   UNL     1      19.399  -4.749  -4.545  0.00  0.00    +0.000 HD
ATOM     25  H   UNL     1      19.917  -5.738  -3.182  0.00  0.00    +0.000 HD
ATOM     26  H   UNL     1      20.024  -6.374  -4.837  0.00  0.00    +0.000 HD
ENDBRANCH  17  23
ENDBRANCH   1  17
TORSDOF 6
ENDMDL
MODEL 4
REMARK VINA RESULT:    -4.274     26.441     27.306
REMARK INTER + INTRA:          -5.620
REMARK INTER:                  -5.483
REMARK INTRA:                  -0.137
REMARK UNBOUND:                -0.221
REMARK  Name = 32594
REMARK  6 active torsions:
REMARK  status: ('A' for Active; 'I' for Inactive)
REMARK    1  A    between atoms: O_1  and  C_9
REMARK    2  A    between atoms: O_1  and  C_12
REMARK    3  A    between atoms: C_4  and  C_5
REMARK    4  A    between atoms: C_4  and  C_6
REMARK    5  A    between atoms: C_4  and  C_7
REMARK    6  A    between atoms: C_5  and  C_8
REMARK                            x       y       z     vdW  Elec       q    Type
REMARK                         _______ _______ _______ _____ _____    ______ ____
ROOT
ATOM      1  C   UNL     1      17.002  -5.485  -3.427  0.00  0.00    +0.000 C 
ATOM      2  H   UNL     1      16.391  -6.353  -3.143  0.00  0.00    +0.000 HD
ATOM      3  H   UNL     1      16.314  -4.809  -3.949  0.00  0.00    +0.000 HD
ENDROOT
BRANCH   1   6
ATOM      4  N   UNL     1      18.141  -3.653  -2.334  0.00  0.00    +0.000 NA
ATOM      5  N   UNL     1      17.793  -4.846   0.181  0.00  0.00    +0.000 NA
ATOM      6  C   UNL     1      17.516  -4.826  -2.170  0.00  0.00    +0.000 A 
ATOM      7  C   UNL     1      17.339  -5.420  -0.951  0.00  0.00    +0.000 A 
ATOM      8  C   UNL     1      18.595  -3.078  -1.202  0.00  0.00    +0.000 A 
ATOM      9  C   UNL     1      18.424  -3.664   0.033  0.00  0.00    +0.000 A 
ATOM     10  H   UNL     1      19.102  -2.128  -1.321  0.00  0.00    +0.000 HD
ATOM     11  H   UNL     1      18.788  -3.201   0.942  0.00  0.00    +0.000 HD
BRANCH   7  12
ATOM     12  O   UNL     1      16.695  -6.620  -0.825  0.00  0.00    +0.000 OA
BRANCH  12  13
ATOM     13  C   UNL     1      15.607  -6.672   0.092  0.00  0.00    +0.000 C 
ATOM     14  H   UNL     1      15.400  -5.683   0.513  0.00  0.00    +0.000 HD
ATOM     15  H   UNL     1      15.798  -7.402   0.887  0.00  0.00    +0.000 HD
ATOM     16  H   UNL     1      14.719  -6.997  -0.459  0.00  0.00    +0.000 HD
ENDBRANCH  12  13
ENDBRANCH   7  12
ENDBRANCH   1   6
BRANCH   1  17
ATOM     17  C   UNL     1      18.115  -5.937  -4.392  0.00  0.00    +0.000 C 
ATOM     18  H   UNL     1      18.517  -5.046  -4.890  0.00  0.00    +0.000 HD
BRANCH  17  19
ATOM     19  C   UNL     1      19.255  -6.650  -3.662  0.00  0.00    +0.000 C 
ATOM     20  H   UNL     1      20.141  -6.794  -4.290  0.00  0.00    +0.000 HD
ATOM     21  H   UNL     1      18.928  -7.618  -3.272  0.00  0.00    +0.000 HD
ATOM     22  H   UNL     1      19.574  -6.051  -2.800  0.00  0.00    +0.000 HD
ENDBRANCH  17  19
BRANCH  17  23
ATOM     23  C   UNL     1      17.529  -6.864  -5.460  0.00  0.00    +0.000 C 
ATOM     24  H   UNL     1      17.098  -7.755  -4.990  0.00  0.00    +0.000 HD
ATOM     25  H   UNL     1      16.731  -6.386  -6.037  0.00  0.00    +0.000 HD
ATOM     26  H   UNL     1      18.304  -7.204  -6.157  0.00  0.00    +0.000 HD
ENDBRANCH  17  23
ENDBRANCH   1  17
TORSDOF 6
ENDMDL
MODEL 5
REMARK VINA RESULT:    -4.206     26.144     26.958
REMARK INTER + INTRA:          -5.534
REMARK INTER:                  -5.253
REMARK INTRA:                  -0.281
REMARK UNBOUND:                -0.221
REMARK  Name = 32594
REMARK  6 active torsions:
REMARK  status: ('A' for Active; 'I' for Inactive)
REMARK    1  A    between atoms: O_1  and  C_9
REMARK    2  A    between atoms: O_1  and  C_12
REMARK    3  A    between atoms: C_4  and  C_5
REMARK    4  A    between atoms: C_4  and  C_6
REMARK    5  A    between atoms: C_4  and  C_7
REMARK    6  A    between atoms: C_5  and  C_8
REMARK                            x       y       z     vdW  Elec       q    Type
REMARK                         _______ _______ _______ _____ _____    ______ ____
ROOT
ATOM      1  C   UNL     1      16.548  -4.859  -2.857  0.00  0.00    +0.000 C 
ATOM      2  H   UNL     1      16.232  -3.920  -2.384  0.00  0.00    +0.000 HD
ATOM      3  H   UNL     1      16.003  -4.898  -3.809  0.00  0.00    +0.000 HD
ENDROOT
BRANCH   1   6
ATOM      4  N   UNL     1      18.511  -5.652  -4.028  0.00  0.00    +0.000 NA
ATOM      5  N   UNL     1      20.145  -3.826  -2.663  0.00  0.00    +0.000 NA
ATOM      6  C   UNL     1      18.033  -4.793  -3.117  0.00  0.00    +0.000 A 
ATOM      7  C   UNL     1      18.818  -3.898  -2.444  0.00  0.00    +0.000 A 
ATOM      8  C   UNL     1      19.839  -5.581  -4.247  0.00  0.00    +0.000 A 
ATOM      9  C   UNL     1      20.642  -4.684  -3.577  0.00  0.00    +0.000 A 
ATOM     10  H   UNL     1      20.237  -6.269  -4.982  0.00  0.00    +0.000 HD
ATOM     11  H   UNL     1      21.708  -4.626  -3.755  0.00  0.00    +0.000 HD
BRANCH   7  12
ATOM     12  O   UNL     1      18.292  -3.037  -1.521  0.00  0.00    +0.000 OA
BRANCH  12  13
ATOM     13  C   UNL     1      18.850  -3.079  -0.211  0.00  0.00    +0.000 C 
ATOM     14  H   UNL     1      18.496  -2.237   0.393  0.00  0.00    +0.000 HD
ATOM     15  H   UNL     1      19.945  -3.097  -0.251  0.00  0.00    +0.000 HD
ATOM     16  H   UNL     1      18.513  -4.003   0.268  0.00  0.00    +0.000 HD
ENDBRANCH  12  13
ENDBRANCH   7  12
ENDBRANCH   1   6
BRANCH   1  17
ATOM     17  C   UNL     1      16.124  -6.046  -1.970  0.00  0.00    +0.000 C 
ATOM     18  H   UNL     1      16.969  -6.743  -1.906  0.00  0.00    +0.000 HD
BRANCH  17  19
ATOM     19  C   UNL     1      15.746  -5.600  -0.555  0.00  0.00    +0.000 C 
ATOM     20  H   UNL     1      14.963  -6.220  -0.107  0.00  0.00    +0.000 HD
ATOM     21  H   UNL     1      15.428  -4.554  -0.545  0.00  0.00    +0.000 HD
ATOM     22  H   UNL     1      16.620  -5.674   0.102  0.00  0.00    +0.000 HD
ENDBRANCH  17  19
BRANCH  17  23
ATOM     23  C   UNL     1      14.943  -6.777  -2.612  0.00  0.00    +0.000 C 
ATOM     24  H   UNL     1      15.066  -6.807  -3.700  0.00  0.00    +0.000 HD
ATOM     25  H   UNL     1      14.854  -7.812  -2.269  0.00  0.00    +0.000 HD
ATOM     26  H   UNL     1      13.998  -6.261  -2.405  0.00  0.00    +0.000 HD
ENDBRANCH  17  23
ENDBRANCH   1  17
TORSDOF 6
ENDMDL
MODEL 6
REMARK VINA RESULT:    -3.962      1.186      3.182
REMARK INTER + INTRA:          -5.225
REMARK INTER:                  -4.940
REMARK INTRA:                  -0.285
REMARK UNBOUND:                -0.221
REMARK  Name = 32594
REMARK  6 active torsions:
REMARK  status: ('A' for Active; 'I' for Inactive)
REMARK    1  A    between atoms: O_1  and  C_9
REMARK    2  A    between atoms: O_1  and  C_12
REMARK    3  A    between atoms: C_4  and  C_5
REMARK    4  A    between atoms: C_4  and  C_6
REMARK    5  A    between atoms: C_4  and  C_7
REMARK    6  A    between atoms: C_5  and  C_8
REMARK                            x       y       z     vdW  Elec       q    Type
REMARK                         _______ _______ _______ _____ _____    ______ ____
ROOT
ATOM      1  C   UNL     1       2.848   2.994 -22.060  0.00  0.00    +0.000 C 
ATOM      2  H   UNL     1       3.217   3.356 -21.090  0.00  0.00    +0.000 HD
ATOM      3  H   UNL     1       3.415   2.075 -22.257  0.00  0.00    +0.000 HD
ENDROOT
BRANCH   1   6
ATOM      4  N   UNL     1       0.841   1.958 -22.924  0.00  0.00    +0.000 NA
ATOM      5  N   UNL     1      -0.644   2.830 -20.710  0.00  0.00    +0.000 NA
ATOM      6  C   UNL     1       1.380   2.674 -21.928  0.00  0.00    +0.000 A 
ATOM      7  C   UNL     1       0.668   3.106 -20.843  0.00  0.00    +0.000 A 
ATOM      8  C   UNL     1      -0.472   1.681 -22.792  0.00  0.00    +0.000 A 
ATOM      9  C   UNL     1      -1.201   2.109 -21.705  0.00  0.00    +0.000 A 
ATOM     10  H   UNL     1      -0.919   1.102 -23.590  0.00  0.00    +0.000 HD
ATOM     11  H   UNL     1      -2.256   1.886 -21.598  0.00  0.00    +0.000 HD
BRANCH   7  12
ATOM     12  O   UNL     1       1.254   3.835 -19.846  0.00  0.00    +0.000 OA
BRANCH  12  13
ATOM     13  C   UNL     1       0.805   5.176 -19.681  0.00  0.00    +0.000 C 
ATOM     14  H   UNL     1       1.576   5.889 -19.993  0.00  0.00    +0.000 HD
ATOM     15  H   UNL     1       0.498   5.363 -18.646  0.00  0.00    +0.000 HD
ATOM     16  H   UNL     1      -0.068   5.320 -20.325  0.00  0.00    +0.000 HD
ENDBRANCH  12  13
ENDBRANCH   7  12
ENDBRANCH   1   6
BRANCH   1  17
ATOM     17  C   UNL     1       3.162   4.039 -23.149  0.00  0.00    +0.000 C 
ATOM     18  H   UNL     1       2.403   3.949 -23.935  0.00  0.00    +0.000 HD
BRANCH  17  19
ATOM     19  C   UNL     1       3.137   5.467 -22.599  0.00  0.00    +0.000 C 
ATOM     20  H   UNL     1       3.975   6.076 -22.953  0.00  0.00    +0.000 HD
ATOM     21  H   UNL     1       3.127   5.467 -21.505  0.00  0.00    +0.000 HD
ATOM     22  H   UNL     1       2.221   5.973 -22.926  0.00  0.00    +0.000 HD
ENDBRANCH  17  19
BRANCH  17  23
ATOM     23  C   UNL     1       4.533   3.749 -23.765  0.00  0.00    +0.000 C 
ATOM     24  H   UNL     1       4.574   2.713 -24.119  0.00  0.00    +0.000 HD
ATOM     25  H   UNL     1       4.750   4.391 -24.624  0.00  0.00    +0.000 HD
ATOM     26  H   UNL     1       5.333   3.875 -23.027  0.00  0.00    +0.000 HD
ENDBRANCH  17  23
ENDBRANCH   1  17
TORSDOF 6
ENDMDL
MODEL 7
REMARK VINA RESULT:    -3.902     31.189     31.940
REMARK INTER + INTRA:          -5.150
REMARK INTER:                  -4.905
REMARK INTRA:                  -0.245
REMARK UNBOUND:                -0.221
REMARK  Name = 32594
REMARK  6 active torsions:
REMARK  status: ('A' for Active; 'I' for Inactive)
REMARK    1  A    between atoms: O_1  and  C_9
REMARK    2  A    between atoms: O_1  and  C_12
REMARK    3  A    between atoms: C_4  and  C_5
REMARK    4  A    between atoms: C_4  and  C_6
REMARK    5  A    between atoms: C_4  and  C_7
REMARK    6  A    between atoms: C_5  and  C_8
REMARK                            x       y       z     vdW  Elec       q    Type
REMARK                         _______ _______ _______ _____ _____    ______ ____
ROOT
ATOM      1  C   UNL     1      -7.435 -15.267   4.408  0.00  0.00    +0.000 C 
ATOM      2  H   UNL     1      -8.133 -14.802   3.698  0.00  0.00    +0.000 HD
ATOM      3  H   UNL     1      -7.820 -16.283   4.564  0.00  0.00    +0.000 HD
ENDROOT
BRANCH   1   6
ATOM      4  N   UNL     1      -5.259 -16.302   4.205  0.00  0.00    +0.000 NA
ATOM      5  N   UNL     1      -4.491 -14.461   2.234  0.00  0.00    +0.000 NA
ATOM      6  C   UNL     1      -6.068 -15.327   3.771  0.00  0.00    +0.000 A 
ATOM      7  C   UNL     1      -5.708 -14.422   2.811  0.00  0.00    +0.000 A 
ATOM      8  C   UNL     1      -4.041 -16.342   3.628  0.00  0.00    +0.000 A 
ATOM      9  C   UNL     1      -3.664 -15.437   2.659  0.00  0.00    +0.000 A 
ATOM     10  H   UNL     1      -3.378 -17.126   3.969  0.00  0.00    +0.000 HD
ATOM     11  H   UNL     1      -2.686 -15.470   2.195  0.00  0.00    +0.000 HD
BRANCH   7  12
ATOM     12  O   UNL     1      -6.563 -13.440   2.395  0.00  0.00    +0.000 OA
BRANCH  12  13
ATOM     13  C   UNL     1      -7.014 -13.509   1.045  0.00  0.00    +0.000 C 
ATOM     14  H   UNL     1      -7.904 -14.141   0.961  0.00  0.00    +0.000 HD
ATOM     15  H   UNL     1      -6.217 -13.867   0.383  0.00  0.00    +0.000 HD
ATOM     16  H   UNL     1      -7.287 -12.498   0.730  0.00  0.00    +0.000 HD
ENDBRANCH  12  13
ENDBRANCH   7  12
ENDBRANCH   1   6
BRANCH   1  17
ATOM     17  C   UNL     1      -7.468 -14.492   5.739  0.00  0.00    +0.000 C 
ATOM     18  H   UNL     1      -6.435 -14.375   6.091  0.00  0.00    +0.000 HD
BRANCH  17  19
ATOM     19  C   UNL     1      -8.094 -13.104   5.581  0.00  0.00    +0.000 C 
ATOM     20  H   UNL     1      -7.380 -12.352   5.230  0.00  0.00    +0.000 HD
ATOM     21  H   UNL     1      -8.542 -12.766   6.520  0.00  0.00    +0.000 HD
ATOM     22  H   UNL     1      -8.900 -13.144   4.839  0.00  0.00    +0.000 HD
ENDBRANCH  17  19
BRANCH  17  23
ATOM     23  C   UNL     1      -8.247 -15.292   6.785  0.00  0.00    +0.000 C 
ATOM     24  H   UNL     1      -9.279 -15.443   6.451  0.00  0.00    +0.000 HD
ATOM     25  H   UNL     1      -7.817 -16.283   6.960  0.00  0.00    +0.000 HD
ATOM     26  H   UNL     1      -8.289 -14.758   7.742  0.00  0.00    +0.000 HD
ENDBRANCH  17  23
ENDBRANCH   1  17
TORSDOF 6
ENDMDL
MODEL 8
REMARK VINA RESULT:    -3.890     20.790     22.065
REMARK INTER + INTRA:          -5.134
REMARK INTER:                  -4.922
REMARK INTRA:                  -0.212
REMARK UNBOUND:                -0.221
REMARK  Name = 32594
REMARK  6 active torsions:
REMARK  status: ('A' for Active; 'I' for Inactive)
REMARK    1  A    between atoms: O_1  and  C_9
REMARK    2  A    between atoms: O_1  and  C_12
REMARK    3  A    between atoms: C_4  and  C_5
REMARK    4  A    between atoms: C_4  and  C_6
REMARK    5  A    between atoms: C_4  and  C_7
REMARK    6  A    between atoms: C_5  and  C_8
REMARK                            x       y       z     vdW  Elec       q    Type
REMARK                         _______ _______ _______ _____ _____    ______ ____
ROOT
ATOM      1  C   UNL     1      12.606  18.519 -10.561  0.00  0.00    +0.000 C 
ATOM      2  H   UNL     1      13.075  19.054  -9.723  0.00  0.00    +0.000 HD
ATOM      3  H   UNL     1      11.840  17.882 -10.100  0.00  0.00    +0.000 HD
ENDROOT
BRANCH   1   6
ATOM      4  N   UNL     1      12.541  19.712 -12.664  0.00  0.00    +0.000 NA
ATOM      5  N   UNL     1      10.238  21.108 -11.878  0.00  0.00    +0.000 NA
ATOM      6  C   UNL     1      11.954  19.529 -11.473  0.00  0.00    +0.000 A 
ATOM      7  C   UNL     1      10.832  20.202 -11.077  0.00  0.00    +0.000 A 
ATOM      8  C   UNL     1      11.948  20.618 -13.466  0.00  0.00    +0.000 A 
ATOM      9  C   UNL     1      10.817  21.303 -13.081  0.00  0.00    +0.000 A 
ATOM     10  H   UNL     1      12.411  20.774 -14.432  0.00  0.00    +0.000 HD
ATOM     11  H   UNL     1      10.340  22.031 -13.726  0.00  0.00    +0.000 HD
BRANCH   7  12
ATOM     12  O   UNL     1      10.263  19.987  -9.853  0.00  0.00    +0.000 OA
BRANCH  12  13
ATOM     13  C   UNL     1       9.862  21.140  -9.118  0.00  0.00    +0.000 C 
ATOM     14  H   UNL     1       9.308  21.838  -9.755  0.00  0.00    +0.000 HD
ATOM     15  H   UNL     1      10.725  21.632  -8.658  0.00  0.00    +0.000 HD
ATOM     16  H   UNL     1       9.193  20.812  -8.317  0.00  0.00    +0.000 HD
ENDBRANCH  12  13
ENDBRANCH   7  12
ENDBRANCH   1   6
BRANCH   1  17
ATOM     17  C   UNL     1      13.659  17.637 -11.259  0.00  0.00    +0.000 C 
ATOM     18  H   UNL     1      13.734  17.959 -12.305  0.00  0.00    +0.000 HD
BRANCH  17  19
ATOM     19  C   UNL     1      15.037  17.762 -10.605  0.00  0.00    +0.000 C 
ATOM     20  H   UNL     1      15.149  17.127  -9.720  0.00  0.00    +0.000 HD
ATOM     21  H   UNL     1      15.252  18.800 -10.334  0.00  0.00    +0.000 HD
ATOM     22  H   UNL     1      15.813  17.451 -11.315  0.00  0.00    +0.000 HD
ENDBRANCH  17  19
BRANCH  17  23
ATOM     23  C   UNL     1      13.208  16.175 -11.235  0.00  0.00    +0.000 C 
ATOM     24  H   UNL     1      12.157  16.101 -11.533  0.00  0.00    +0.000 HD
ATOM     25  H   UNL     1      13.784  15.548 -11.923  0.00  0.00    +0.000 HD
ATOM     26  H   UNL     1      13.293  15.751 -10.227  0.00  0.00    +0.000 HD
ENDBRANCH  17  23
ENDBRANCH   1  17
TORSDOF 6
ENDMDL
MODEL 9
REMARK VINA RESULT:    -3.882      2.181      2.799
REMARK INTER + INTRA:          -5.124
REMARK INTER:                  -4.894
REMARK INTRA:                  -0.230
REMARK UNBOUND:                -0.221
REMARK  Name = 32594
REMARK  6 active torsions:
REMARK  status: ('A' for Active; 'I' for Inactive)
REMARK    1  A    between atoms: O_1  and  C_9
REMARK    2  A    between atoms: O_1  and  C_12
REMARK    3  A    between atoms: C_4  and  C_5
REMARK    4  A    between atoms: C_4  and  C_6
REMARK    5  A    between atoms: C_4  and  C_7
REMARK    6  A    between atoms: C_5  and  C_8
REMARK                            x       y       z     vdW  Elec       q    Type
REMARK                         _______ _______ _______ _____ _____    ______ ____
ROOT
ATOM      1  C   UNL     1       2.462   5.821 -20.577  0.00  0.00    +0.000 C 
ATOM      2  H   UNL     1       2.852   6.064 -21.575  0.00  0.00    +0.000 HD
ATOM      3  H   UNL     1       1.998   6.748 -20.218  0.00  0.00    +0.000 HD
ENDROOT
BRANCH   1   6
ATOM      4  N   UNL     1       0.916   4.254 -19.575  0.00  0.00    +0.000 NA
ATOM      5  N   UNL     1       0.092   3.348 -22.098  0.00  0.00    +0.000 NA
ATOM      6  C   UNL     1       1.416   4.743 -20.718  0.00  0.00    +0.000 A 
ATOM      7  C   UNL     1       1.024   4.311 -21.955  0.00  0.00    +0.000 A 
ATOM      8  C   UNL     1      -0.016   3.291 -19.718  0.00  0.00    +0.000 A 
ATOM      9  C   UNL     1      -0.422   2.846 -20.957  0.00  0.00    +0.000 A 
ATOM     10  H   UNL     1      -0.429   2.888 -18.801  0.00  0.00    +0.000 HD
ATOM     11  H   UNL     1      -1.171   2.073 -21.071  0.00  0.00    +0.000 HD
BRANCH   7  12
ATOM     12  O   UNL     1       1.558   4.835 -23.099  0.00  0.00    +0.000 OA
BRANCH  12  13
ATOM     13  C   UNL     1       0.640   5.262 -24.101  0.00  0.00    +0.000 C 
ATOM     14  H   UNL     1       0.961   6.208 -24.549  0.00  0.00    +0.000 HD
ATOM     15  H   UNL     1      -0.374   5.346 -23.694  0.00  0.00    +0.000 HD
ATOM     16  H   UNL     1       0.626   4.503 -24.889  0.00  0.00    +0.000 HD
ENDBRANCH  12  13
ENDBRANCH   7  12
ENDBRANCH   1   6
BRANCH   1  17
ATOM     17  C   UNL     1       3.632   5.436 -19.651  0.00  0.00    +0.000 C 
ATOM     18  H   UNL     1       3.211   5.063 -18.708  0.00  0.00    +0.000 HD
BRANCH  17  19
ATOM     19  C   UNL     1       4.515   4.345 -20.262  0.00  0.00    +0.000 C 
ATOM     20  H   UNL     1       5.381   4.099 -19.640  0.00  0.00    +0.000 HD
ATOM     21  H   UNL     1       4.856   4.631 -21.261  0.00  0.00    +0.000 HD
ATOM     22  H   UNL     1       3.936   3.421 -20.375  0.00  0.00    +0.000 HD
ENDBRANCH  17  19
BRANCH  17  23
ATOM     23  C   UNL     1       4.479   6.673 -19.345  0.00  0.00    +0.000 C 
ATOM     24  H   UNL     1       5.150   6.886 -20.185  0.00  0.00    +0.000 HD
ATOM     25  H   UNL     1       3.870   7.568 -19.184  0.00  0.00    +0.000 HD
ATOM     26  H   UNL     1       5.105   6.515 -18.459  0.00  0.00    +0.000 HD
ENDBRANCH  17  23
ENDBRANCH   1  17
TORSDOF 6
ENDMDL
MODEL 10
REMARK VINA RESULT:    -3.864     43.842     45.156
REMARK INTER + INTRA:          -5.102
REMARK INTER:                  -4.880
REMARK INTRA:                  -0.221
REMARK UNBOUND:                -0.221
REMARK  Name = 32594
REMARK  6 active torsions:
REMARK  status: ('A' for Active; 'I' for Inactive)
REMARK    1  A    between atoms: O_1  and  C_9
REMARK    2  A    between atoms: O_1  and  C_12
REMARK    3  A    between atoms: C_4  and  C_5
REMARK    4  A    between atoms: C_4  and  C_6
REMARK    5  A    between atoms: C_4  and  C_7
REMARK    6  A    between atoms: C_5  and  C_8
REMARK                            x       y       z     vdW  Elec       q    Type
REMARK                         _______ _______ _______ _____ _____    ______ ____
ROOT
ATOM      1  C   UNL     1      -2.917  11.397  24.274  0.00  0.00    +0.000 C 
ATOM      2  H   UNL     1      -3.418  10.437  24.459  0.00  0.00    +0.000 HD
ATOM      3  H   UNL     1      -2.606  11.754  25.264  0.00  0.00    +0.000 HD
ENDROOT
BRANCH   1   6
ATOM      4  N   UNL     1      -0.917  12.210  23.182  0.00  0.00    +0.000 NA
ATOM      5  N   UNL     1      -0.370   9.665  22.138  0.00  0.00    +0.000 NA
ATOM      6  C   UNL     1      -1.703  11.150  23.413  0.00  0.00    +0.000 A 
ATOM      7  C   UNL     1      -1.449   9.903  22.910  0.00  0.00    +0.000 A 
ATOM      8  C   UNL     1       0.162  11.973  22.410  0.00  0.00    +0.000 A 
ATOM      9  C   UNL     1       0.431  10.723  21.898  0.00  0.00    +0.000 A 
ATOM     10  H   UNL     1       0.805  12.822  22.217  0.00  0.00    +0.000 HD
ATOM     11  H   UNL     1       1.298  10.532  21.278  0.00  0.00    +0.000 HD
BRANCH   7  12
ATOM     12  O   UNL     1      -2.275   8.845  23.168  0.00  0.00    +0.000 OA
BRANCH  12  13
ATOM     13  C   UNL     1      -1.669   7.558  23.239  0.00  0.00    +0.000 C 
ATOM     14  H   UNL     1      -2.401   6.795  23.524  0.00  0.00    +0.000 HD
ATOM     15  H   UNL     1      -0.819   7.562  23.930  0.00  0.00    +0.000 HD
ATOM     16  H   UNL     1      -1.293   7.309  22.242  0.00  0.00    +0.000 HD
ENDBRANCH  12  13
ENDBRANCH   7  12
ENDBRANCH   1   6
BRANCH   1  17
ATOM     17  C   UNL     1      -3.924  12.390  23.660  0.00  0.00    +0.000 C 
ATOM     18  H   UNL     1      -3.410  12.951  22.870  0.00  0.00    +0.000 HD
BRANCH  17  19
ATOM     19  C   UNL     1      -5.134  11.677  23.051  0.00  0.00    +0.000 C 
ATOM     20  H   UNL     1      -5.703  12.314  22.366  0.00  0.00    +0.000 HD
ATOM     21  H   UNL     1      -5.801  11.299  23.831  0.00  0.00    +0.000 HD
ATOM     22  H   UNL     1      -4.799  10.810  22.470  0.00  0.00    +0.000 HD
ENDBRANCH  17  19
BRANCH  17  23
ATOM     23  C   UNL     1      -4.393  13.379  24.729  0.00  0.00    +0.000 C 
ATOM     24  H   UNL     1      -4.107  13.021  25.724  0.00  0.00    +0.000 HD
ATOM     25  H   UNL     1      -3.949  14.372  24.604  0.00  0.00    +0.000 HD
ATOM     26  H   UNL     1      -5.484  13.484  24.720  0.00  0.00    +0.000 HD
ENDBRANCH  17  23
ENDBRANCH   1  17
TORSDOF 6
ENDMDL
