MODEL 1
REMARK VINA RESULT:    -3.959      0.000      0.000
REMARK INTER + INTRA:          -6.400
REMARK INTER:                  -6.027
REMARK INTRA:                  -0.374
REMARK UNBOUND:                -0.706
REMARK  Name = 12367
REMARK  9 active torsions:
REMARK  status: ('A' for Active; 'I' for Inactive)
REMARK    1  A    between atoms: O_1  and  C_7
REMARK    2  A    between atoms: C_2  and  C_3
REMARK    3  A    between atoms: C_2  and  C_4
REMARK    4  A    between atoms: C_3  and  C_5
REMARK    5  A    between atoms: C_4  and  C_6
REMARK    6  A    between atoms: C_5  and  C_7
REMARK    7  A    between atoms: C_6  and  C_8
REMARK    8  A    between atoms: C_7  and  C_9
REMARK    9  A    between atoms: C_8  and  C_10
REMARK                            x       y       z     vdW  Elec       q    Type
REMARK                         _______ _______ _______ _____ _____    ______ ____
ROOT
ATOM      1  C   UNL     1      16.091   5.546  -0.839  0.00  0.00    +0.000 C 
ATOM      2  H   UNL     1      17.072   5.267  -1.241  0.00  0.00    +0.000 HD
ATOM      3  H   UNL     1      16.164   6.588  -0.503  0.00  0.00    +0.000 HD
ENDROOT
BRANCH   1   4
ATOM      4  C   UNL     1      15.030   5.433  -1.936  0.00  0.00    +0.000 C 
ATOM      5  H   UNL     1      14.049   5.710  -1.532  0.00  0.00    +0.000 HD
ATOM      6  H   UNL     1      14.962   4.387  -2.260  0.00  0.00    +0.000 HD
BRANCH   4   7
ATOM      7  C   UNL     1      15.366   6.333  -3.130  0.00  0.00    +0.000 C 
ATOM      8  H   UNL     1      16.443   6.537  -3.148  0.00  0.00    +0.000 HD
ATOM      9  H   UNL     1      15.117   5.792  -4.052  0.00  0.00    +0.000 HD
BRANCH   7  10
ATOM     10  C   UNL     1      14.590   7.652  -3.094  0.00  0.00    +0.000 C 
ATOM     11  H   UNL     1      13.952   7.684  -2.203  0.00  0.00    +0.000 HD
BRANCH  10  12
ATOM     12  C   UNL     1      15.533   8.847  -3.095  0.00  0.00    +0.000 C 
ATOM     13  H   UNL     1      16.162   8.859  -2.200  0.00  0.00    +0.000 HD
ATOM     14  H   UNL     1      16.180   8.835  -3.980  0.00  0.00    +0.000 HD
ATOM     15  H   UNL     1      14.966   9.784  -3.135  0.00  0.00    +0.000 HD
ENDBRANCH  10  12
BRANCH  10  16
ATOM     16  O   UNL     1      13.747   7.730  -4.241  0.00  0.00    +0.000 OA
ATOM     17  H   UNL     1      13.430   6.832  -4.433  0.00  0.00    +0.000 HD
ENDBRANCH  10  16
ENDBRANCH   7  10
ENDBRANCH   4   7
ENDBRANCH   1   4
BRANCH   1  18
ATOM     18  C   UNL     1      15.755   4.646   0.352  0.00  0.00    +0.000 C 
ATOM     19  H   UNL     1      16.643   4.531   0.984  0.00  0.00    +0.000 HD
ATOM     20  H   UNL     1      14.988   5.131   0.967  0.00  0.00    +0.000 HD
BRANCH  18  21
ATOM     21  C   UNL     1      15.257   3.256  -0.056  0.00  0.00    +0.000 C 
ATOM     22  H   UNL     1      16.046   2.523   0.155  0.00  0.00    +0.000 HD
ATOM     23  H   UNL     1      15.109   3.245  -1.144  0.00  0.00    +0.000 HD
BRANCH  21  24
ATOM     24  C   UNL     1      13.962   2.790   0.614  0.00  0.00    +0.000 C 
ATOM     25  H   UNL     1      13.627   1.858   0.143  0.00  0.00    +0.000 HD
ATOM     26  H   UNL     1      14.165   2.558   1.667  0.00  0.00    +0.000 HD
BRANCH  24  27
ATOM     27  C   UNL     1      12.838   3.812   0.545  0.00  0.00    +0.000 C 
ATOM     28  H   UNL     1      11.870   3.308   0.468  0.00  0.00    +0.000 HD
ATOM     29  H   UNL     1      12.955   4.461  -0.328  0.00  0.00    +0.000 HD
ATOM     30  H   UNL     1      12.827   4.440   1.441  0.00  0.00    +0.000 HD
ENDBRANCH  24  27
ENDBRANCH  21  24
ENDBRANCH  18  21
ENDBRANCH   1  18
TORSDOF 9
ENDMDL
MODEL 2
REMARK VINA RESULT:    -3.935     10.636     11.852
REMARK INTER + INTRA:          -6.366
REMARK INTER:                  -5.748
REMARK INTRA:                  -0.618
REMARK UNBOUND:                -0.706
REMARK  Name = 12367
REMARK  9 active torsions:
REMARK  status: ('A' for Active; 'I' for Inactive)
REMARK    1  A    between atoms: O_1  and  C_7
REMARK    2  A    between atoms: C_2  and  C_3
REMARK    3  A    between atoms: C_2  and  C_4
REMARK    4  A    between atoms: C_3  and  C_5
REMARK    5  A    between atoms: C_4  and  C_6
REMARK    6  A    between atoms: C_5  and  C_7
REMARK    7  A    between atoms: C_6  and  C_8
REMARK    8  A    between atoms: C_7  and  C_9
REMARK    9  A    between atoms: C_8  and  C_10
REMARK                            x       y       z     vdW  Elec       q    Type
REMARK                         _______ _______ _______ _____ _____    ______ ____
ROOT
ATOM      1  C   UNL     1      18.050  -3.543  -2.341  0.00  0.00    +0.000 C 
ATOM      2  H   UNL     1      17.981  -2.450  -2.300  0.00  0.00    +0.000 HD
ATOM      3  H   UNL     1      17.382  -3.880  -3.143  0.00  0.00    +0.000 HD
ENDROOT
BRANCH   1   4
ATOM      4  C   UNL     1      19.488  -3.960  -2.660  0.00  0.00    +0.000 C 
ATOM      5  H   UNL     1      19.907  -4.522  -1.816  0.00  0.00    +0.000 HD
ATOM      6  H   UNL     1      20.101  -3.059  -2.785  0.00  0.00    +0.000 HD
BRANCH   4   7
ATOM      7  C   UNL     1      19.550  -4.819  -3.928  0.00  0.00    +0.000 C 
ATOM      8  H   UNL     1      19.000  -4.324  -4.738  0.00  0.00    +0.000 HD
ATOM      9  H   UNL     1      20.599  -4.897  -4.241  0.00  0.00    +0.000 HD
BRANCH   7  10
ATOM     10  C   UNL     1      18.984  -6.223  -3.702  0.00  0.00    +0.000 C 
ATOM     11  H   UNL     1      18.455  -6.260  -2.742  0.00  0.00    +0.000 HD
BRANCH  10  12
ATOM     12  C   UNL     1      18.040  -6.626  -4.827  0.00  0.00    +0.000 C 
ATOM     13  H   UNL     1      18.459  -7.442  -5.424  0.00  0.00    +0.000 HD
ATOM     14  H   UNL     1      17.069  -6.942  -4.430  0.00  0.00    +0.000 HD
ATOM     15  H   UNL     1      17.846  -5.774  -5.487  0.00  0.00    +0.000 HD
ENDBRANCH  10  12
BRANCH  10  16
ATOM     16  O   UNL     1      20.059  -7.157  -3.647  0.00  0.00    +0.000 OA
ATOM     17  H   UNL     1      19.759  -7.976  -4.076  0.00  0.00    +0.000 HD
ENDBRANCH  10  16
ENDBRANCH   7  10
ENDBRANCH   4   7
ENDBRANCH   1   4
BRANCH   1  18
ATOM     18  C   UNL     1      17.586  -4.132  -1.007  0.00  0.00    +0.000 C 
ATOM     19  H   UNL     1      18.255  -4.951  -0.718  0.00  0.00    +0.000 HD
ATOM     20  H   UNL     1      17.666  -3.367  -0.226  0.00  0.00    +0.000 HD
BRANCH  18  21
ATOM     21  C   UNL     1      16.148  -4.659  -1.041  0.00  0.00    +0.000 C 
ATOM     22  H   UNL     1      15.479  -3.880  -0.651  0.00  0.00    +0.000 HD
ATOM     23  H   UNL     1      16.071  -5.506  -0.347  0.00  0.00    +0.000 HD
BRANCH  21  24
ATOM     24  C   UNL     1      15.635  -5.104  -2.412  0.00  0.00    +0.000 C 
ATOM     25  H   UNL     1      14.826  -4.434  -2.730  0.00  0.00    +0.000 HD
ATOM     26  H   UNL     1      16.440  -5.002  -3.149  0.00  0.00    +0.000 HD
BRANCH  24  27
ATOM     27  C   UNL     1      15.127  -6.538  -2.436  0.00  0.00    +0.000 C 
ATOM     28  H   UNL     1      15.948  -7.235  -2.243  0.00  0.00    +0.000 HD
ATOM     29  H   UNL     1      14.695  -6.782  -3.412  0.00  0.00    +0.000 HD
ATOM     30  H   UNL     1      14.359  -6.692  -1.672  0.00  0.00    +0.000 HD
ENDBRANCH  24  27
ENDBRANCH  21  24
ENDBRANCH  18  21
ENDBRANCH   1  18
TORSDOF 9
ENDMDL
MODEL 3
REMARK VINA RESULT:    -3.913     20.386     22.016
REMARK INTER + INTRA:          -6.334
REMARK INTER:                  -6.043
REMARK INTRA:                  -0.291
REMARK UNBOUND:                -0.706
REMARK  Name = 12367
REMARK  9 active torsions:
REMARK  status: ('A' for Active; 'I' for Inactive)
REMARK    1  A    between atoms: O_1  and  C_7
REMARK    2  A    between atoms: C_2  and  C_3
REMARK    3  A    between atoms: C_2  and  C_4
REMARK    4  A    between atoms: C_3  and  C_5
REMARK    5  A    between atoms: C_4  and  C_6
REMARK    6  A    between atoms: C_5  and  C_7
REMARK    7  A    between atoms: C_6  and  C_8
REMARK    8  A    between atoms: C_7  and  C_9
REMARK    9  A    between atoms: C_8  and  C_10
REMARK                            x       y       z     vdW  Elec       q    Type
REMARK                         _______ _______ _______ _____ _____    ______ ____
ROOT
ATOM      1  C   UNL     1       2.596   6.241 -20.195  0.00  0.00    +0.000 C 
ATOM      2  H   UNL     1       2.927   5.580 -21.005  0.00  0.00    +0.000 HD
ATOM      3  H   UNL     1       2.339   7.206 -20.649  0.00  0.00    +0.000 HD
ENDROOT
BRANCH   1   4
ATOM      4  C   UNL     1       1.360   5.648 -19.515  0.00  0.00    +0.000 C 
ATOM      5  H   UNL     1       0.745   6.455 -19.095  0.00  0.00    +0.000 HD
ATOM      6  H   UNL     1       1.681   5.018 -18.677  0.00  0.00    +0.000 HD
BRANCH   4   7
ATOM      7  C   UNL     1       0.522   4.827 -20.501  0.00  0.00    +0.000 C 
ATOM      8  H   UNL     1      -0.454   5.307 -20.647  0.00  0.00    +0.000 HD
ATOM      9  H   UNL     1       1.035   4.824 -21.471  0.00  0.00    +0.000 HD
BRANCH   7  10
ATOM     10  C   UNL     1       0.323   3.385 -20.029  0.00  0.00    +0.000 C 
ATOM     11  H   UNL     1      -0.421   2.887 -20.661  0.00  0.00    +0.000 HD
BRANCH  10  12
ATOM     12  C   UNL     1       1.632   2.607 -20.062  0.00  0.00    +0.000 C 
ATOM     13  H   UNL     1       2.362   3.028 -19.364  0.00  0.00    +0.000 HD
ATOM     14  H   UNL     1       1.468   1.554 -19.808  0.00  0.00    +0.000 HD
ATOM     15  H   UNL     1       2.062   2.624 -21.069  0.00  0.00    +0.000 HD
ENDBRANCH  10  12
BRANCH  10  16
ATOM     16  O   UNL     1      -0.172   3.395 -18.692  0.00  0.00    +0.000 OA
ATOM     17  H   UNL     1       0.412   2.831 -18.158  0.00  0.00    +0.000 HD
ENDBRANCH  10  16
ENDBRANCH   7  10
ENDBRANCH   4   7
ENDBRANCH   1   4
BRANCH   1  18
ATOM     18  C   UNL     1       3.739   6.433 -19.196  0.00  0.00    +0.000 C 
ATOM     19  H   UNL     1       4.238   7.389 -19.393  0.00  0.00    +0.000 HD
ATOM     20  H   UNL     1       3.327   6.494 -18.182  0.00  0.00    +0.000 HD
BRANCH  18  21
ATOM     21  C   UNL     1       4.783   5.313 -19.242  0.00  0.00    +0.000 C 
ATOM     22  H   UNL     1       5.322   5.372 -20.196  0.00  0.00    +0.000 HD
ATOM     23  H   UNL     1       4.258   4.348 -19.244  0.00  0.00    +0.000 HD
BRANCH  21  24
ATOM     24  C   UNL     1       5.804   5.308 -18.102  0.00  0.00    +0.000 C 
ATOM     25  H   UNL     1       6.442   6.196 -18.185  0.00  0.00    +0.000 HD
ATOM     26  H   UNL     1       5.275   5.386 -17.144  0.00  0.00    +0.000 HD
BRANCH  24  27
ATOM     27  C   UNL     1       6.682   4.067 -18.076  0.00  0.00    +0.000 C 
ATOM     28  H   UNL     1       7.705   4.319 -18.372  0.00  0.00    +0.000 HD
ATOM     29  H   UNL     1       6.304   3.307 -18.767  0.00  0.00    +0.000 HD
ATOM     30  H   UNL     1       6.713   3.632 -17.072  0.00  0.00    +0.000 HD
ENDBRANCH  24  27
ENDBRANCH  21  24
ENDBRANCH  18  21
ENDBRANCH   1  18
TORSDOF 9
ENDMDL
MODEL 4
REMARK VINA RESULT:    -3.893      2.226      3.954
REMARK INTER + INTRA:          -6.305
REMARK INTER:                  -5.530
REMARK INTRA:                  -0.775
REMARK UNBOUND:                -0.706
REMARK  Name = 12367
REMARK  9 active torsions:
REMARK  status: ('A' for Active; 'I' for Inactive)
REMARK    1  A    between atoms: O_1  and  C_7
REMARK    2  A    between atoms: C_2  and  C_3
REMARK    3  A    between atoms: C_2  and  C_4
REMARK    4  A    between atoms: C_3  and  C_5
REMARK    5  A    between atoms: C_4  and  C_6
REMARK    6  A    between atoms: C_5  and  C_7
REMARK    7  A    between atoms: C_6  and  C_8
REMARK    8  A    between atoms: C_7  and  C_9
REMARK    9  A    between atoms: C_8  and  C_10
REMARK                            x       y       z     vdW  Elec       q    Type
REMARK                         _______ _______ _______ _____ _____    ______ ____
ROOT
ATOM      1  C   UNL     1      14.720   4.319  -0.019  0.00  0.00    +0.000 C 
ATOM      2  H   UNL     1      15.051   4.418   1.022  0.00  0.00    +0.000 HD
ATOM      3  H   UNL     1      14.628   3.246  -0.229  0.00  0.00    +0.000 HD
ENDROOT
BRANCH   1   4
ATOM      4  C   UNL     1      13.360   4.996  -0.197  0.00  0.00    +0.000 C 
ATOM      5  H   UNL     1      12.579   4.233  -0.310  0.00  0.00    +0.000 HD
ATOM      6  H   UNL     1      13.372   5.585  -1.123  0.00  0.00    +0.000 HD
BRANCH   4   7
ATOM      7  C   UNL     1      13.026   5.897   0.996  0.00  0.00    +0.000 C 
ATOM      8  H   UNL     1      12.139   5.512   1.514  0.00  0.00    +0.000 HD
ATOM      9  H   UNL     1      13.864   5.858   1.704  0.00  0.00    +0.000 HD
BRANCH   7  10
ATOM     10  C   UNL     1      12.788   7.350   0.574  0.00  0.00    +0.000 C 
ATOM     11  H   UNL     1      12.018   7.800   1.212  0.00  0.00    +0.000 HD
BRANCH  10  12
ATOM     12  C   UNL     1      14.070   8.166   0.658  0.00  0.00    +0.000 C 
ATOM     13  H   UNL     1      14.812   7.677   1.296  0.00  0.00    +0.000 HD
ATOM     14  H   UNL     1      14.505   8.316  -0.337  0.00  0.00    +0.000 HD
ATOM     15  H   UNL     1      13.863   9.163   1.062  0.00  0.00    +0.000 HD
ENDBRANCH  10  12
BRANCH  10  16
ATOM     16  O   UNL     1      12.313   7.374  -0.770  0.00  0.00    +0.000 OA
ATOM     17  H   UNL     1      12.931   6.852  -1.309  0.00  0.00    +0.000 HD
ENDBRANCH  10  16
ENDBRANCH   7  10
ENDBRANCH   4   7
ENDBRANCH   1   4
BRANCH   1  18
ATOM     18  C   UNL     1      15.771   4.934  -0.947  0.00  0.00    +0.000 C 
ATOM     19  H   UNL     1      16.311   5.724  -0.412  0.00  0.00    +0.000 HD
ATOM     20  H   UNL     1      16.510   4.169  -1.214  0.00  0.00    +0.000 HD
BRANCH  18  21
ATOM     21  C   UNL     1      15.179   5.522  -2.232  0.00  0.00    +0.000 C 
ATOM     22  H   UNL     1      14.085   5.495  -2.160  0.00  0.00    +0.000 HD
ATOM     23  H   UNL     1      15.450   4.868  -3.071  0.00  0.00    +0.000 HD
BRANCH  21  24
ATOM     24  C   UNL     1      15.613   6.951  -2.569  0.00  0.00    +0.000 C 
ATOM     25  H   UNL     1      15.774   7.508  -1.639  0.00  0.00    +0.000 HD
ATOM     26  H   UNL     1      16.576   6.921  -3.093  0.00  0.00    +0.000 HD
BRANCH  24  27
ATOM     27  C   UNL     1      14.610   7.704  -3.430  0.00  0.00    +0.000 C 
ATOM     28  H   UNL     1      15.083   8.042  -4.357  0.00  0.00    +0.000 HD
ATOM     29  H   UNL     1      14.227   8.583  -2.903  0.00  0.00    +0.000 HD
ATOM     30  H   UNL     1      13.762   7.064  -3.692  0.00  0.00    +0.000 HD
ENDBRANCH  24  27
ENDBRANCH  21  24
ENDBRANCH  18  21
ENDBRANCH   1  18
TORSDOF 9
ENDMDL
MODEL 5
REMARK VINA RESULT:    -3.883     11.074     12.221
REMARK INTER + INTRA:          -6.290
REMARK INTER:                  -5.918
REMARK INTRA:                  -0.373
REMARK UNBOUND:                -0.706
REMARK  Name = 12367
REMARK  9 active torsions:
REMARK  status: ('A' for Active; 'I' for Inactive)
REMARK    1  A    between atoms: O_1  and  C_7
REMARK    2  A    between atoms: C_2  and  C_3
REMARK    3  A    between atoms: C_2  and  C_4
REMARK    4  A    between atoms: C_3  and  C_5
REMARK    5  A    between atoms: C_4  and  C_6
REMARK    6  A    between atoms: C_5  and  C_7
REMARK    7  A    between atoms: C_6  and  C_8
REMARK    8  A    between atoms: C_7  and  C_9
REMARK    9  A    between atoms: C_8  and  C_10
REMARK                            x       y       z     vdW  Elec       q    Type
REMARK                         _______ _______ _______ _____ _____    ______ ____
ROOT
ATOM      1  C   UNL     1      17.179  -4.809  -3.130  0.00  0.00    +0.000 C 
ATOM      2  H   UNL     1      17.974  -4.513  -2.436  0.00  0.00    +0.000 HD
ATOM      3  H   UNL     1      17.130  -4.041  -3.912  0.00  0.00    +0.000 HD
ENDROOT
BRANCH   1   4
ATOM      4  C   UNL     1      17.516  -6.162  -3.760  0.00  0.00    +0.000 C 
ATOM      5  H   UNL     1      16.680  -6.498  -4.386  0.00  0.00    +0.000 HD
ATOM      6  H   UNL     1      17.642  -6.905  -2.963  0.00  0.00    +0.000 HD
BRANCH   4   7
ATOM      7  C   UNL     1      18.789  -6.079  -4.608  0.00  0.00    +0.000 C 
ATOM      8  H   UNL     1      18.985  -7.051  -5.077  0.00  0.00    +0.000 HD
ATOM      9  H   UNL     1      18.622  -5.353  -5.413  0.00  0.00    +0.000 HD
BRANCH   7  10
ATOM     10  C   UNL     1      20.006  -5.648  -3.784  0.00  0.00    +0.000 C 
ATOM     11  H   UNL     1      19.675  -5.216  -2.832  0.00  0.00    +0.000 HD
BRANCH  10  12
ATOM     12  C   UNL     1      20.938  -6.823  -3.521  0.00  0.00    +0.000 C 
ATOM     13  H   UNL     1      21.868  -6.494  -3.046  0.00  0.00    +0.000 HD
ATOM     14  H   UNL     1      20.458  -7.568  -2.876  0.00  0.00    +0.000 HD
ATOM     15  H   UNL     1      21.187  -7.332  -4.458  0.00  0.00    +0.000 HD
ENDBRANCH  10  12
BRANCH  10  16
ATOM     16  O   UNL     1      20.722  -4.643  -4.498  0.00  0.00    +0.000 OA
ATOM     17  H   UNL     1      21.533  -4.451  -3.999  0.00  0.00    +0.000 HD
ENDBRANCH  10  16
ENDBRANCH   7  10
ENDBRANCH   4   7
ENDBRANCH   1   4
BRANCH   1  18
ATOM     18  C   UNL     1      15.845  -4.863  -2.382  0.00  0.00    +0.000 C 
ATOM     19  H   UNL     1      15.939  -4.326  -1.431  0.00  0.00    +0.000 HD
ATOM     20  H   UNL     1      15.080  -4.340  -2.967  0.00  0.00    +0.000 HD
BRANCH  18  21
ATOM     21  C   UNL     1      15.364  -6.289  -2.097  0.00  0.00    +0.000 C 
ATOM     22  H   UNL     1      15.974  -6.990  -2.682  0.00  0.00    +0.000 HD
ATOM     23  H   UNL     1      14.336  -6.391  -2.470  0.00  0.00    +0.000 HD
BRANCH  21  24
ATOM     24  C   UNL     1      15.393  -6.721  -0.629  0.00  0.00    +0.000 C 
ATOM     25  H   UNL     1      14.405  -7.106  -0.347  0.00  0.00    +0.000 HD
ATOM     26  H   UNL     1      16.101  -7.550  -0.511  0.00  0.00    +0.000 HD
BRANCH  24  27
ATOM     27  C   UNL     1      15.781  -5.604   0.326  0.00  0.00    +0.000 C 
ATOM     28  H   UNL     1      16.718  -5.138   0.006  0.00  0.00    +0.000 HD
ATOM     29  H   UNL     1      15.921  -5.990   1.341  0.00  0.00    +0.000 HD
ATOM     30  H   UNL     1      15.007  -4.831   0.357  0.00  0.00    +0.000 HD
ENDBRANCH  24  27
ENDBRANCH  21  24
ENDBRANCH  18  21
ENDBRANCH   1  18
TORSDOF 9
ENDMDL
MODEL 6
REMARK VINA RESULT:    -3.863     11.097     12.758
REMARK INTER + INTRA:          -6.262
REMARK INTER:                  -5.837
REMARK INTRA:                  -0.425
REMARK UNBOUND:                -0.706
REMARK  Name = 12367
REMARK  9 active torsions:
REMARK  status: ('A' for Active; 'I' for Inactive)
REMARK    1  A    between atoms: O_1  and  C_7
REMARK    2  A    between atoms: C_2  and  C_3
REMARK    3  A    between atoms: C_2  and  C_4
REMARK    4  A    between atoms: C_3  and  C_5
REMARK    5  A    between atoms: C_4  and  C_6
REMARK    6  A    between atoms: C_5  and  C_7
REMARK    7  A    between atoms: C_6  and  C_8
REMARK    8  A    between atoms: C_7  and  C_9
REMARK    9  A    between atoms: C_8  and  C_10
REMARK                            x       y       z     vdW  Elec       q    Type
REMARK                         _______ _______ _______ _____ _____    ______ ____
ROOT
ATOM      1  C   UNL     1      17.146  -4.905  -3.080  0.00  0.00    +0.000 C 
ATOM      2  H   UNL     1      17.237  -3.986  -3.672  0.00  0.00    +0.000 HD
ATOM      3  H   UNL     1      17.938  -4.882  -2.322  0.00  0.00    +0.000 HD
ENDROOT
BRANCH   1   4
ATOM      4  C   UNL     1      15.779  -4.944  -2.393  0.00  0.00    +0.000 C 
ATOM      5  H   UNL     1      15.012  -4.548  -3.071  0.00  0.00    +0.000 HD
ATOM      6  H   UNL     1      15.803  -4.288  -1.514  0.00  0.00    +0.000 HD
BRANCH   4   7
ATOM      7  C   UNL     1      15.406  -6.370  -1.976  0.00  0.00    +0.000 C 
ATOM      8  H   UNL     1      14.386  -6.598  -2.310  0.00  0.00    +0.000 HD
ATOM      9  H   UNL     1      16.083  -7.068  -2.485  0.00  0.00    +0.000 HD
BRANCH   7  10
ATOM     10  C   UNL     1      15.512  -6.576  -0.462  0.00  0.00    +0.000 C 
ATOM     11  H   UNL     1      14.638  -7.131  -0.101  0.00  0.00    +0.000 HD
BRANCH  10  12
ATOM     12  C   UNL     1      16.786  -7.325  -0.096  0.00  0.00    +0.000 C 
ATOM     13  H   UNL     1      16.560  -8.286   0.378  0.00  0.00    +0.000 HD
ATOM     14  H   UNL     1      17.404  -7.506  -0.983  0.00  0.00    +0.000 HD
ATOM     15  H   UNL     1      17.395  -6.731   0.594  0.00  0.00    +0.000 HD
ENDBRANCH  10  12
BRANCH  10  16
ATOM     16  O   UNL     1      15.523  -5.306   0.183  0.00  0.00    +0.000 OA
ATOM     17  H   UNL     1      14.836  -5.319   0.870  0.00  0.00    +0.000 HD
ENDBRANCH  10  16
ENDBRANCH   7  10
ENDBRANCH   4   7
ENDBRANCH   1   4
BRANCH   1  18
ATOM     18  C   UNL     1      17.342  -6.119  -3.991  0.00  0.00    +0.000 C 
ATOM     19  H   UNL     1      16.881  -6.999  -3.529  0.00  0.00    +0.000 HD
ATOM     20  H   UNL     1      16.819  -5.948  -4.939  0.00  0.00    +0.000 HD
BRANCH  18  21
ATOM     21  C   UNL     1      18.814  -6.428  -4.284  0.00  0.00    +0.000 C 
ATOM     22  H   UNL     1      18.901  -6.769  -5.324  0.00  0.00    +0.000 HD
ATOM     23  H   UNL     1      19.124  -7.273  -3.656  0.00  0.00    +0.000 HD
BRANCH  21  24
ATOM     24  C   UNL     1      19.793  -5.273  -4.064  0.00  0.00    +0.000 C 
ATOM     25  H   UNL     1      19.388  -4.364  -4.526  0.00  0.00    +0.000 HD
ATOM     26  H   UNL     1      19.877  -5.072  -2.989  0.00  0.00    +0.000 HD
BRANCH  24  27
ATOM     27  C   UNL     1      21.182  -5.537  -4.624  0.00  0.00    +0.000 C 
ATOM     28  H   UNL     1      21.273  -6.580  -4.940  0.00  0.00    +0.000 HD
ATOM     29  H   UNL     1      21.950  -5.341  -3.868  0.00  0.00    +0.000 HD
ATOM     30  H   UNL     1      21.382  -4.897  -5.489  0.00  0.00    +0.000 HD
ENDBRANCH  24  27
ENDBRANCH  21  24
ENDBRANCH  18  21
ENDBRANCH   1  18
TORSDOF 9
ENDMDL
MODEL 7
REMARK VINA RESULT:    -3.814     29.814     31.977
REMARK INTER + INTRA:          -6.192
REMARK INTER:                  -5.799
REMARK INTRA:                  -0.393
REMARK UNBOUND:                -0.706
REMARK  Name = 12367
REMARK  9 active torsions:
REMARK  status: ('A' for Active; 'I' for Inactive)
REMARK    1  A    between atoms: O_1  and  C_7
REMARK    2  A    between atoms: C_2  and  C_3
REMARK    3  A    between atoms: C_2  and  C_4
REMARK    4  A    between atoms: C_3  and  C_5
REMARK    5  A    between atoms: C_4  and  C_6
REMARK    6  A    between atoms: C_5  and  C_7
REMARK    7  A    between atoms: C_6  and  C_8
REMARK    8  A    between atoms: C_7  and  C_9
REMARK    9  A    between atoms: C_8  and  C_10
REMARK                            x       y       z     vdW  Elec       q    Type
REMARK                         _______ _______ _______ _____ _____    ______ ____
ROOT
ATOM      1  C   UNL     1      -7.770 -13.447   6.634  0.00  0.00    +0.000 C 
ATOM      2  H   UNL     1      -8.349 -12.789   7.293  0.00  0.00    +0.000 HD
ATOM      3  H   UNL     1      -6.709 -13.245   6.827  0.00  0.00    +0.000 HD
ENDROOT
BRANCH   1   4
ATOM      4  C   UNL     1      -8.082 -14.910   6.960  0.00  0.00    +0.000 C 
ATOM      5  H   UNL     1      -8.649 -14.968   7.898  0.00  0.00    +0.000 HD
ATOM      6  H   UNL     1      -7.140 -15.449   7.117  0.00  0.00    +0.000 HD
BRANCH   4   7
ATOM      7  C   UNL     1      -8.885 -15.571   5.835  0.00  0.00    +0.000 C 
ATOM      8  H   UNL     1      -9.819 -15.019   5.673  0.00  0.00    +0.000 HD
ATOM      9  H   UNL     1      -8.300 -15.507   4.908  0.00  0.00    +0.000 HD
BRANCH   7  10
ATOM     10  C   UNL     1      -9.198 -17.040   6.135  0.00  0.00    +0.000 C 
ATOM     11  H   UNL     1      -8.632 -17.686   5.454  0.00  0.00    +0.000 HD
BRANCH  10  12
ATOM     12  C   UNL     1      -8.863 -17.392   7.578  0.00  0.00    +0.000 C 
ATOM     13  H   UNL     1      -9.620 -18.052   8.012  0.00  0.00    +0.000 HD
ATOM     14  H   UNL     1      -7.886 -17.885   7.644  0.00  0.00    +0.000 HD
ATOM     15  H   UNL     1      -8.799 -16.485   8.189  0.00  0.00    +0.000 HD
ENDBRANCH  10  12
BRANCH  10  16
ATOM     16  O   UNL     1     -10.586 -17.276   5.914  0.00  0.00    +0.000 OA
ATOM     17  H   UNL     1     -10.663 -17.898   5.170  0.00  0.00    +0.000 HD
ENDBRANCH  10  16
ENDBRANCH   7  10
ENDBRANCH   4   7
ENDBRANCH   1   4
BRANCH   1  18
ATOM     18  C   UNL     1      -8.098 -13.122   5.175  0.00  0.00    +0.000 C 
ATOM     19  H   UNL     1      -8.587 -13.986   4.711  0.00  0.00    +0.000 HD
ATOM     20  H   UNL     1      -8.815 -12.294   5.141  0.00  0.00    +0.000 HD
BRANCH  18  21
ATOM     21  C   UNL     1      -6.867 -12.746   4.344  0.00  0.00    +0.000 C 
ATOM     22  H   UNL     1      -6.019 -12.585   5.022  0.00  0.00    +0.000 HD
ATOM     23  H   UNL     1      -7.058 -11.782   3.855  0.00  0.00    +0.000 HD
BRANCH  21  24
ATOM     24  C   UNL     1      -6.452 -13.759   3.274  0.00  0.00    +0.000 C 
ATOM     25  H   UNL     1      -5.404 -13.587   3.001  0.00  0.00    +0.000 HD
ATOM     26  H   UNL     1      -6.508 -14.771   3.695  0.00  0.00    +0.000 HD
BRANCH  24  27
ATOM     27  C   UNL     1      -7.307 -13.703   2.018  0.00  0.00    +0.000 C 
ATOM     28  H   UNL     1      -7.139 -14.593   1.403  0.00  0.00    +0.000 HD
ATOM     29  H   UNL     1      -7.058 -12.822   1.417  0.00  0.00    +0.000 HD
ATOM     30  H   UNL     1      -8.370 -13.656   2.271  0.00  0.00    +0.000 HD
ENDBRANCH  24  27
ENDBRANCH  21  24
ENDBRANCH  18  21
ENDBRANCH   1  18
TORSDOF 9
ENDMDL
MODEL 8
REMARK VINA RESULT:    -3.812     10.897     12.078
REMARK INTER + INTRA:          -6.189
REMARK INTER:                  -5.625
REMARK INTRA:                  -0.564
REMARK UNBOUND:                -0.706
REMARK  Name = 12367
REMARK  9 active torsions:
REMARK  status: ('A' for Active; 'I' for Inactive)
REMARK    1  A    between atoms: O_1  and  C_7
REMARK    2  A    between atoms: C_2  and  C_3
REMARK    3  A    between atoms: C_2  and  C_4
REMARK    4  A    between atoms: C_3  and  C_5
REMARK    5  A    between atoms: C_4  and  C_6
REMARK    6  A    between atoms: C_5  and  C_7
REMARK    7  A    between atoms: C_6  and  C_8
REMARK    8  A    between atoms: C_7  and  C_9
REMARK    9  A    between atoms: C_8  and  C_10
REMARK                            x       y       z     vdW  Elec       q    Type
REMARK                         _______ _______ _______ _____ _____    ______ ____
ROOT
ATOM      1  C   UNL     1      17.300  -4.465  -1.684  0.00  0.00    +0.000 C 
ATOM      2  H   UNL     1      17.783  -5.398  -1.371  0.00  0.00    +0.000 HD
ATOM      3  H   UNL     1      17.376  -3.763  -0.845  0.00  0.00    +0.000 HD
ENDROOT
BRANCH   1   4
ATOM      4  C   UNL     1      18.027  -3.890  -2.902  0.00  0.00    +0.000 C 
ATOM      5  H   UNL     1      18.384  -2.877  -2.676  0.00  0.00    +0.000 HD
ATOM      6  H   UNL     1      17.317  -3.804  -3.734  0.00  0.00    +0.000 HD
BRANCH   4   7
ATOM      7  C   UNL     1      19.213  -4.771  -3.310  0.00  0.00    +0.000 C 
ATOM      8  H   UNL     1      19.619  -4.424  -4.268  0.00  0.00    +0.000 HD
ATOM      9  H   UNL     1      20.003  -4.657  -2.557  0.00  0.00    +0.000 HD
BRANCH   7  10
ATOM     10  C   UNL     1      18.825  -6.248  -3.416  0.00  0.00    +0.000 C 
ATOM     11  H   UNL     1      18.236  -6.541  -2.539  0.00  0.00    +0.000 HD
BRANCH  10  12
ATOM     12  C   UNL     1      18.031  -6.520  -4.686  0.00  0.00    +0.000 C 
ATOM     13  H   UNL     1      18.215  -5.751  -5.443  0.00  0.00    +0.000 HD
ATOM     14  H   UNL     1      18.289  -7.498  -5.108  0.00  0.00    +0.000 HD
ATOM     15  H   UNL     1      16.958  -6.547  -4.469  0.00  0.00    +0.000 HD
ENDBRANCH  10  12
BRANCH  10  16
ATOM     16  O   UNL     1      20.009  -7.041  -3.435  0.00  0.00    +0.000 OA
ATOM     17  H   UNL     1      19.742  -7.963  -3.592  0.00  0.00    +0.000 HD
ENDBRANCH  10  16
ENDBRANCH   7  10
ENDBRANCH   4   7
ENDBRANCH   1   4
BRANCH   1  18
ATOM     18  C   UNL     1      15.826  -4.734  -1.995  0.00  0.00    +0.000 C 
ATOM     19  H   UNL     1      15.198  -4.125  -1.335  0.00  0.00    +0.000 HD
ATOM     20  H   UNL     1      15.609  -4.416  -3.022  0.00  0.00    +0.000 HD
BRANCH  18  21
ATOM     21  C   UNL     1      15.429  -6.205  -1.837  0.00  0.00    +0.000 C 
ATOM     22  H   UNL     1      15.632  -6.728  -2.780  0.00  0.00    +0.000 HD
ATOM     23  H   UNL     1      14.343  -6.258  -1.683  0.00  0.00    +0.000 HD
BRANCH  21  24
ATOM     24  C   UNL     1      16.119  -6.961  -0.699  0.00  0.00    +0.000 C 
ATOM     25  H   UNL     1      16.169  -8.028  -0.954  0.00  0.00    +0.000 HD
ATOM     26  H   UNL     1      17.153  -6.608  -0.606  0.00  0.00    +0.000 HD
BRANCH  24  27
ATOM     27  C   UNL     1      15.424  -6.806   0.645  0.00  0.00    +0.000 C 
ATOM     28  H   UNL     1      14.695  -5.991   0.604  0.00  0.00    +0.000 HD
ATOM     29  H   UNL     1      16.149  -6.576   1.433  0.00  0.00    +0.000 HD
ATOM     30  H   UNL     1      14.897  -7.724   0.920  0.00  0.00    +0.000 HD
ENDBRANCH  24  27
ENDBRANCH  21  24
ENDBRANCH  18  21
ENDBRANCH   1  18
TORSDOF 9
ENDMDL
MODEL 9
REMARK VINA RESULT:    -3.767     28.166     30.072
REMARK INTER + INTRA:          -6.123
REMARK INTER:                  -5.663
REMARK INTRA:                  -0.461
REMARK UNBOUND:                -0.706
REMARK  Name = 12367
REMARK  9 active torsions:
REMARK  status: ('A' for Active; 'I' for Inactive)
REMARK    1  A    between atoms: O_1  and  C_7
REMARK    2  A    between atoms: C_2  and  C_3
REMARK    3  A    between atoms: C_2  and  C_4
REMARK    4  A    between atoms: C_3  and  C_5
REMARK    5  A    between atoms: C_4  and  C_6
REMARK    6  A    between atoms: C_5  and  C_7
REMARK    7  A    between atoms: C_6  and  C_8
REMARK    8  A    between atoms: C_7  and  C_9
REMARK    9  A    between atoms: C_8  and  C_10
REMARK                            x       y       z     vdW  Elec       q    Type
REMARK                         _______ _______ _______ _____ _____    ______ ____
ROOT
ATOM      1  C   UNL     1      -5.902 -13.418   4.720  0.00  0.00    +0.000 C 
ATOM      2  H   UNL     1      -5.767 -14.500   4.839  0.00  0.00    +0.000 HD
ATOM      3  H   UNL     1      -5.279 -12.930   5.479  0.00  0.00    +0.000 HD
ENDROOT
BRANCH   1   4
ATOM      4  C   UNL     1      -5.444 -12.989   3.325  0.00  0.00    +0.000 C 
ATOM      5  H   UNL     1      -4.533 -12.382   3.405  0.00  0.00    +0.000 HD
ATOM      6  H   UNL     1      -6.216 -12.355   2.875  0.00  0.00    +0.000 HD
BRANCH   4   7
ATOM      7  C   UNL     1      -5.173 -14.203   2.430  0.00  0.00    +0.000 C 
ATOM      8  H   UNL     1      -4.308 -14.002   1.785  0.00  0.00    +0.000 HD
ATOM      9  H   UNL     1      -4.913 -15.055   3.072  0.00  0.00    +0.000 HD
BRANCH   7  10
ATOM     10  C   UNL     1      -6.385 -14.569   1.570  0.00  0.00    +0.000 C 
ATOM     11  H   UNL     1      -6.051 -14.909   0.583  0.00  0.00    +0.000 HD
BRANCH  10  12
ATOM     12  C   UNL     1      -7.224 -15.654   2.231  0.00  0.00    +0.000 C 
ATOM     13  H   UNL     1      -7.693 -15.289   3.151  0.00  0.00    +0.000 HD
ATOM     14  H   UNL     1      -8.008 -16.011   1.554  0.00  0.00    +0.000 HD
ATOM     15  H   UNL     1      -6.603 -16.522   2.477  0.00  0.00    +0.000 HD
ENDBRANCH  10  12
BRANCH  10  16
ATOM     16  O   UNL     1      -7.194 -13.410   1.385  0.00  0.00    +0.000 OA
ATOM     17  H   UNL     1      -8.122 -13.700   1.370  0.00  0.00    +0.000 HD
ENDBRANCH  10  16
ENDBRANCH   7  10
ENDBRANCH   4   7
ENDBRANCH   1   4
BRANCH   1  18
ATOM     18  C   UNL     1      -7.371 -13.060   4.955  0.00  0.00    +0.000 C 
ATOM     19  H   UNL     1      -7.466 -11.976   5.081  0.00  0.00    +0.000 HD
ATOM     20  H   UNL     1      -7.956 -13.329   4.068  0.00  0.00    +0.000 HD
BRANCH  18  21
ATOM     21  C   UNL     1      -7.979 -13.754   6.179  0.00  0.00    +0.000 C 
ATOM     22  H   UNL     1      -8.746 -13.098   6.610  0.00  0.00    +0.000 HD
ATOM     23  H   UNL     1      -7.198 -13.859   6.943  0.00  0.00    +0.000 HD
BRANCH  21  24
ATOM     24  C   UNL     1      -8.598 -15.130   5.923  0.00  0.00    +0.000 C 
ATOM     25  H   UNL     1      -9.661 -15.008   5.677  0.00  0.00    +0.000 HD
ATOM     26  H   UNL     1      -8.120 -15.584   5.047  0.00  0.00    +0.000 HD
BRANCH  24  27
ATOM     27  C   UNL     1      -8.470 -16.084   7.101  0.00  0.00    +0.000 C 
ATOM     28  H   UNL     1      -9.185 -16.906   7.004  0.00  0.00    +0.000 HD
ATOM     29  H   UNL     1      -8.669 -15.567   8.045  0.00  0.00    +0.000 HD
ATOM     30  H   UNL     1      -7.463 -16.510   7.149  0.00  0.00    +0.000 HD
ENDBRANCH  24  27
ENDBRANCH  21  24
ENDBRANCH  18  21
ENDBRANCH   1  18
TORSDOF 9
ENDMDL
MODEL 10
REMARK VINA RESULT:    -3.684     23.299     24.746
REMARK INTER + INTRA:          -6.004
REMARK INTER:                  -5.299
REMARK INTRA:                  -0.706
REMARK UNBOUND:                -0.706
REMARK  Name = 12367
REMARK  9 active torsions:
REMARK  status: ('A' for Active; 'I' for Inactive)
REMARK    1  A    between atoms: O_1  and  C_7
REMARK    2  A    between atoms: C_2  and  C_3
REMARK    3  A    between atoms: C_2  and  C_4
REMARK    4  A    between atoms: C_3  and  C_5
REMARK    5  A    between atoms: C_4  and  C_6
REMARK    6  A    between atoms: C_5  and  C_7
REMARK    7  A    between atoms: C_6  and  C_8
REMARK    8  A    between atoms: C_7  and  C_9
REMARK    9  A    between atoms: C_8  and  C_10
REMARK                            x       y       z     vdW  Elec       q    Type
REMARK                         _______ _______ _______ _____ _____    ______ ____
ROOT
ATOM      1  C   UNL     1       0.822   4.308 -19.848  0.00  0.00    +0.000 C 
ATOM      2  H   UNL     1       0.218   5.043 -20.395  0.00  0.00    +0.000 HD
ATOM      3  H   UNL     1       0.804   4.598 -18.790  0.00  0.00    +0.000 HD
ENDROOT
BRANCH   1   4
ATOM      4  C   UNL     1       0.212   2.914 -20.009  0.00  0.00    +0.000 C 
ATOM      5  H   UNL     1      -0.036   2.503 -19.022  0.00  0.00    +0.000 HD
ATOM      6  H   UNL     1       0.958   2.248 -20.459  0.00  0.00    +0.000 HD
BRANCH   4   7
ATOM      7  C   UNL     1      -1.049   2.955 -20.878  0.00  0.00    +0.000 C 
ATOM      8  H   UNL     1      -1.933   2.761 -20.258  0.00  0.00    +0.000 HD
ATOM      9  H   UNL     1      -1.152   3.967 -21.290  0.00  0.00    +0.000 HD
BRANCH   7  10
ATOM     10  C   UNL     1      -0.992   1.945 -22.027  0.00  0.00    +0.000 C 
ATOM     11  H   UNL     1      -1.953   1.422 -22.109  0.00  0.00    +0.000 HD
BRANCH  10  12
ATOM     12  C   UNL     1      -0.662   2.628 -23.347  0.00  0.00    +0.000 C 
ATOM     13  H   UNL     1      -0.429   1.895 -24.126  0.00  0.00    +0.000 HD
ATOM     14  H   UNL     1      -1.498   3.250 -23.687  0.00  0.00    +0.000 HD
ATOM     15  H   UNL     1       0.198   3.296 -23.228  0.00  0.00    +0.000 HD
ENDBRANCH  10  12
BRANCH  10  16
ATOM     16  O   UNL     1       0.013   0.974 -21.747  0.00  0.00    +0.000 OA
ATOM     17  H   UNL     1       0.546   1.310 -21.006  0.00  0.00    +0.000 HD
ENDBRANCH  10  16
ENDBRANCH   7  10
ENDBRANCH   4   7
ENDBRANCH   1   4
BRANCH   1  18
ATOM     18  C   UNL     1       2.261   4.346 -20.366  0.00  0.00    +0.000 C 
ATOM     19  H   UNL     1       2.324   5.035 -21.217  0.00  0.00    +0.000 HD
ATOM     20  H   UNL     1       2.917   4.748 -19.584  0.00  0.00    +0.000 HD
BRANCH  18  21
ATOM     21  C   UNL     1       2.789   2.975 -20.801  0.00  0.00    +0.000 C 
ATOM     22  H   UNL     1       1.962   2.255 -20.773  0.00  0.00    +0.000 HD
ATOM     23  H   UNL     1       3.521   2.633 -20.058  0.00  0.00    +0.000 HD
BRANCH  21  24
ATOM     24  C   UNL     1       3.439   2.921 -22.185  0.00  0.00    +0.000 C 
ATOM     25  H   UNL     1       4.495   3.205 -22.099  0.00  0.00    +0.000 HD
ATOM     26  H   UNL     1       3.417   1.888 -22.553  0.00  0.00    +0.000 HD
BRANCH  24  27
ATOM     27  C   UNL     1       2.766   3.821 -23.210  0.00  0.00    +0.000 C 
ATOM     28  H   UNL     1       3.412   4.671 -23.452  0.00  0.00    +0.000 HD
ATOM     29  H   UNL     1       1.819   4.212 -22.823  0.00  0.00    +0.000 HD
ATOM     30  H   UNL     1       2.560   3.273 -24.134  0.00  0.00    +0.000 HD
ENDBRANCH  24  27
ENDBRANCH  21  24
ENDBRANCH  18  21
ENDBRANCH   1  18
TORSDOF 9
ENDMDL
