MODEL 1
REMARK VINA RESULT:    -4.447      0.000      0.000
REMARK INTER + INTRA:          -6.229
REMARK INTER:                  -5.807
REMARK INTRA:                  -0.422
REMARK UNBOUND:                -0.222
REMARK  Name = 8093
REMARK  7 active torsions:
REMARK  status: ('A' for Active; 'I' for Inactive)
REMARK    1  A    between atoms: C_2  and  C_3
REMARK    2  A    between atoms: C_2  and  C_4
REMARK    3  A    between atoms: C_3  and  C_5
REMARK    4  A    between atoms: C_4  and  C_6
REMARK    5  A    between atoms: C_5  and  C_7
REMARK    6  A    between atoms: C_6  and  C_8
REMARK    7  A    between atoms: C_8  and  C_9
REMARK                            x       y       z     vdW  Elec       q    Type
REMARK                         _______ _______ _______ _____ _____    ______ ____
ROOT
ATOM      1  C   UNL     1      18.390  -5.313  -2.153  0.00  0.00    +0.000 C 
ATOM      2  H   UNL     1      19.309  -4.991  -1.650  0.00  0.00    +0.000 HD
ATOM      3  H   UNL     1      18.239  -6.372  -1.909  0.00  0.00    +0.000 HD
ENDROOT
BRANCH   1   4
ATOM      4  C   UNL     1      18.547  -5.154  -3.668  0.00  0.00    +0.000 C 
ATOM      5  H   UNL     1      19.428  -4.536  -3.884  0.00  0.00    +0.000 HD
ATOM      6  H   UNL     1      17.675  -4.627  -4.074  0.00  0.00    +0.000 HD
BRANCH   4   7
ATOM      7  C   UNL     1      18.690  -6.511  -4.357  0.00  0.00    +0.000 C 
ATOM      8  H   UNL     1      18.756  -7.306  -3.604  0.00  0.00    +0.000 HD
ATOM      9  H   UNL     1      19.617  -6.538  -4.939  0.00  0.00    +0.000 HD
BRANCH   7  10
ATOM     10  C   UNL     1      17.513  -6.795  -5.277  0.00  0.00    +0.000 C 
ATOM     11  H   UNL     1      16.670  -6.136  -5.050  0.00  0.00    +0.000 HD
ATOM     12  H   UNL     1      17.176  -7.832  -5.175  0.00  0.00    +0.000 HD
ATOM     13  H   UNL     1      17.801  -6.633  -6.321  0.00  0.00    +0.000 HD
ENDBRANCH   7  10
ENDBRANCH   4   7
ENDBRANCH   1   4
BRANCH   1  14
ATOM     14  C   UNL     1      17.204  -4.496  -1.631  0.00  0.00    +0.000 C 
ATOM     15  H   UNL     1      17.087  -4.668  -0.554  0.00  0.00    +0.000 HD
ATOM     16  H   UNL     1      17.421  -3.427  -1.754  0.00  0.00    +0.000 HD
BRANCH  14  17
ATOM     17  C   UNL     1      15.901  -4.835  -2.346  0.00  0.00    +0.000 C 
ATOM     18  H   UNL     1      15.140  -4.082  -2.114  0.00  0.00    +0.000 HD
ATOM     19  H   UNL     1      16.064  -4.840  -3.430  0.00  0.00    +0.000 HD
BRANCH  17  21
ATOM     20  O   UNL     1      14.800  -6.921  -2.780  0.00  0.00    +0.000 OA
ATOM     21  C   UNL     1      15.342  -6.188  -1.951  0.00  0.00    +0.000 C 
BRANCH  21  22
ATOM     22  C   UNL     1      15.490  -6.610  -0.514  0.00  0.00    +0.000 C 
ATOM     23  H   UNL     1      16.052  -7.546  -0.459  0.00  0.00    +0.000 HD
ATOM     24  H   UNL     1      16.028  -5.839   0.040  0.00  0.00    +0.000 HD
ATOM     25  H   UNL     1      14.501  -6.768  -0.076  0.00  0.00    +0.000 HD
ENDBRANCH  21  22
ENDBRANCH  17  21
ENDBRANCH  14  17
ENDBRANCH   1  14
TORSDOF 7
ENDMDL
MODEL 2
REMARK VINA RESULT:    -4.234      2.623      4.659
REMARK INTER + INTRA:          -5.942
REMARK INTER:                  -5.636
REMARK INTRA:                  -0.306
REMARK UNBOUND:                -0.222
REMARK  Name = 8093
REMARK  7 active torsions:
REMARK  status: ('A' for Active; 'I' for Inactive)
REMARK    1  A    between atoms: C_2  and  C_3
REMARK    2  A    between atoms: C_2  and  C_4
REMARK    3  A    between atoms: C_3  and  C_5
REMARK    4  A    between atoms: C_4  and  C_6
REMARK    5  A    between atoms: C_5  and  C_7
REMARK    6  A    between atoms: C_6  and  C_8
REMARK    7  A    between atoms: C_8  and  C_9
REMARK                            x       y       z     vdW  Elec       q    Type
REMARK                         _______ _______ _______ _____ _____    ______ ____
ROOT
ATOM      1  C   UNL     1      16.844  -6.188  -3.306  0.00  0.00    +0.000 C 
ATOM      2  H   UNL     1      15.990  -6.796  -3.628  0.00  0.00    +0.000 HD
ATOM      3  H   UNL     1      17.319  -6.713  -2.468  0.00  0.00    +0.000 HD
ENDROOT
BRANCH   1   4
ATOM      4  C   UNL     1      16.352  -4.816  -2.836  0.00  0.00    +0.000 C 
ATOM      5  H   UNL     1      15.619  -4.422  -3.552  0.00  0.00    +0.000 HD
ATOM      6  H   UNL     1      17.194  -4.112  -2.816  0.00  0.00    +0.000 HD
BRANCH   4   7
ATOM      7  C   UNL     1      15.721  -4.897  -1.446  0.00  0.00    +0.000 C 
ATOM      8  H   UNL     1      14.760  -4.370  -1.442  0.00  0.00    +0.000 HD
ATOM      9  H   UNL     1      16.367  -4.399  -0.715  0.00  0.00    +0.000 HD
BRANCH   7  10
ATOM     10  C   UNL     1      15.500  -6.339  -1.019  0.00  0.00    +0.000 C 
ATOM     11  H   UNL     1      14.723  -6.406  -0.251  0.00  0.00    +0.000 HD
ATOM     12  H   UNL     1      16.420  -6.775  -0.615  0.00  0.00    +0.000 HD
ATOM     13  H   UNL     1      15.186  -6.944  -1.875  0.00  0.00    +0.000 HD
ENDBRANCH   7  10
ENDBRANCH   4   7
ENDBRANCH   1   4
BRANCH   1  14
ATOM     14  C   UNL     1      17.844  -6.054  -4.457  0.00  0.00    +0.000 C 
ATOM     15  H   UNL     1      17.534  -6.697  -5.290  0.00  0.00    +0.000 HD
ATOM     16  H   UNL     1      17.823  -5.023  -4.835  0.00  0.00    +0.000 HD
BRANCH  14  17
ATOM     17  C   UNL     1      19.266  -6.412  -4.039  0.00  0.00    +0.000 C 
ATOM     18  H   UNL     1      19.286  -6.687  -2.979  0.00  0.00    +0.000 HD
ATOM     19  H   UNL     1      19.621  -7.267  -4.625  0.00  0.00    +0.000 HD
BRANCH  17  21
ATOM     20  O   UNL     1      21.319  -5.445  -4.815  0.00  0.00    +0.000 OA
ATOM     21  C   UNL     1      20.247  -5.272  -4.234  0.00  0.00    +0.000 C 
BRANCH  21  22
ATOM     22  C   UNL     1      19.854  -3.917  -3.709  0.00  0.00    +0.000 C 
ATOM     23  H   UNL     1      20.682  -3.489  -3.137  0.00  0.00    +0.000 HD
ATOM     24  H   UNL     1      19.620  -3.255  -4.545  0.00  0.00    +0.000 HD
ATOM     25  H   UNL     1      18.987  -4.017  -3.052  0.00  0.00    +0.000 HD
ENDBRANCH  21  22
ENDBRANCH  17  21
ENDBRANCH  14  17
ENDBRANCH   1  14
TORSDOF 7
ENDMDL
MODEL 3
REMARK VINA RESULT:    -4.069      1.776      2.397
REMARK INTER + INTRA:          -5.718
REMARK INTER:                  -5.358
REMARK INTRA:                  -0.360
REMARK UNBOUND:                -0.222
REMARK  Name = 8093
REMARK  7 active torsions:
REMARK  status: ('A' for Active; 'I' for Inactive)
REMARK    1  A    between atoms: C_2  and  C_3
REMARK    2  A    between atoms: C_2  and  C_4
REMARK    3  A    between atoms: C_3  and  C_5
REMARK    4  A    between atoms: C_4  and  C_6
REMARK    5  A    between atoms: C_5  and  C_7
REMARK    6  A    between atoms: C_6  and  C_8
REMARK    7  A    between atoms: C_8  and  C_9
REMARK                            x       y       z     vdW  Elec       q    Type
REMARK                         _______ _______ _______ _____ _____    ______ ____
ROOT
ATOM      1  C   UNL     1      15.856  -4.953  -2.626  0.00  0.00    +0.000 C 
ATOM      2  H   UNL     1      15.052  -4.564  -3.262  0.00  0.00    +0.000 HD
ATOM      3  H   UNL     1      15.941  -4.283  -1.763  0.00  0.00    +0.000 HD
ENDROOT
BRANCH   1   4
ATOM      4  C   UNL     1      17.175  -4.955  -3.404  0.00  0.00    +0.000 C 
ATOM      5  H   UNL     1      17.946  -4.435  -2.822  0.00  0.00    +0.000 HD
ATOM      6  H   UNL     1      17.048  -4.399  -4.342  0.00  0.00    +0.000 HD
BRANCH   4   7
ATOM      7  C   UNL     1      17.635  -6.379  -3.713  0.00  0.00    +0.000 C 
ATOM      8  H   UNL     1      16.990  -7.100  -3.198  0.00  0.00    +0.000 HD
ATOM      9  H   UNL     1      18.654  -6.530  -3.339  0.00  0.00    +0.000 HD
BRANCH   7  10
ATOM     10  C   UNL     1      17.604  -6.663  -5.207  0.00  0.00    +0.000 C 
ATOM     11  H   UNL     1      17.671  -5.736  -5.784  0.00  0.00    +0.000 HD
ATOM     12  H   UNL     1      16.679  -7.177  -5.489  0.00  0.00    +0.000 HD
ATOM     13  H   UNL     1      18.446  -7.302  -5.489  0.00  0.00    +0.000 HD
ENDBRANCH   7  10
ENDBRANCH   4   7
ENDBRANCH   1   4
BRANCH   1  14
ATOM     14  C   UNL     1      15.494  -6.361  -2.145  0.00  0.00    +0.000 C 
ATOM     15  H   UNL     1      14.510  -6.642  -2.539  0.00  0.00    +0.000 HD
ATOM     16  H   UNL     1      16.213  -7.080  -2.560  0.00  0.00    +0.000 HD
BRANCH  14  17
ATOM     17  C   UNL     1      15.485  -6.473  -0.624  0.00  0.00    +0.000 C 
ATOM     18  H   UNL     1      15.272  -5.496  -0.179  0.00  0.00    +0.000 HD
ATOM     19  H   UNL     1      14.704  -7.175  -0.309  0.00  0.00    +0.000 HD
BRANCH  17  21
ATOM     20  O   UNL     1      17.819  -6.261  -0.119  0.00  0.00    +0.000 OA
ATOM     21  C   UNL     1      16.805  -6.958  -0.058  0.00  0.00    +0.000 C 
BRANCH  21  22
ATOM     22  C   UNL     1      16.827  -8.312   0.599  0.00  0.00    +0.000 C 
ATOM     23  H   UNL     1      17.835  -8.530   0.962  0.00  0.00    +0.000 HD
ATOM     24  H   UNL     1      16.135  -8.319   1.444  0.00  0.00    +0.000 HD
ATOM     25  H   UNL     1      16.541  -9.075  -0.129  0.00  0.00    +0.000 HD
ENDBRANCH  21  22
ENDBRANCH  17  21
ENDBRANCH  14  17
ENDBRANCH   1  14
TORSDOF 7
ENDMDL
MODEL 4
REMARK VINA RESULT:    -4.054     25.225     26.406
REMARK INTER + INTRA:          -5.698
REMARK INTER:                  -5.480
REMARK INTRA:                  -0.219
REMARK UNBOUND:                -0.222
REMARK  Name = 8093
REMARK  7 active torsions:
REMARK  status: ('A' for Active; 'I' for Inactive)
REMARK    1  A    between atoms: C_2  and  C_3
REMARK    2  A    between atoms: C_2  and  C_4
REMARK    3  A    between atoms: C_3  and  C_5
REMARK    4  A    between atoms: C_4  and  C_6
REMARK    5  A    between atoms: C_5  and  C_7
REMARK    6  A    between atoms: C_6  and  C_8
REMARK    7  A    between atoms: C_8  and  C_9
REMARK                            x       y       z     vdW  Elec       q    Type
REMARK                         _______ _______ _______ _____ _____    ______ ____
ROOT
ATOM      1  C   UNL     1      -6.411 -13.141   4.425  0.00  0.00    +0.000 C 
ATOM      2  H   UNL     1      -5.906 -14.035   4.809  0.00  0.00    +0.000 HD
ATOM      3  H   UNL     1      -5.833 -12.272   4.763  0.00  0.00    +0.000 HD
ENDROOT
BRANCH   1   4
ATOM      4  C   UNL     1      -7.831 -13.065   4.993  0.00  0.00    +0.000 C 
ATOM      5  H   UNL     1      -8.496 -13.714   4.410  0.00  0.00    +0.000 HD
ATOM      6  H   UNL     1      -8.210 -12.040   4.894  0.00  0.00    +0.000 HD
BRANCH   4   7
ATOM      7  C   UNL     1      -7.864 -13.482   6.463  0.00  0.00    +0.000 C 
ATOM      8  H   UNL     1      -8.651 -12.929   6.989  0.00  0.00    +0.000 HD
ATOM      9  H   UNL     1      -6.912 -13.229   6.943  0.00  0.00    +0.000 HD
BRANCH   7  10
ATOM     10  C   UNL     1      -8.119 -14.973   6.613  0.00  0.00    +0.000 C 
ATOM     11  H   UNL     1      -9.166 -15.215   6.403  0.00  0.00    +0.000 HD
ATOM     12  H   UNL     1      -7.885 -15.311   7.628  0.00  0.00    +0.000 HD
ATOM     13  H   UNL     1      -7.493 -15.537   5.915  0.00  0.00    +0.000 HD
ENDBRANCH   7  10
ENDBRANCH   4   7
ENDBRANCH   1   4
BRANCH   1  14
ATOM     14  C   UNL     1      -6.427 -13.177   2.894  0.00  0.00    +0.000 C 
ATOM     15  H   UNL     1      -6.947 -12.289   2.512  0.00  0.00    +0.000 HD
ATOM     16  H   UNL     1      -5.396 -13.119   2.521  0.00  0.00    +0.000 HD
BRANCH  14  17
ATOM     17  C   UNL     1      -7.094 -14.434   2.347  0.00  0.00    +0.000 C 
ATOM     18  H   UNL     1      -6.610 -15.325   2.762  0.00  0.00    +0.000 HD
ATOM     19  H   UNL     1      -8.151 -14.448   2.636  0.00  0.00    +0.000 HD
BRANCH  17  21
ATOM     20  O   UNL     1      -6.885 -15.623   0.275  0.00  0.00    +0.000 OA
ATOM     21  C   UNL     1      -7.021 -14.535   0.836  0.00  0.00    +0.000 C 
BRANCH  21  22
ATOM     22  C   UNL     1      -7.138 -13.259   0.046  0.00  0.00    +0.000 C 
ATOM     23  H   UNL     1      -6.143 -12.850  -0.146  0.00  0.00    +0.000 HD
ATOM     24  H   UNL     1      -7.628 -13.465  -0.909  0.00  0.00    +0.000 HD
ATOM     25  H   UNL     1      -7.716 -12.528   0.616  0.00  0.00    +0.000 HD
ENDBRANCH  21  22
ENDBRANCH  17  21
ENDBRANCH  14  17
ENDBRANCH   1  14
TORSDOF 7
ENDMDL
MODEL 5
REMARK VINA RESULT:    -3.855      1.987      3.774
REMARK INTER + INTRA:          -5.430
REMARK INTER:                  -4.897
REMARK INTRA:                  -0.533
REMARK UNBOUND:                -0.222
REMARK  Name = 8093
REMARK  7 active torsions:
REMARK  status: ('A' for Active; 'I' for Inactive)
REMARK    1  A    between atoms: C_2  and  C_3
REMARK    2  A    between atoms: C_2  and  C_4
REMARK    3  A    between atoms: C_3  and  C_5
REMARK    4  A    between atoms: C_4  and  C_6
REMARK    5  A    between atoms: C_5  and  C_7
REMARK    6  A    between atoms: C_6  and  C_8
REMARK    7  A    between atoms: C_8  and  C_9
REMARK                            x       y       z     vdW  Elec       q    Type
REMARK                         _______ _______ _______ _____ _____    ______ ____
ROOT
ATOM      1  C   UNL     1      15.311  -6.661  -0.420  0.00  0.00    +0.000 C 
ATOM      2  H   UNL     1      14.513  -6.067   0.040  0.00  0.00    +0.000 HD
ATOM      3  H   UNL     1      15.045  -7.717  -0.291  0.00  0.00    +0.000 HD
ENDROOT
BRANCH   1   4
ATOM      4  C   UNL     1      16.639  -6.378   0.288  0.00  0.00    +0.000 C 
ATOM      5  H   UNL     1      16.474  -6.326   1.372  0.00  0.00    +0.000 HD
ATOM      6  H   UNL     1      17.021  -5.399  -0.028  0.00  0.00    +0.000 HD
BRANCH   4   7
ATOM      7  C   UNL     1      17.676  -7.457  -0.024  0.00  0.00    +0.000 C 
ATOM      8  H   UNL     1      17.274  -8.157  -0.765  0.00  0.00    +0.000 HD
ATOM      9  H   UNL     1      17.897  -8.033   0.881  0.00  0.00    +0.000 HD
BRANCH   7  10
ATOM     10  C   UNL     1      18.964  -6.852  -0.559  0.00  0.00    +0.000 C 
ATOM     11  H   UNL     1      18.792  -5.844  -0.950  0.00  0.00    +0.000 HD
ATOM     12  H   UNL     1      19.382  -7.466  -1.363  0.00  0.00    +0.000 HD
ATOM     13  H   UNL     1      19.711  -6.784   0.238  0.00  0.00    +0.000 HD
ENDBRANCH   7  10
ENDBRANCH   4   7
ENDBRANCH   1   4
BRANCH   1  14
ATOM     14  C   UNL     1      15.399  -6.336  -1.914  0.00  0.00    +0.000 C 
ATOM     15  H   UNL     1      16.141  -6.991  -2.388  0.00  0.00    +0.000 HD
ATOM     16  H   UNL     1      14.435  -6.562  -2.389  0.00  0.00    +0.000 HD
BRANCH  14  17
ATOM     17  C   UNL     1      15.764  -4.879  -2.174  0.00  0.00    +0.000 C 
ATOM     18  H   UNL     1      14.994  -4.405  -2.792  0.00  0.00    +0.000 HD
ATOM     19  H   UNL     1      15.826  -4.337  -1.223  0.00  0.00    +0.000 HD
BRANCH  17  21
ATOM     20  O   UNL     1      17.830  -3.762  -2.658  0.00  0.00    +0.000 OA
ATOM     21  C   UNL     1      17.090  -4.718  -2.891  0.00  0.00    +0.000 C 
BRANCH  21  22
ATOM     22  C   UNL     1      17.477  -5.780  -3.886  0.00  0.00    +0.000 C 
ATOM     23  H   UNL     1      16.650  -5.957  -4.578  0.00  0.00    +0.000 HD
ATOM     24  H   UNL     1      18.350  -5.447  -4.453  0.00  0.00    +0.000 HD
ATOM     25  H   UNL     1      17.701  -6.710  -3.359  0.00  0.00    +0.000 HD
ENDBRANCH  21  22
ENDBRANCH  17  21
ENDBRANCH  14  17
ENDBRANCH   1  14
TORSDOF 7
ENDMDL
MODEL 6
REMARK VINA RESULT:    -3.773     25.340     26.117
REMARK INTER + INTRA:          -5.319
REMARK INTER:                  -5.046
REMARK INTRA:                  -0.273
REMARK UNBOUND:                -0.222
REMARK  Name = 8093
REMARK  7 active torsions:
REMARK  status: ('A' for Active; 'I' for Inactive)
REMARK    1  A    between atoms: C_2  and  C_3
REMARK    2  A    between atoms: C_2  and  C_4
REMARK    3  A    between atoms: C_3  and  C_5
REMARK    4  A    between atoms: C_4  and  C_6
REMARK    5  A    between atoms: C_5  and  C_7
REMARK    6  A    between atoms: C_6  and  C_8
REMARK    7  A    between atoms: C_8  and  C_9
REMARK                            x       y       z     vdW  Elec       q    Type
REMARK                         _______ _______ _______ _____ _____    ______ ____
ROOT
ATOM      1  C   UNL     1      13.693  16.591 -11.470  0.00  0.00    +0.000 C 
ATOM      2  H   UNL     1      13.915  15.781 -10.766  0.00  0.00    +0.000 HD
ATOM      3  H   UNL     1      13.230  16.135 -12.354  0.00  0.00    +0.000 HD
ENDROOT
BRANCH   1   4
ATOM      4  C   UNL     1      14.992  17.292 -11.877  0.00  0.00    +0.000 C 
ATOM      5  H   UNL     1      14.762  18.143 -12.532  0.00  0.00    +0.000 HD
ATOM      6  H   UNL     1      15.617  16.600 -12.455  0.00  0.00    +0.000 HD
BRANCH   4   7
ATOM      7  C   UNL     1      15.767  17.780 -10.653  0.00  0.00    +0.000 C 
ATOM      8  H   UNL     1      16.714  17.234 -10.570  0.00  0.00    +0.000 HD
ATOM      9  H   UNL     1      15.192  17.575  -9.743  0.00  0.00    +0.000 HD
BRANCH   7  10
ATOM     10  C   UNL     1      16.057  19.270 -10.736  0.00  0.00    +0.000 C 
ATOM     11  H   UNL     1      15.294  19.849 -10.207  0.00  0.00    +0.000 HD
ATOM     12  H   UNL     1      16.085  19.608 -11.777  0.00  0.00    +0.000 HD
ATOM     13  H   UNL     1      17.028  19.493 -10.281  0.00  0.00    +0.000 HD
ENDBRANCH   7  10
ENDBRANCH   4   7
ENDBRANCH   1   4
BRANCH   1  14
ATOM     14  C   UNL     1      12.709  17.575 -10.831  0.00  0.00    +0.000 C 
ATOM     15  H   UNL     1      11.848  17.024 -10.431  0.00  0.00    +0.000 HD
ATOM     16  H   UNL     1      13.192  18.062  -9.974  0.00  0.00    +0.000 HD
BRANCH  14  17
ATOM     17  C   UNL     1      12.224  18.637 -11.811  0.00  0.00    +0.000 C 
ATOM     18  H   UNL     1      12.976  19.427 -11.908  0.00  0.00    +0.000 HD
ATOM     19  H   UNL     1      12.067  18.186 -12.798  0.00  0.00    +0.000 HD
BRANCH  17  21
ATOM     20  O   UNL     1       9.949  19.323 -12.135  0.00  0.00    +0.000 OA
ATOM     21  C   UNL     1      10.925  19.291 -11.383  0.00  0.00    +0.000 C 
BRANCH  21  22
ATOM     22  C   UNL     1      10.865  19.883 -10.001  0.00  0.00    +0.000 C 
ATOM     23  H   UNL     1      11.872  20.144  -9.666  0.00  0.00    +0.000 HD
ATOM     24  H   UNL     1      10.251  20.787 -10.017  0.00  0.00    +0.000 HD
ATOM     25  H   UNL     1      10.441  19.152  -9.309  0.00  0.00    +0.000 HD
ENDBRANCH  21  22
ENDBRANCH  17  21
ENDBRANCH  14  17
ENDBRANCH   1  14
TORSDOF 7
ENDMDL
MODEL 7
REMARK VINA RESULT:    -3.582     26.175     27.002
REMARK INTER + INTRA:          -5.061
REMARK INTER:                  -4.839
REMARK INTRA:                  -0.222
REMARK UNBOUND:                -0.222
REMARK  Name = 8093
REMARK  7 active torsions:
REMARK  status: ('A' for Active; 'I' for Inactive)
REMARK    1  A    between atoms: C_2  and  C_3
REMARK    2  A    between atoms: C_2  and  C_4
REMARK    3  A    between atoms: C_3  and  C_5
REMARK    4  A    between atoms: C_4  and  C_6
REMARK    5  A    between atoms: C_5  and  C_7
REMARK    6  A    between atoms: C_6  and  C_8
REMARK    7  A    between atoms: C_8  and  C_9
REMARK                            x       y       z     vdW  Elec       q    Type
REMARK                         _______ _______ _______ _____ _____    ______ ____
ROOT
ATOM      1  C   UNL     1      12.427  18.628 -11.932  0.00  0.00    +0.000 C 
ATOM      2  H   UNL     1      12.464  18.651 -13.028  0.00  0.00    +0.000 HD
ATOM      3  H   UNL     1      13.188  19.327 -11.566  0.00  0.00    +0.000 HD
ENDROOT
BRANCH   1   4
ATOM      4  C   UNL     1      12.747  17.216 -11.434  0.00  0.00    +0.000 C 
ATOM      5  H   UNL     1      12.151  16.484 -11.994  0.00  0.00    +0.000 HD
ATOM      6  H   UNL     1      12.461  17.126 -10.379  0.00  0.00    +0.000 HD
BRANCH   4   7
ATOM      7  C   UNL     1      14.234  16.896 -11.589  0.00  0.00    +0.000 C 
ATOM      8  H   UNL     1      14.579  17.202 -12.584  0.00  0.00    +0.000 HD
ATOM      9  H   UNL     1      14.392  15.815 -11.509  0.00  0.00    +0.000 HD
BRANCH   7  10
ATOM     10  C   UNL     1      15.069  17.603 -10.534  0.00  0.00    +0.000 C 
ATOM     11  H   UNL     1      14.920  18.687 -10.577  0.00  0.00    +0.000 HD
ATOM     12  H   UNL     1      16.135  17.397 -10.674  0.00  0.00    +0.000 HD
ATOM     13  H   UNL     1      14.785  17.260  -9.534  0.00  0.00    +0.000 HD
ENDBRANCH   7  10
ENDBRANCH   4   7
ENDBRANCH   1   4
BRANCH   1  14
ATOM     14  C   UNL     1      11.045  19.084 -11.455  0.00  0.00    +0.000 C 
ATOM     15  H   UNL     1      10.652  19.843 -12.142  0.00  0.00    +0.000 HD
ATOM     16  H   UNL     1      10.351  18.235 -11.497  0.00  0.00    +0.000 HD
BRANCH  14  17
ATOM     17  C   UNL     1      11.073  19.646 -10.038  0.00  0.00    +0.000 C 
ATOM     18  H   UNL     1      10.493  19.001  -9.369  0.00  0.00    +0.000 HD
ATOM     19  H   UNL     1      12.106  19.681  -9.674  0.00  0.00    +0.000 HD
BRANCH  17  21
ATOM     20  O   UNL     1       9.440  21.258  -9.342  0.00  0.00    +0.000 OA
ATOM     21  C   UNL     1      10.495  21.043  -9.942  0.00  0.00    +0.000 C 
BRANCH  21  22
ATOM     22  C   UNL     1      11.265  22.163 -10.591  0.00  0.00    +0.000 C 
ATOM     23  H   UNL     1      12.190  21.773 -11.022  0.00  0.00    +0.000 HD
ATOM     24  H   UNL     1      10.662  22.608 -11.385  0.00  0.00    +0.000 HD
ATOM     25  H   UNL     1      11.515  22.916  -9.840  0.00  0.00    +0.000 HD
ENDBRANCH  21  22
ENDBRANCH  17  21
ENDBRANCH  14  17
ENDBRANCH   1  14
TORSDOF 7
ENDMDL
MODEL 8
REMARK VINA RESULT:    -3.566     26.105     28.423
REMARK INTER + INTRA:          -5.039
REMARK INTER:                  -4.791
REMARK INTRA:                  -0.248
REMARK UNBOUND:                -0.222
REMARK  Name = 8093
REMARK  7 active torsions:
REMARK  status: ('A' for Active; 'I' for Inactive)
REMARK    1  A    between atoms: C_2  and  C_3
REMARK    2  A    between atoms: C_2  and  C_4
REMARK    3  A    between atoms: C_3  and  C_5
REMARK    4  A    between atoms: C_4  and  C_6
REMARK    5  A    between atoms: C_5  and  C_7
REMARK    6  A    between atoms: C_6  and  C_8
REMARK    7  A    between atoms: C_8  and  C_9
REMARK                            x       y       z     vdW  Elec       q    Type
REMARK                         _______ _______ _______ _____ _____    ______ ____
ROOT
ATOM      1  C   UNL     1      -9.012 -15.765   5.906  0.00  0.00    +0.000 C 
ATOM      2  H   UNL     1      -9.910 -15.153   5.758  0.00  0.00    +0.000 HD
ATOM      3  H   UNL     1      -8.554 -15.912   4.920  0.00  0.00    +0.000 HD
ENDROOT
BRANCH   1   4
ATOM      4  C   UNL     1      -9.404 -17.123   6.496  0.00  0.00    +0.000 C 
ATOM      5  H   UNL     1      -9.274 -17.905   5.738  0.00  0.00    +0.000 HD
ATOM      6  H   UNL     1     -10.466 -17.110   6.770  0.00  0.00    +0.000 HD
BRANCH   4   7
ATOM      7  C   UNL     1      -8.563 -17.456   7.728  0.00  0.00    +0.000 C 
ATOM      8  H   UNL     1      -8.373 -16.545   8.307  0.00  0.00    +0.000 HD
ATOM      9  H   UNL     1      -7.589 -17.852   7.418  0.00  0.00    +0.000 HD
BRANCH   7  10
ATOM     10  C   UNL     1      -9.257 -18.475   8.617  0.00  0.00    +0.000 C 
ATOM     11  H   UNL     1      -8.853 -19.479   8.454  0.00  0.00    +0.000 HD
ATOM     12  H   UNL     1     -10.334 -18.501   8.418  0.00  0.00    +0.000 HD
ATOM     13  H   UNL     1      -9.114 -18.218   9.672  0.00  0.00    +0.000 HD
ENDBRANCH   7  10
ENDBRANCH   4   7
ENDBRANCH   1   4
BRANCH   1  14
ATOM     14  C   UNL     1      -8.030 -15.026   6.819  0.00  0.00    +0.000 C 
ATOM     15  H   UNL     1      -8.363 -15.110   7.861  0.00  0.00    +0.000 HD
ATOM     16  H   UNL     1      -7.049 -15.516   6.765  0.00  0.00    +0.000 HD
BRANCH  14  17
ATOM     17  C   UNL     1      -7.883 -13.554   6.448  0.00  0.00    +0.000 C 
ATOM     18  H   UNL     1      -8.871 -13.104   6.304  0.00  0.00    +0.000 HD
ATOM     19  H   UNL     1      -7.372 -13.018   7.256  0.00  0.00    +0.000 HD
BRANCH  17  21
ATOM     20  O   UNL     1      -7.426 -12.484   4.351  0.00  0.00    +0.000 OA
ATOM     21  C   UNL     1      -7.093 -13.341   5.172  0.00  0.00    +0.000 C 
BRANCH  21  22
ATOM     22  C   UNL     1      -5.877 -14.200   4.952  0.00  0.00    +0.000 C 
ATOM     23  H   UNL     1      -5.003 -13.567   4.777  0.00  0.00    +0.000 HD
ATOM     24  H   UNL     1      -5.699 -14.815   5.837  0.00  0.00    +0.000 HD
ATOM     25  H   UNL     1      -6.033 -14.836   4.077  0.00  0.00    +0.000 HD
ENDBRANCH  21  22
ENDBRANCH  17  21
ENDBRANCH  14  17
ENDBRANCH   1  14
TORSDOF 7
ENDMDL
MODEL 9
REMARK VINA RESULT:    -3.515      2.758      3.966
REMARK INTER + INTRA:          -4.970
REMARK INTER:                  -4.485
REMARK INTRA:                  -0.485
REMARK UNBOUND:                -0.222
REMARK  Name = 8093
REMARK  7 active torsions:
REMARK  status: ('A' for Active; 'I' for Inactive)
REMARK    1  A    between atoms: C_2  and  C_3
REMARK    2  A    between atoms: C_2  and  C_4
REMARK    3  A    between atoms: C_3  and  C_5
REMARK    4  A    between atoms: C_4  and  C_6
REMARK    5  A    between atoms: C_5  and  C_7
REMARK    6  A    between atoms: C_6  and  C_8
REMARK    7  A    between atoms: C_8  and  C_9
REMARK                            x       y       z     vdW  Elec       q    Type
REMARK                         _______ _______ _______ _____ _____    ______ ____
ROOT
ATOM      1  C   UNL     1      16.488  -4.783  -1.927  0.00  0.00    +0.000 C 
ATOM      2  H   UNL     1      16.491  -4.952  -0.844  0.00  0.00    +0.000 HD
ATOM      3  H   UNL     1      15.508  -4.366  -2.188  0.00  0.00    +0.000 HD
ENDROOT
BRANCH   1   4
ATOM      4  C   UNL     1      16.689  -6.113  -2.659  0.00  0.00    +0.000 C 
ATOM      5  H   UNL     1      15.780  -6.721  -2.573  0.00  0.00    +0.000 HD
ATOM      6  H   UNL     1      17.500  -6.675  -2.180  0.00  0.00    +0.000 HD
BRANCH   4   7
ATOM      7  C   UNL     1      17.023  -5.891  -4.134  0.00  0.00    +0.000 C 
ATOM      8  H   UNL     1      17.265  -4.836  -4.306  0.00  0.00    +0.000 HD
ATOM      9  H   UNL     1      16.150  -6.129  -4.752  0.00  0.00    +0.000 HD
BRANCH   7  10
ATOM     10  C   UNL     1      18.197  -6.750  -4.574  0.00  0.00    +0.000 C 
ATOM     11  H   UNL     1      18.853  -6.199  -5.255  0.00  0.00    +0.000 HD
ATOM     12  H   UNL     1      17.852  -7.654  -5.087  0.00  0.00    +0.000 HD
ATOM     13  H   UNL     1      18.789  -7.057  -3.706  0.00  0.00    +0.000 HD
ENDBRANCH   7  10
ENDBRANCH   4   7
ENDBRANCH   1   4
BRANCH   1  14
ATOM     14  C   UNL     1      17.583  -3.777  -2.294  0.00  0.00    +0.000 C 
ATOM     15  H   UNL     1      17.867  -3.911  -3.345  0.00  0.00    +0.000 HD
ATOM     16  H   UNL     1      17.182  -2.759  -2.206  0.00  0.00    +0.000 HD
BRANCH  14  17
ATOM     17  C   UNL     1      18.819  -3.913  -1.411  0.00  0.00    +0.000 C 
ATOM     18  H   UNL     1      18.874  -3.070  -0.713  0.00  0.00    +0.000 HD
ATOM     19  H   UNL     1      18.759  -4.840  -0.830  0.00  0.00    +0.000 HD
BRANCH  17  21
ATOM     20  O   UNL     1      21.198  -4.103  -1.642  0.00  0.00    +0.000 OA
ATOM     21  C   UNL     1      20.112  -3.939  -2.201  0.00  0.00    +0.000 C 
BRANCH  21  22
ATOM     22  C   UNL     1      20.021  -3.775  -3.694  0.00  0.00    +0.000 C 
ATOM     23  H   UNL     1      20.712  -4.465  -4.185  0.00  0.00    +0.000 HD
ATOM     24  H   UNL     1      19.003  -3.996  -4.024  0.00  0.00    +0.000 HD
ATOM     25  H   UNL     1      20.292  -2.752  -3.966  0.00  0.00    +0.000 HD
ENDBRANCH  21  22
ENDBRANCH  17  21
ENDBRANCH  14  17
ENDBRANCH   1  14
TORSDOF 7
ENDMDL
MODEL 10
REMARK VINA RESULT:    -3.512      2.567      3.676
REMARK INTER + INTRA:          -4.966
REMARK INTER:                  -4.575
REMARK INTRA:                  -0.390
REMARK UNBOUND:                -0.222
REMARK  Name = 8093
REMARK  7 active torsions:
REMARK  status: ('A' for Active; 'I' for Inactive)
REMARK    1  A    between atoms: C_2  and  C_3
REMARK    2  A    between atoms: C_2  and  C_4
REMARK    3  A    between atoms: C_3  and  C_5
REMARK    4  A    between atoms: C_4  and  C_6
REMARK    5  A    between atoms: C_5  and  C_7
REMARK    6  A    between atoms: C_6  and  C_8
REMARK    7  A    between atoms: C_8  and  C_9
REMARK                            x       y       z     vdW  Elec       q    Type
REMARK                         _______ _______ _______ _____ _____    ______ ____
ROOT
ATOM      1  C   UNL     1      15.404  -6.494  -1.061  0.00  0.00    +0.000 C 
ATOM      2  H   UNL     1      16.082  -7.305  -0.773  0.00  0.00    +0.000 HD
ATOM      3  H   UNL     1      14.407  -6.755  -0.685  0.00  0.00    +0.000 HD
ENDROOT
BRANCH   1   4
ATOM      4  C   UNL     1      15.360  -6.375  -2.587  0.00  0.00    +0.000 C 
ATOM      5  H   UNL     1      14.361  -6.045  -2.902  0.00  0.00    +0.000 HD
ATOM      6  H   UNL     1      15.531  -7.361  -3.037  0.00  0.00    +0.000 HD
BRANCH   4   7
ATOM      7  C   UNL     1      16.412  -5.391  -3.098  0.00  0.00    +0.000 C 
ATOM      8  H   UNL     1      16.913  -4.908  -2.251  0.00  0.00    +0.000 HD
ATOM      9  H   UNL     1      15.929  -4.600  -3.683  0.00  0.00    +0.000 HD
BRANCH   7  10
ATOM     10  C   UNL     1      17.452  -6.086  -3.961  0.00  0.00    +0.000 C 
ATOM     11  H   UNL     1      18.431  -5.606  -3.860  0.00  0.00    +0.000 HD
ATOM     12  H   UNL     1      17.166  -6.063  -5.017  0.00  0.00    +0.000 HD
ATOM     13  H   UNL     1      17.555  -7.134  -3.661  0.00  0.00    +0.000 HD
ENDBRANCH   7  10
ENDBRANCH   4   7
ENDBRANCH   1   4
BRANCH   1  14
ATOM     14  C   UNL     1      15.864  -5.184  -0.416  0.00  0.00    +0.000 C 
ATOM     15  H   UNL     1      16.364  -4.561  -1.167  0.00  0.00    +0.000 HD
ATOM     16  H   UNL     1      14.985  -4.620  -0.078  0.00  0.00    +0.000 HD
BRANCH  14  17
ATOM     17  C   UNL     1      16.804  -5.413   0.763  0.00  0.00    +0.000 C 
ATOM     18  H   UNL     1      16.330  -5.073   1.691  0.00  0.00    +0.000 HD
ATOM     19  H   UNL     1      17.024  -6.482   0.859  0.00  0.00    +0.000 HD
BRANCH  17  21
ATOM     20  O   UNL     1      19.067  -4.912   1.377  0.00  0.00    +0.000 OA
ATOM     21  C   UNL     1      18.120  -4.675   0.625  0.00  0.00    +0.000 C 
BRANCH  21  22
ATOM     22  C   UNL     1      18.236  -3.655  -0.476  0.00  0.00    +0.000 C 
ATOM     23  H   UNL     1      19.263  -3.627  -0.848  0.00  0.00    +0.000 HD
ATOM     24  H   UNL     1      17.568  -3.927  -1.297  0.00  0.00    +0.000 HD
ATOM     25  H   UNL     1      17.975  -2.668  -0.088  0.00  0.00    +0.000 HD
ENDBRANCH  21  22
ENDBRANCH  17  21
ENDBRANCH  14  17
ENDBRANCH   1  14
TORSDOF 7
ENDMDL
