MODEL 1
REMARK VINA RESULT:    -4.279      0.000      0.000
REMARK INTER + INTRA:          -5.637
REMARK INTER:                  -5.347
REMARK INTRA:                  -0.290
REMARK UNBOUND:                -0.232
REMARK  Name = 520098
REMARK  6 active torsions:
REMARK  status: ('A' for Active; 'I' for Inactive)
REMARK    1  A    between atoms: O_1  and  C_9
REMARK    2  A    between atoms: O_1  and  C_12
REMARK    3  A    between atoms: C_4  and  C_5
REMARK    4  A    between atoms: C_4  and  C_6
REMARK    5  A    between atoms: C_4  and  C_7
REMARK    6  A    between atoms: C_5  and  C_8
REMARK                            x       y       z     vdW  Elec       q    Type
REMARK                         _______ _______ _______ _____ _____    ______ ____
ROOT
ATOM      1  C   UNL     1      18.530  -6.430  -3.949  0.00  0.00    +0.000 C 
ATOM      2  H   UNL     1      18.982  -7.387  -3.659  0.00  0.00    +0.000 HD
ENDROOT
BRANCH   1   5
ATOM      3  N   UNL     1      16.564  -5.220  -3.234  0.00  0.00    +0.000 NA
ATOM      4  N   UNL     1      17.126  -5.761  -0.540  0.00  0.00    +0.000 NA
ATOM      5  C   UNL     1      17.624  -5.927  -2.839  0.00  0.00    +0.000 A 
ATOM      6  C   UNL     1      17.918  -6.202  -1.537  0.00  0.00    +0.000 A 
ATOM      7  C   UNL     1      15.771  -4.779  -2.236  0.00  0.00    +0.000 A 
ATOM      8  C   UNL     1      16.047  -5.045  -0.913  0.00  0.00    +0.000 A 
ATOM      9  H   UNL     1      14.904  -4.203  -2.536  0.00  0.00    +0.000 HD
ATOM     10  H   UNL     1      15.410  -4.690  -0.113  0.00  0.00    +0.000 HD
BRANCH   6  11
ATOM     11  O   UNL     1      19.019  -6.931  -1.181  0.00  0.00    +0.000 OA
BRANCH  11  12
ATOM     12  C   UNL     1      20.044  -6.244  -0.469  0.00  0.00    +0.000 C 
ATOM     13  H   UNL     1      20.986  -6.767  -0.649  0.00  0.00    +0.000 HD
ATOM     14  H   UNL     1      19.848  -6.258   0.608  0.00  0.00    +0.000 HD
ATOM     15  H   UNL     1      20.152  -5.217  -0.832  0.00  0.00    +0.000 HD
ENDBRANCH  11  12
ENDBRANCH   6  11
ENDBRANCH   1   5
BRANCH   1  16
ATOM     16  C   UNL     1      17.717  -6.717  -5.217  0.00  0.00    +0.000 C 
ATOM     17  H   UNL     1      16.646  -6.808  -4.999  0.00  0.00    +0.000 HD
ATOM     18  H   UNL     1      17.841  -5.912  -5.950  0.00  0.00    +0.000 HD
ATOM     19  H   UNL     1      18.041  -7.652  -5.688  0.00  0.00    +0.000 HD
ENDBRANCH   1  16
BRANCH   1  20
ATOM     20  C   UNL     1      19.694  -5.469  -4.267  0.00  0.00    +0.000 C 
ATOM     21  H   UNL     1      19.645  -4.580  -3.625  0.00  0.00    +0.000 HD
ATOM     22  H   UNL     1      19.599  -5.117  -5.301  0.00  0.00    +0.000 HD
BRANCH  20  23
ATOM     23  C   UNL     1      21.064  -6.117  -4.110  0.00  0.00    +0.000 C 
ATOM     24  H   UNL     1      21.479  -6.359  -5.093  0.00  0.00    +0.000 HD
ATOM     25  H   UNL     1      21.769  -5.449  -3.606  0.00  0.00    +0.000 HD
ATOM     26  H   UNL     1      20.996  -7.046  -3.534  0.00  0.00    +0.000 HD
ENDBRANCH  20  23
ENDBRANCH   1  20
TORSDOF 6
ENDMDL
MODEL 2
REMARK VINA RESULT:    -4.208     25.641     27.110
REMARK INTER + INTRA:          -5.547
REMARK INTER:                  -5.427
REMARK INTRA:                  -0.121
REMARK UNBOUND:                -0.232
REMARK  Name = 520098
REMARK  6 active torsions:
REMARK  status: ('A' for Active; 'I' for Inactive)
REMARK    1  A    between atoms: O_1  and  C_9
REMARK    2  A    between atoms: O_1  and  C_12
REMARK    3  A    between atoms: C_4  and  C_5
REMARK    4  A    between atoms: C_4  and  C_6
REMARK    5  A    between atoms: C_4  and  C_7
REMARK    6  A    between atoms: C_5  and  C_8
REMARK                            x       y       z     vdW  Elec       q    Type
REMARK                         _______ _______ _______ _____ _____    ______ ____
ROOT
ATOM      1  C   UNL     1       2.797   3.232 -21.553  0.00  0.00    +0.000 C 
ATOM      2  H   UNL     1       2.901   4.304 -21.342  0.00  0.00    +0.000 HD
ENDROOT
BRANCH   1   5
ATOM      3  N   UNL     1       1.039   1.916 -22.563  0.00  0.00    +0.000 NA
ATOM      4  N   UNL     1      -0.911   3.200 -21.009  0.00  0.00    +0.000 NA
ATOM      5  C   UNL     1       1.327   2.870 -21.675  0.00  0.00    +0.000 A 
ATOM      6  C   UNL     1       0.398   3.508 -20.910  0.00  0.00    +0.000 A 
ATOM      7  C   UNL     1      -0.269   1.607 -22.661  0.00  0.00    +0.000 A 
ATOM      8  C   UNL     1      -1.227   2.238 -21.899  0.00  0.00    +0.000 A 
ATOM      9  H   UNL     1      -0.524   0.835 -23.377  0.00  0.00    +0.000 HD
ATOM     10  H   UNL     1      -2.278   1.990 -21.979  0.00  0.00    +0.000 HD
BRANCH   6  11
ATOM     11  O   UNL     1       0.741   4.482 -20.015  0.00  0.00    +0.000 OA
BRANCH  11  12
ATOM     12  C   UNL     1       0.511   5.831 -20.410  0.00  0.00    +0.000 C 
ATOM     13  H   UNL     1       0.002   5.815 -21.377  0.00  0.00    +0.000 HD
ATOM     14  H   UNL     1       1.457   6.369 -20.535  0.00  0.00    +0.000 HD
ATOM     15  H   UNL     1      -0.138   6.344 -19.694  0.00  0.00    +0.000 HD
ENDBRANCH  11  12
ENDBRANCH   6  11
ENDBRANCH   1   5
BRANCH   1  16
ATOM     16  C   UNL     1       3.431   2.506 -20.360  0.00  0.00    +0.000 C 
ATOM     17  H   UNL     1       3.357   1.417 -20.462  0.00  0.00    +0.000 HD
ATOM     18  H   UNL     1       4.492   2.761 -20.268  0.00  0.00    +0.000 HD
ATOM     19  H   UNL     1       2.937   2.787 -19.423  0.00  0.00    +0.000 HD
ENDBRANCH   1  16
BRANCH   1  20
ATOM     20  C   UNL     1       3.601   2.952 -22.838  0.00  0.00    +0.000 C 
ATOM     21  H   UNL     1       2.953   2.523 -23.613  0.00  0.00    +0.000 HD
ATOM     22  H   UNL     1       4.375   2.204 -22.624  0.00  0.00    +0.000 HD
BRANCH  20  23
ATOM     23  C   UNL     1       4.285   4.194 -23.398  0.00  0.00    +0.000 C 
ATOM     24  H   UNL     1       5.258   3.928 -23.820  0.00  0.00    +0.000 HD
ATOM     25  H   UNL     1       3.692   4.655 -24.194  0.00  0.00    +0.000 HD
ATOM     26  H   UNL     1       4.449   4.939 -22.613  0.00  0.00    +0.000 HD
ENDBRANCH  20  23
ENDBRANCH   1  20
TORSDOF 6
ENDMDL
MODEL 3
REMARK VINA RESULT:    -4.111     25.237     27.101
REMARK INTER + INTRA:          -5.424
REMARK INTER:                  -5.215
REMARK INTRA:                  -0.209
REMARK UNBOUND:                -0.232
REMARK  Name = 520098
REMARK  6 active torsions:
REMARK  status: ('A' for Active; 'I' for Inactive)
REMARK    1  A    between atoms: O_1  and  C_9
REMARK    2  A    between atoms: O_1  and  C_12
REMARK    3  A    between atoms: C_4  and  C_5
REMARK    4  A    between atoms: C_4  and  C_6
REMARK    5  A    between atoms: C_4  and  C_7
REMARK    6  A    between atoms: C_5  and  C_8
REMARK                            x       y       z     vdW  Elec       q    Type
REMARK                         _______ _______ _______ _____ _____    ______ ____
ROOT
ATOM      1  C   UNL     1      -7.826 -14.322   4.420  0.00  0.00    +0.000 C 
ATOM      2  H   UNL     1      -8.618 -14.156   3.680  0.00  0.00    +0.000 HD
ENDROOT
BRANCH   1   5
ATOM      3  N   UNL     1      -5.543 -15.114   4.474  0.00  0.00    +0.000 NA
ATOM      4  N   UNL     1      -5.197 -14.512   1.756  0.00  0.00    +0.000 NA
ATOM      5  C   UNL     1      -6.507 -14.587   3.716  0.00  0.00    +0.000 A 
ATOM      6  C   UNL     1      -6.363 -14.286   2.396  0.00  0.00    +0.000 A 
ATOM      7  C   UNL     1      -4.378 -15.342   3.835  0.00  0.00    +0.000 A 
ATOM      8  C   UNL     1      -4.208 -15.046   2.500  0.00  0.00    +0.000 A 
ATOM      9  H   UNL     1      -3.583 -15.770   4.432  0.00  0.00    +0.000 HD
ATOM     10  H   UNL     1      -3.272 -15.229   1.988  0.00  0.00    +0.000 HD
BRANCH   6  11
ATOM     11  O   UNL     1      -7.380 -13.744   1.660  0.00  0.00    +0.000 OA
BRANCH  11  12
ATOM     12  C   UNL     1      -7.087 -13.404   0.308  0.00  0.00    +0.000 C 
ATOM     13  H   UNL     1      -7.414 -12.374   0.143  0.00  0.00    +0.000 HD
ATOM     14  H   UNL     1      -7.637 -14.049  -0.385  0.00  0.00    +0.000 HD
ATOM     15  H   UNL     1      -6.011 -13.453   0.116  0.00  0.00    +0.000 HD
ENDBRANCH  11  12
ENDBRANCH   6  11
ENDBRANCH   1   5
BRANCH   1  16
ATOM     16  C   UNL     1      -8.259 -15.550   5.230  0.00  0.00    +0.000 C 
ATOM     17  H   UNL     1      -9.245 -15.407   5.687  0.00  0.00    +0.000 HD
ATOM     18  H   UNL     1      -8.313 -16.438   4.591  0.00  0.00    +0.000 HD
ATOM     19  H   UNL     1      -7.546 -15.760   6.035  0.00  0.00    +0.000 HD
ENDBRANCH   1  16
BRANCH   1  20
ATOM     20  C   UNL     1      -7.793 -13.071   5.322  0.00  0.00    +0.000 C 
ATOM     21  H   UNL     1      -8.635 -12.407   5.090  0.00  0.00    +0.000 HD
ATOM     22  H   UNL     1      -6.878 -12.503   5.118  0.00  0.00    +0.000 HD
BRANCH  20  23
ATOM     23  C   UNL     1      -7.822 -13.405   6.808  0.00  0.00    +0.000 C 
ATOM     24  H   UNL     1      -7.006 -12.889   7.324  0.00  0.00    +0.000 HD
ATOM     25  H   UNL     1      -8.762 -13.089   7.273  0.00  0.00    +0.000 HD
ATOM     26  H   UNL     1      -7.700 -14.480   6.972  0.00  0.00    +0.000 HD
ENDBRANCH  20  23
ENDBRANCH   1  20
TORSDOF 6
ENDMDL
MODEL 4
REMARK VINA RESULT:    -4.054     30.784     32.183
REMARK INTER + INTRA:          -5.353
REMARK INTER:                  -5.112
REMARK INTRA:                  -0.241
REMARK UNBOUND:                -0.232
REMARK  Name = 520098
REMARK  6 active torsions:
REMARK  status: ('A' for Active; 'I' for Inactive)
REMARK    1  A    between atoms: O_1  and  C_9
REMARK    2  A    between atoms: O_1  and  C_12
REMARK    3  A    between atoms: C_4  and  C_5
REMARK    4  A    between atoms: C_4  and  C_6
REMARK    5  A    between atoms: C_4  and  C_7
REMARK    6  A    between atoms: C_5  and  C_8
REMARK                            x       y       z     vdW  Elec       q    Type
REMARK                         _______ _______ _______ _____ _____    ______ ____
ROOT
ATOM      1  C   UNL     1     -13.527  -6.110  -4.490  0.00  0.00    +0.000 C 
ATOM      2  H   UNL     1     -13.761  -7.177  -4.389  0.00  0.00    +0.000 HD
ENDROOT
BRANCH   1   5
ATOM      3  N   UNL     1     -12.503  -4.693  -6.160  0.00  0.00    +0.000 NA
ATOM      4  N   UNL     1     -13.535  -6.274  -8.234  0.00  0.00    +0.000 NA
ATOM      5  C   UNL     1     -13.254  -5.776  -5.946  0.00  0.00    +0.000 A 
ATOM      6  C   UNL     1     -13.767  -6.558  -6.936  0.00  0.00    +0.000 A 
ATOM      7  C   UNL     1     -12.271  -4.409  -7.457  0.00  0.00    +0.000 A 
ATOM      8  C   UNL     1     -12.778  -5.186  -8.476  0.00  0.00    +0.000 A 
ATOM      9  H   UNL     1     -11.663  -3.534  -7.652  0.00  0.00    +0.000 HD
ATOM     10  H   UNL     1     -12.592  -4.957  -9.517  0.00  0.00    +0.000 HD
BRANCH   6  11
ATOM     11  O   UNL     1     -14.533  -7.658  -6.668  0.00  0.00    +0.000 OA
BRANCH  11  12
ATOM     12  C   UNL     1     -14.317  -8.808  -7.481  0.00  0.00    +0.000 C 
ATOM     13  H   UNL     1     -15.015  -8.761  -8.321  0.00  0.00    +0.000 HD
ATOM     14  H   UNL     1     -14.522  -9.727  -6.922  0.00  0.00    +0.000 HD
ATOM     15  H   UNL     1     -13.300  -8.816  -7.886  0.00  0.00    +0.000 HD
ENDBRANCH  11  12
ENDBRANCH   6  11
ENDBRANCH   1   5
BRANCH   1  16
ATOM     16  C   UNL     1     -12.273  -5.872  -3.640  0.00  0.00    +0.000 C 
ATOM     17  H   UNL     1     -12.211  -6.579  -2.804  0.00  0.00    +0.000 HD
ATOM     18  H   UNL     1     -11.366  -5.989  -4.244  0.00  0.00    +0.000 HD
ATOM     19  H   UNL     1     -12.269  -4.859  -3.222  0.00  0.00    +0.000 HD
ENDBRANCH   1  16
BRANCH   1  20
ATOM     20  C   UNL     1     -14.725  -5.336  -3.904  0.00  0.00    +0.000 C 
ATOM     21  H   UNL     1     -15.027  -4.524  -4.577  0.00  0.00    +0.000 HD
ATOM     22  H   UNL     1     -14.424  -4.866  -2.959  0.00  0.00    +0.000 HD
BRANCH  20  23
ATOM     23  C   UNL     1     -15.933  -6.222  -3.628  0.00  0.00    +0.000 C 
ATOM     24  H   UNL     1     -15.617  -7.265  -3.523  0.00  0.00    +0.000 HD
ATOM     25  H   UNL     1     -16.441  -5.934  -2.702  0.00  0.00    +0.000 HD
ATOM     26  H   UNL     1     -16.655  -6.169  -4.449  0.00  0.00    +0.000 HD
ENDBRANCH  20  23
ENDBRANCH   1  20
TORSDOF 6
ENDMDL
MODEL 5
REMARK VINA RESULT:    -4.031     25.560     27.039
REMARK INTER + INTRA:          -5.323
REMARK INTER:                  -5.144
REMARK INTRA:                  -0.179
REMARK UNBOUND:                -0.232
REMARK  Name = 520098
REMARK  6 active torsions:
REMARK  status: ('A' for Active; 'I' for Inactive)
REMARK    1  A    between atoms: O_1  and  C_9
REMARK    2  A    between atoms: O_1  and  C_12
REMARK    3  A    between atoms: C_4  and  C_5
REMARK    4  A    between atoms: C_4  and  C_6
REMARK    5  A    between atoms: C_4  and  C_7
REMARK    6  A    between atoms: C_5  and  C_8
REMARK                            x       y       z     vdW  Elec       q    Type
REMARK                         _______ _______ _______ _____ _____    ______ ____
ROOT
ATOM      1  C   UNL     1       2.719   4.393 -20.925  0.00  0.00    +0.000 C 
ATOM      2  H   UNL     1       3.111   4.829 -21.853  0.00  0.00    +0.000 HD
ENDROOT
BRANCH   1   5
ATOM      3  N   UNL     1       0.604   3.505 -20.164  0.00  0.00    +0.000 NA
ATOM      4  N   UNL     1       0.013   2.529 -22.727  0.00  0.00    +0.000 NA
ATOM      5  C   UNL     1       1.423   3.654 -21.207  0.00  0.00    +0.000 A 
ATOM      6  C   UNL     1       1.158   3.189 -22.460  0.00  0.00    +0.000 A 
ATOM      7  C   UNL     1      -0.542   2.846 -20.431  0.00  0.00    +0.000 A 
ATOM      8  C   UNL     1      -0.832   2.366 -21.689  0.00  0.00    +0.000 A 
ATOM      9  H   UNL     1      -1.221   2.714 -19.597  0.00  0.00    +0.000 HD
ATOM     10  H   UNL     1      -1.752   1.837 -21.902  0.00  0.00    +0.000 HD
BRANCH   6  11
ATOM     11  O   UNL     1       2.030   3.365 -23.498  0.00  0.00    +0.000 OA
BRANCH  11  12
ATOM     12  C   UNL     1       1.670   4.327 -24.486  0.00  0.00    +0.000 C 
ATOM     13  H   UNL     1       1.813   3.869 -25.468  0.00  0.00    +0.000 HD
ATOM     14  H   UNL     1       2.315   5.209 -24.426  0.00  0.00    +0.000 HD
ATOM     15  H   UNL     1       0.616   4.607 -24.394  0.00  0.00    +0.000 HD
ENDBRANCH  11  12
ENDBRANCH   6  11
ENDBRANCH   1   5
BRANCH   1  16
ATOM     16  C   UNL     1       2.470   5.573 -19.979  0.00  0.00    +0.000 C 
ATOM     17  H   UNL     1       1.401   5.796 -19.883  0.00  0.00    +0.000 HD
ATOM     18  H   UNL     1       2.857   5.358 -18.977  0.00  0.00    +0.000 HD
ATOM     19  H   UNL     1       2.968   6.479 -20.342  0.00  0.00    +0.000 HD
ENDBRANCH   1  16
BRANCH   1  20
ATOM     20  C   UNL     1       3.828   3.481 -20.362  0.00  0.00    +0.000 C 
ATOM     21  H   UNL     1       4.242   2.843 -21.154  0.00  0.00    +0.000 HD
ATOM     22  H   UNL     1       3.396   2.809 -19.610  0.00  0.00    +0.000 HD
BRANCH  20  23
ATOM     23  C   UNL     1       4.965   4.256 -19.708  0.00  0.00    +0.000 C 
ATOM     24  H   UNL     1       4.571   5.142 -19.201  0.00  0.00    +0.000 HD
ATOM     25  H   UNL     1       5.488   3.650 -18.961  0.00  0.00    +0.000 HD
ATOM     26  H   UNL     1       5.694   4.589 -20.454  0.00  0.00    +0.000 HD
ENDBRANCH  20  23
ENDBRANCH   1  20
TORSDOF 6
ENDMDL
MODEL 6
REMARK VINA RESULT:    -4.030     33.950     35.080
REMARK INTER + INTRA:          -5.322
REMARK INTER:                  -5.090
REMARK INTRA:                  -0.232
REMARK UNBOUND:                -0.232
REMARK  Name = 520098
REMARK  6 active torsions:
REMARK  status: ('A' for Active; 'I' for Inactive)
REMARK    1  A    between atoms: O_1  and  C_9
REMARK    2  A    between atoms: O_1  and  C_12
REMARK    3  A    between atoms: C_4  and  C_5
REMARK    4  A    between atoms: C_4  and  C_6
REMARK    5  A    between atoms: C_4  and  C_7
REMARK    6  A    between atoms: C_5  and  C_8
REMARK                            x       y       z     vdW  Elec       q    Type
REMARK                         _______ _______ _______ _____ _____    ______ ____
ROOT
ATOM      1  C   UNL     1     -13.966 -15.808   4.569  0.00  0.00    +0.000 C 
ATOM      2  H   UNL     1     -12.937 -15.878   4.196  0.00  0.00    +0.000 HD
ENDROOT
BRANCH   1   5
ATOM      3  N   UNL     1     -16.131 -15.428   3.563  0.00  0.00    +0.000 NA
ATOM      4  N   UNL     1     -15.449 -16.993   1.337  0.00  0.00    +0.000 NA
ATOM      5  C   UNL     1     -14.945 -16.024   3.428  0.00  0.00    +0.000 A 
ATOM      6  C   UNL     1     -14.591 -16.789   2.357  0.00  0.00    +0.000 A 
ATOM      7  C   UNL     1     -16.989 -15.631   2.543  0.00  0.00    +0.000 A 
ATOM      8  C   UNL     1     -16.654 -16.400   1.450  0.00  0.00    +0.000 A 
ATOM      9  H   UNL     1     -17.958 -15.156   2.633  0.00  0.00    +0.000 HD
ATOM     10  H   UNL     1     -17.343 -16.563   0.631  0.00  0.00    +0.000 HD
BRANCH   6  11
ATOM     11  O   UNL     1     -13.362 -17.382   2.264  0.00  0.00    +0.000 OA
BRANCH  11  12
ATOM     12  C   UNL     1     -13.001 -17.919   0.995  0.00  0.00    +0.000 C 
ATOM     13  H   UNL     1     -13.624 -18.799   0.814  0.00  0.00    +0.000 HD
ATOM     14  H   UNL     1     -11.954 -18.239   0.989  0.00  0.00    +0.000 HD
ATOM     15  H   UNL     1     -13.194 -17.198   0.195  0.00  0.00    +0.000 HD
ENDBRANCH  11  12
ENDBRANCH   6  11
ENDBRANCH   1   5
BRANCH   1  16
ATOM     16  C   UNL     1     -14.112 -14.393   5.140  0.00  0.00    +0.000 C 
ATOM     17  H   UNL     1     -13.637 -13.645   4.495  0.00  0.00    +0.000 HD
ATOM     18  H   UNL     1     -15.169 -14.122   5.244  0.00  0.00    +0.000 HD
ATOM     19  H   UNL     1     -13.650 -14.320   6.131  0.00  0.00    +0.000 HD
ENDBRANCH   1  16
BRANCH   1  20
ATOM     20  C   UNL     1     -14.102 -16.855   5.693  0.00  0.00    +0.000 C 
ATOM     21  H   UNL     1     -14.996 -17.473   5.538  0.00  0.00    +0.000 HD
ATOM     22  H   UNL     1     -14.237 -16.340   6.652  0.00  0.00    +0.000 HD
BRANCH  20  23
ATOM     23  C   UNL     1     -12.887 -17.767   5.811  0.00  0.00    +0.000 C 
ATOM     24  H   UNL     1     -12.218 -17.612   4.959  0.00  0.00    +0.000 HD
ATOM     25  H   UNL     1     -12.318 -17.563   6.723  0.00  0.00    +0.000 HD
ATOM     26  H   UNL     1     -13.186 -18.821   5.819  0.00  0.00    +0.000 HD
ENDBRANCH  20  23
ENDBRANCH   1  20
TORSDOF 6
ENDMDL
MODEL 7
REMARK VINA RESULT:    -4.021     26.194     27.701
REMARK INTER + INTRA:          -5.311
REMARK INTER:                  -5.062
REMARK INTRA:                  -0.249
REMARK UNBOUND:                -0.232
REMARK  Name = 520098
REMARK  6 active torsions:
REMARK  status: ('A' for Active; 'I' for Inactive)
REMARK    1  A    between atoms: O_1  and  C_9
REMARK    2  A    between atoms: O_1  and  C_12
REMARK    3  A    between atoms: C_4  and  C_5
REMARK    4  A    between atoms: C_4  and  C_6
REMARK    5  A    between atoms: C_4  and  C_7
REMARK    6  A    between atoms: C_5  and  C_8
REMARK                            x       y       z     vdW  Elec       q    Type
REMARK                         _______ _______ _______ _____ _____    ______ ____
ROOT
ATOM      1  C   UNL     1       1.229   3.440 -20.175  0.00  0.00    +0.000 C 
ATOM      2  H   UNL     1       1.824   4.354 -20.060  0.00  0.00    +0.000 HD
ENDROOT
BRANCH   1   5
ATOM      3  N   UNL     1      -0.401   2.505 -21.696  0.00  0.00    +0.000 NA
ATOM      4  N   UNL     1       0.276   4.371 -23.678  0.00  0.00    +0.000 NA
ATOM      5  C   UNL     1       0.535   3.442 -21.525  0.00  0.00    +0.000 A 
ATOM      6  C   UNL     1       0.881   4.357 -22.473  0.00  0.00    +0.000 A 
ATOM      7  C   UNL     1      -1.006   2.519 -22.901  0.00  0.00    +0.000 A 
ATOM      8  C   UNL     1      -0.674   3.435 -23.874  0.00  0.00    +0.000 A 
ATOM      9  H   UNL     1      -1.769   1.766 -23.059  0.00  0.00    +0.000 HD
ATOM     10  H   UNL     1      -1.160   3.445 -24.841  0.00  0.00    +0.000 HD
BRANCH   6  11
ATOM     11  O   UNL     1       1.848   5.298 -22.252  0.00  0.00    +0.000 OA
BRANCH  11  12
ATOM     12  C   UNL     1       1.415   6.649 -22.125  0.00  0.00    +0.000 C 
ATOM     13  H   UNL     1       2.080   7.150 -21.416  0.00  0.00    +0.000 HD
ATOM     14  H   UNL     1       0.396   6.698 -21.724  0.00  0.00    +0.000 HD
ATOM     15  H   UNL     1       1.483   7.175 -23.082  0.00  0.00    +0.000 HD
ENDBRANCH  11  12
ENDBRANCH   6  11
ENDBRANCH   1   5
BRANCH   1  16
ATOM     16  C   UNL     1       0.197   3.465 -19.041  0.00  0.00    +0.000 C 
ATOM     17  H   UNL     1      -0.172   2.460 -18.806  0.00  0.00    +0.000 HD
ATOM     18  H   UNL     1       0.633   3.882 -18.126  0.00  0.00    +0.000 HD
ATOM     19  H   UNL     1      -0.668   4.082 -19.311  0.00  0.00    +0.000 HD
ENDBRANCH   1  16
BRANCH   1  20
ATOM     20  C   UNL     1       2.197   2.254 -19.991  0.00  0.00    +0.000 C 
ATOM     21  H   UNL     1       1.877   1.398 -20.598  0.00  0.00    +0.000 HD
ATOM     22  H   UNL     1       2.171   1.926 -18.944  0.00  0.00    +0.000 HD
BRANCH  20  23
ATOM     23  C   UNL     1       3.638   2.599 -20.343  0.00  0.00    +0.000 C 
ATOM     24  H   UNL     1       3.996   1.945 -21.144  0.00  0.00    +0.000 HD
ATOM     25  H   UNL     1       3.731   3.632 -20.691  0.00  0.00    +0.000 HD
ATOM     26  H   UNL     1       4.297   2.465 -19.478  0.00  0.00    +0.000 HD
ENDBRANCH  20  23
ENDBRANCH   1  20
TORSDOF 6
ENDMDL
MODEL 8
REMARK VINA RESULT:    -3.971     25.752     27.554
REMARK INTER + INTRA:          -5.248
REMARK INTER:                  -5.041
REMARK INTRA:                  -0.208
REMARK UNBOUND:                -0.232
REMARK  Name = 520098
REMARK  6 active torsions:
REMARK  status: ('A' for Active; 'I' for Inactive)
REMARK    1  A    between atoms: O_1  and  C_9
REMARK    2  A    between atoms: O_1  and  C_12
REMARK    3  A    between atoms: C_4  and  C_5
REMARK    4  A    between atoms: C_4  and  C_6
REMARK    5  A    between atoms: C_4  and  C_7
REMARK    6  A    between atoms: C_5  and  C_8
REMARK                            x       y       z     vdW  Elec       q    Type
REMARK                         _______ _______ _______ _____ _____    ______ ____
ROOT
ATOM      1  C   UNL     1      -7.467 -14.584   5.824  0.00  0.00    +0.000 C 
ATOM      2  H   UNL     1      -6.690 -14.963   6.500  0.00  0.00    +0.000 HD
ENDROOT
BRANCH   1   5
ATOM      3  N   UNL     1      -7.545 -13.630   3.604  0.00  0.00    +0.000 NA
ATOM      4  N   UNL     1      -5.370 -15.198   2.779  0.00  0.00    +0.000 NA
ATOM      5  C   UNL     1      -6.922 -14.493   4.410  0.00  0.00    +0.000 A 
ATOM      6  C   UNL     1      -5.865 -15.265   4.032  0.00  0.00    +0.000 A 
ATOM      7  C   UNL     1      -7.050 -13.562   2.352  0.00  0.00    +0.000 A 
ATOM      8  C   UNL     1      -5.982 -14.332   1.947  0.00  0.00    +0.000 A 
ATOM      9  H   UNL     1      -7.542 -12.868   1.682  0.00  0.00    +0.000 HD
ATOM     10  H   UNL     1      -5.586 -14.277   0.941  0.00  0.00    +0.000 HD
BRANCH   6  11
ATOM     11  O   UNL     1      -5.259 -16.137   4.893  0.00  0.00    +0.000 OA
BRANCH  11  12
ATOM     12  C   UNL     1      -3.904 -15.865   5.237  0.00  0.00    +0.000 C 
ATOM     13  H   UNL     1      -3.883 -14.933   5.807  0.00  0.00    +0.000 HD
ATOM     14  H   UNL     1      -3.292 -15.726   4.339  0.00  0.00    +0.000 HD
ATOM     15  H   UNL     1      -3.493 -16.658   5.870  0.00  0.00    +0.000 HD
ENDBRANCH  11  12
ENDBRANCH   6  11
ENDBRANCH   1   5
BRANCH   1  16
ATOM     16  C   UNL     1      -7.836 -13.191   6.348  0.00  0.00    +0.000 C 
ATOM     17  H   UNL     1      -8.792 -13.201   6.886  0.00  0.00    +0.000 HD
ATOM     18  H   UNL     1      -7.070 -12.818   7.036  0.00  0.00    +0.000 HD
ATOM     19  H   UNL     1      -7.925 -12.473   5.525  0.00  0.00    +0.000 HD
ENDBRANCH   1  16
BRANCH   1  20
ATOM     20  C   UNL     1      -8.670 -15.540   5.951  0.00  0.00    +0.000 C 
ATOM     21  H   UNL     1      -8.763 -16.165   5.054  0.00  0.00    +0.000 HD
ATOM     22  H   UNL     1      -9.593 -14.951   6.021  0.00  0.00    +0.000 HD
BRANCH  20  23
ATOM     23  C   UNL     1      -8.590 -16.443   7.176  0.00  0.00    +0.000 C 
ATOM     24  H   UNL     1      -9.119 -15.983   8.016  0.00  0.00    +0.000 HD
ATOM     25  H   UNL     1      -9.050 -17.418   6.987  0.00  0.00    +0.000 HD
ATOM     26  H   UNL     1      -7.550 -16.604   7.478  0.00  0.00    +0.000 HD
ENDBRANCH  20  23
ENDBRANCH   1  20
TORSDOF 6
ENDMDL
MODEL 9
REMARK VINA RESULT:    -3.945     31.166     32.962
REMARK INTER + INTRA:          -5.215
REMARK INTER:                  -4.941
REMARK INTRA:                  -0.273
REMARK UNBOUND:                -0.232
REMARK  Name = 520098
REMARK  6 active torsions:
REMARK  status: ('A' for Active; 'I' for Inactive)
REMARK    1  A    between atoms: O_1  and  C_9
REMARK    2  A    between atoms: O_1  and  C_12
REMARK    3  A    between atoms: C_4  and  C_5
REMARK    4  A    between atoms: C_4  and  C_6
REMARK    5  A    between atoms: C_4  and  C_7
REMARK    6  A    between atoms: C_5  and  C_8
REMARK                            x       y       z     vdW  Elec       q    Type
REMARK                         _______ _______ _______ _____ _____    ______ ____
ROOT
ATOM      1  C   UNL     1     -13.166  -4.956  -4.746  0.00  0.00    +0.000 C 
ATOM      2  H   UNL     1     -12.779  -3.931  -4.703  0.00  0.00    +0.000 HD
ENDROOT
BRANCH   1   5
ATOM      3  N   UNL     1     -14.991  -6.170  -3.724  0.00  0.00    +0.000 NA
ATOM      4  N   UNL     1     -16.632  -3.896  -3.791  0.00  0.00    +0.000 NA
ATOM      5  C   UNL     1     -14.588  -4.995  -4.213  0.00  0.00    +0.000 A 
ATOM      6  C   UNL     1     -15.367  -3.878  -4.257  0.00  0.00    +0.000 A 
ATOM      7  C   UNL     1     -16.256  -6.188  -3.258  0.00  0.00    +0.000 A 
ATOM      8  C   UNL     1     -17.062  -5.071  -3.290  0.00  0.00    +0.000 A 
ATOM      9  H   UNL     1     -16.602  -7.132  -2.856  0.00  0.00    +0.000 HD
ATOM     10  H   UNL     1     -18.077  -5.087  -2.916  0.00  0.00    +0.000 HD
BRANCH   6  11
ATOM     11  O   UNL     1     -14.910  -2.695  -4.770  0.00  0.00    +0.000 OA
BRANCH  11  12
ATOM     12  C   UNL     1     -15.470  -2.272  -6.009  0.00  0.00    +0.000 C 
ATOM     13  H   UNL     1     -16.090  -1.394  -5.815  0.00  0.00    +0.000 HD
ATOM     14  H   UNL     1     -16.110  -3.051  -6.436  0.00  0.00    +0.000 HD
ATOM     15  H   UNL     1     -14.685  -1.983  -6.715  0.00  0.00    +0.000 HD
ENDBRANCH  11  12
ENDBRANCH   6  11
ENDBRANCH   1   5
BRANCH   1  16
ATOM     16  C   UNL     1     -12.238  -5.794  -3.858  0.00  0.00    +0.000 C 
ATOM     17  H   UNL     1     -12.102  -6.806  -4.256  0.00  0.00    +0.000 HD
ATOM     18  H   UNL     1     -11.249  -5.329  -3.782  0.00  0.00    +0.000 HD
ATOM     19  H   UNL     1     -12.643  -5.886  -2.844  0.00  0.00    +0.000 HD
ENDBRANCH   1  16
BRANCH   1  20
ATOM     20  C   UNL     1     -13.055  -5.411  -6.215  0.00  0.00    +0.000 C 
ATOM     21  H   UNL     1     -14.052  -5.546  -6.653  0.00  0.00    +0.000 HD
ATOM     22  H   UNL     1     -12.559  -6.389  -6.254  0.00  0.00    +0.000 HD
BRANCH  20  23
ATOM     23  C   UNL     1     -12.261  -4.442  -7.082  0.00  0.00    +0.000 C 
ATOM     24  H   UNL     1     -11.675  -3.768  -6.450  0.00  0.00    +0.000 HD
ATOM     25  H   UNL     1     -11.565  -4.970  -7.741  0.00  0.00    +0.000 HD
ATOM     26  H   UNL     1     -12.928  -3.832  -7.701  0.00  0.00    +0.000 HD
ENDBRANCH  20  23
ENDBRANCH   1  20
TORSDOF 6
ENDMDL
MODEL 10
REMARK VINA RESULT:    -3.854     26.404     27.970
REMARK INTER + INTRA:          -5.099
REMARK INTER:                  -4.844
REMARK INTRA:                  -0.255
REMARK UNBOUND:                -0.232
REMARK  Name = 520098
REMARK  6 active torsions:
REMARK  status: ('A' for Active; 'I' for Inactive)
REMARK    1  A    between atoms: O_1  and  C_9
REMARK    2  A    between atoms: O_1  and  C_12
REMARK    3  A    between atoms: C_4  and  C_5
REMARK    4  A    between atoms: C_4  and  C_6
REMARK    5  A    between atoms: C_4  and  C_7
REMARK    6  A    between atoms: C_5  and  C_8
REMARK                            x       y       z     vdW  Elec       q    Type
REMARK                         _______ _______ _______ _____ _____    ______ ____
ROOT
ATOM      1  C   UNL     1       1.904   4.126 -20.534  0.00  0.00    +0.000 C 
ATOM      2  H   UNL     1       1.137   3.587 -19.964  0.00  0.00    +0.000 HD
ENDROOT
BRANCH   1   5
ATOM      3  N   UNL     1       2.378   4.794 -22.808  0.00  0.00    +0.000 NA
ATOM      4  N   UNL     1      -0.153   3.935 -23.661  0.00  0.00    +0.000 NA
ATOM      5  C   UNL     1       1.477   4.251 -21.985  0.00  0.00    +0.000 A 
ATOM      6  C   UNL     1       0.242   3.828 -22.376  0.00  0.00    +0.000 A 
ATOM      7  C   UNL     1       1.982   4.900 -24.093  0.00  0.00    +0.000 A 
ATOM      8  C   UNL     1       0.740   4.478 -24.511  0.00  0.00    +0.000 A 
ATOM      9  H   UNL     1       2.699   5.337 -24.777  0.00  0.00    +0.000 HD
ATOM     10  H   UNL     1       0.423   4.565 -25.543  0.00  0.00    +0.000 HD
BRANCH   6  11
ATOM     11  O   UNL     1      -0.648   3.279 -21.495  0.00  0.00    +0.000 OA
BRANCH  11  12
ATOM     12  C   UNL     1      -1.292   2.074 -21.897  0.00  0.00    +0.000 C 
ATOM     13  H   UNL     1      -1.954   1.761 -21.086  0.00  0.00    +0.000 HD
ATOM     14  H   UNL     1      -0.561   1.276 -22.065  0.00  0.00    +0.000 HD
ATOM     15  H   UNL     1      -1.905   2.236 -22.789  0.00  0.00    +0.000 HD
ENDBRANCH  11  12
ENDBRANCH   6  11
ENDBRANCH   1   5
BRANCH   1  16
ATOM     16  C   UNL     1       3.180   3.283 -20.421  0.00  0.00    +0.000 C 
ATOM     17  H   UNL     1       3.846   3.439 -21.278  0.00  0.00    +0.000 HD
ATOM     18  H   UNL     1       3.738   3.542 -19.514  0.00  0.00    +0.000 HD
ATOM     19  H   UNL     1       2.942   2.215 -20.374  0.00  0.00    +0.000 HD
ENDBRANCH   1  16
BRANCH   1  20
ATOM     20  C   UNL     1       2.098   5.487 -19.837  0.00  0.00    +0.000 C 
ATOM     21  H   UNL     1       2.552   6.212 -20.526  0.00  0.00    +0.000 HD
ATOM     22  H   UNL     1       2.798   5.369 -19.000  0.00  0.00    +0.000 HD
BRANCH  20  23
ATOM     23  C   UNL     1       0.801   6.070 -19.291  0.00  0.00    +0.000 C 
ATOM     24  H   UNL     1       0.349   6.738 -20.031  0.00  0.00    +0.000 HD
ATOM     25  H   UNL     1       0.073   5.286 -19.061  0.00  0.00    +0.000 HD
ATOM     26  H   UNL     1       0.983   6.650 -18.380  0.00  0.00    +0.000 HD
ENDBRANCH  20  23
ENDBRANCH   1  20
TORSDOF 6
ENDMDL
