MODEL 1
REMARK VINA RESULT:    -4.378      0.000      0.000
REMARK INTER + INTRA:          -5.288
REMARK INTER:                  -5.289
REMARK INTRA:                   0.001
REMARK UNBOUND:                -0.014
REMARK  Name = 31260
REMARK  5 active torsions:
REMARK  status: ('A' for Active; 'I' for Inactive)
REMARK    1  A    between atoms: O_1  and  C_6
REMARK    2  A    between atoms: C_2  and  C_3
REMARK    3  A    between atoms: C_2  and  C_4
REMARK    4  A    between atoms: C_2  and  C_5
REMARK    5  A    between atoms: C_3  and  C_6
REMARK                            x       y       z     vdW  Elec       q    Type
REMARK                         _______ _______ _______ _____ _____    ______ ____
ROOT
ATOM      1  C   UNL     1       6.379  -6.692  -9.723  0.00  0.00    +0.000 C 
ATOM      2  H   UNL     1       6.940  -6.424 -10.627  0.00  0.00    +0.000 HD
ENDROOT
BRANCH   1   3
ATOM      3  C   UNL     1       7.076  -6.065  -8.513  0.00  0.00    +0.000 C 
ATOM      4  H   UNL     1       7.814  -6.762  -8.101  0.00  0.00    +0.000 HD
ATOM      5  H   UNL     1       6.377  -5.825  -7.706  0.00  0.00    +0.000 HD
ATOM      6  H   UNL     1       7.609  -5.151  -8.795  0.00  0.00    +0.000 HD
ENDBRANCH   1   3
BRANCH   1   7
ATOM      7  C   UNL     1       6.383  -8.216  -9.588  0.00  0.00    +0.000 C 
ATOM      8  H   UNL     1       5.375  -8.639  -9.642  0.00  0.00    +0.000 HD
ATOM      9  H   UNL     1       6.811  -8.511  -8.625  0.00  0.00    +0.000 HD
ATOM     10  H   UNL     1       6.989  -8.673 -10.377  0.00  0.00    +0.000 HD
ENDBRANCH   1   7
BRANCH   1  11
ATOM     11  C   UNL     1       4.959  -6.121  -9.862  0.00  0.00    +0.000 C 
ATOM     12  H   UNL     1       4.585  -6.314 -10.876  0.00  0.00    +0.000 HD
ATOM     13  H   UNL     1       4.990  -5.027  -9.769  0.00  0.00    +0.000 HD
BRANCH  11  14
ATOM     14  C   UNL     1       3.971  -6.676  -8.844  0.00  0.00    +0.000 C 
ATOM     15  H   UNL     1       4.465  -7.256  -8.059  0.00  0.00    +0.000 HD
ATOM     16  H   UNL     1       3.379  -5.886  -8.376  0.00  0.00    +0.000 HD
BRANCH  14  17
ATOM     17  O   UNL     1       3.060  -7.538  -9.515  0.00  0.00    +0.000 OA
ATOM     18  H   UNL     1       3.562  -8.031 -10.187  0.00  0.00    +0.000 HD
ENDBRANCH  14  17
ENDBRANCH  11  14
ENDBRANCH   1  11
TORSDOF 5
ENDMDL
MODEL 2
REMARK VINA RESULT:    -3.816      5.488      6.477
REMARK INTER + INTRA:          -4.611
REMARK INTER:                  -4.595
REMARK INTRA:                  -0.015
REMARK UNBOUND:                -0.014
REMARK  Name = 31260
REMARK  5 active torsions:
REMARK  status: ('A' for Active; 'I' for Inactive)
REMARK    1  A    between atoms: O_1  and  C_6
REMARK    2  A    between atoms: C_2  and  C_3
REMARK    3  A    between atoms: C_2  and  C_4
REMARK    4  A    between atoms: C_2  and  C_5
REMARK    5  A    between atoms: C_3  and  C_6
REMARK                            x       y       z     vdW  Elec       q    Type
REMARK                         _______ _______ _______ _____ _____    ______ ____
ROOT
ATOM      1  C   UNL     1       0.560  -5.687  -7.437  0.00  0.00    +0.000 C 
ATOM      2  H   UNL     1       0.535  -6.636  -7.987  0.00  0.00    +0.000 HD
ENDROOT
BRANCH   1   3
ATOM      3  C   UNL     1       0.498  -4.538  -8.446  0.00  0.00    +0.000 C 
ATOM      4  H   UNL     1      -0.054  -4.851  -9.339  0.00  0.00    +0.000 HD
ATOM      5  H   UNL     1       1.491  -4.219  -8.780  0.00  0.00    +0.000 HD
ATOM      6  H   UNL     1      -0.022  -3.670  -8.026  0.00  0.00    +0.000 HD
ENDBRANCH   1   3
BRANCH   1   7
ATOM      7  C   UNL     1       1.873  -5.617  -6.656  0.00  0.00    +0.000 C 
ATOM      8  H   UNL     1       2.158  -6.587  -6.237  0.00  0.00    +0.000 HD
ATOM      9  H   UNL     1       1.782  -4.913  -5.822  0.00  0.00    +0.000 HD
ATOM     10  H   UNL     1       2.688  -5.269  -7.299  0.00  0.00    +0.000 HD
ENDBRANCH   1   7
BRANCH   1  11
ATOM     11  C   UNL     1      -0.671  -5.642  -6.518  0.00  0.00    +0.000 C 
ATOM     12  H   UNL     1      -1.320  -6.501  -6.733  0.00  0.00    +0.000 HD
ATOM     13  H   UNL     1      -1.276  -4.757  -6.754  0.00  0.00    +0.000 HD
BRANCH  11  14
ATOM     14  C   UNL     1      -0.329  -5.626  -5.034  0.00  0.00    +0.000 C 
ATOM     15  H   UNL     1       0.008  -6.603  -4.674  0.00  0.00    +0.000 HD
ATOM     16  H   UNL     1       0.437  -4.883  -4.799  0.00  0.00    +0.000 HD
BRANCH  14  17
ATOM     17  O   UNL     1      -1.494  -5.270  -4.301  0.00  0.00    +0.000 OA
ATOM     18  H   UNL     1      -1.903  -4.510  -4.749  0.00  0.00    +0.000 HD
ENDBRANCH  14  17
ENDBRANCH  11  14
ENDBRANCH   1  11
TORSDOF 5
ENDMDL
MODEL 3
REMARK VINA RESULT:    -3.595      3.085      4.888
REMARK INTER + INTRA:          -4.345
REMARK INTER:                  -4.339
REMARK INTRA:                  -0.006
REMARK UNBOUND:                -0.014
REMARK  Name = 31260
REMARK  5 active torsions:
REMARK  status: ('A' for Active; 'I' for Inactive)
REMARK    1  A    between atoms: O_1  and  C_6
REMARK    2  A    between atoms: C_2  and  C_3
REMARK    3  A    between atoms: C_2  and  C_4
REMARK    4  A    between atoms: C_2  and  C_5
REMARK    5  A    between atoms: C_3  and  C_6
REMARK                            x       y       z     vdW  Elec       q    Type
REMARK                         _______ _______ _______ _____ _____    ______ ____
ROOT
ATOM      1  C   UNL     1       1.575  -5.262  -6.875  0.00  0.00    +0.000 C 
ATOM      2  H   UNL     1       2.161  -4.410  -7.243  0.00  0.00    +0.000 HD
ENDROOT
BRANCH   1   3
ATOM      3  C   UNL     1       0.113  -4.827  -6.747  0.00  0.00    +0.000 C 
ATOM      4  H   UNL     1      -0.177  -4.789  -5.692  0.00  0.00    +0.000 HD
ATOM      5  H   UNL     1      -0.575  -5.520  -7.242  0.00  0.00    +0.000 HD
ATOM      6  H   UNL     1      -0.040  -3.827  -7.167  0.00  0.00    +0.000 HD
ENDBRANCH   1   3
BRANCH   1   7
ATOM      7  C   UNL     1       2.116  -5.660  -5.501  0.00  0.00    +0.000 C 
ATOM      8  H   UNL     1       3.068  -6.196  -5.570  0.00  0.00    +0.000 HD
ATOM      9  H   UNL     1       1.407  -6.319  -4.989  0.00  0.00    +0.000 HD
ATOM     10  H   UNL     1       2.265  -4.777  -4.872  0.00  0.00    +0.000 HD
ENDBRANCH   1   7
BRANCH   1  11
ATOM     11  C   UNL     1       1.695  -6.397  -7.904  0.00  0.00    +0.000 C 
ATOM     12  H   UNL     1       1.091  -6.155  -8.788  0.00  0.00    +0.000 HD
ATOM     13  H   UNL     1       1.252  -7.315  -7.494  0.00  0.00    +0.000 HD
BRANCH  11  14
ATOM     14  C   UNL     1       3.127  -6.688  -8.333  0.00  0.00    +0.000 C 
ATOM     15  H   UNL     1       3.669  -5.781  -8.615  0.00  0.00    +0.000 HD
ATOM     16  H   UNL     1       3.691  -7.205  -7.553  0.00  0.00    +0.000 HD
BRANCH  14  17
ATOM     17  O   UNL     1       3.098  -7.549  -9.465  0.00  0.00    +0.000 OA
ATOM     18  H   UNL     1       2.285  -8.079  -9.411  0.00  0.00    +0.000 HD
ENDBRANCH  14  17
ENDBRANCH  11  14
ENDBRANCH   1  11
TORSDOF 5
ENDMDL
MODEL 4
REMARK VINA RESULT:    -3.444     25.262     25.692
REMARK INTER + INTRA:          -4.162
REMARK INTER:                  -4.143
REMARK INTRA:                  -0.019
REMARK UNBOUND:                -0.014
REMARK  Name = 31260
REMARK  5 active torsions:
REMARK  status: ('A' for Active; 'I' for Inactive)
REMARK    1  A    between atoms: O_1  and  C_6
REMARK    2  A    between atoms: C_2  and  C_3
REMARK    3  A    between atoms: C_2  and  C_4
REMARK    4  A    between atoms: C_2  and  C_5
REMARK    5  A    between atoms: C_3  and  C_6
REMARK                            x       y       z     vdW  Elec       q    Type
REMARK                         _______ _______ _______ _____ _____    ______ ____
ROOT
ATOM      1  C   UNL     1     -14.451 -15.703   4.241  0.00  0.00    +0.000 C 
ATOM      2  H   UNL     1     -13.706 -15.805   3.443  0.00  0.00    +0.000 HD
ENDROOT
BRANCH   1   3
ATOM      3  C   UNL     1     -14.091 -14.483   5.091  0.00  0.00    +0.000 C 
ATOM      4  H   UNL     1     -14.874 -13.721   5.006  0.00  0.00    +0.000 HD
ATOM      5  H   UNL     1     -13.154 -14.014   4.774  0.00  0.00    +0.000 HD
ATOM      6  H   UNL     1     -14.005 -14.749   6.150  0.00  0.00    +0.000 HD
ENDBRANCH   1   3
BRANCH   1   7
ATOM      7  C   UNL     1     -14.406 -16.965   5.105  0.00  0.00    +0.000 C 
ATOM      8  H   UNL     1     -14.649 -16.759   6.152  0.00  0.00    +0.000 HD
ATOM      9  H   UNL     1     -13.405 -17.407   5.082  0.00  0.00    +0.000 HD
ATOM     10  H   UNL     1     -15.111 -17.715   4.732  0.00  0.00    +0.000 HD
ENDBRANCH   1   7
BRANCH   1  11
ATOM     11  C   UNL     1     -15.824 -15.494   3.582  0.00  0.00    +0.000 C 
ATOM     12  H   UNL     1     -16.042 -14.420   3.524  0.00  0.00    +0.000 HD
ATOM     13  H   UNL     1     -16.610 -15.915   4.223  0.00  0.00    +0.000 HD
BRANCH  11  14
ATOM     14  C   UNL     1     -15.937 -16.109   2.193  0.00  0.00    +0.000 C 
ATOM     15  H   UNL     1     -15.408 -17.063   2.115  0.00  0.00    +0.000 HD
ATOM     16  H   UNL     1     -16.977 -16.260   1.896  0.00  0.00    +0.000 HD
BRANCH  14  17
ATOM     17  O   UNL     1     -15.361 -15.213   1.249  0.00  0.00    +0.000 OA
ATOM     18  H   UNL     1     -14.460 -15.526   1.059  0.00  0.00    +0.000 HD
ENDBRANCH  14  17
ENDBRANCH  11  14
ENDBRANCH   1  11
TORSDOF 5
ENDMDL
MODEL 5
REMARK VINA RESULT:    -3.418     12.861     13.594
REMARK INTER + INTRA:          -4.131
REMARK INTER:                  -4.121
REMARK INTRA:                  -0.010
REMARK UNBOUND:                -0.014
REMARK  Name = 31260
REMARK  5 active torsions:
REMARK  status: ('A' for Active; 'I' for Inactive)
REMARK    1  A    between atoms: O_1  and  C_6
REMARK    2  A    between atoms: C_2  and  C_3
REMARK    3  A    between atoms: C_2  and  C_4
REMARK    4  A    between atoms: C_2  and  C_5
REMARK    5  A    between atoms: C_3  and  C_6
REMARK                            x       y       z     vdW  Elec       q    Type
REMARK                         _______ _______ _______ _____ _____    ______ ____
ROOT
ATOM      1  C   UNL     1      18.142  -6.051  -4.291  0.00  0.00    +0.000 C 
ATOM      2  H   UNL     1      18.219  -5.029  -4.683  0.00  0.00    +0.000 HD
ENDROOT
BRANCH   1   3
ATOM      3  C   UNL     1      19.549  -6.552  -3.959  0.00  0.00    +0.000 C 
ATOM      4  H   UNL     1      19.660  -7.596  -4.274  0.00  0.00    +0.000 HD
ATOM      5  H   UNL     1      19.764  -6.518  -2.887  0.00  0.00    +0.000 HD
ATOM      6  H   UNL     1      20.311  -5.968  -4.485  0.00  0.00    +0.000 HD
ENDBRANCH   1   3
BRANCH   1   7
ATOM      7  C   UNL     1      17.520  -6.935  -5.373  0.00  0.00    +0.000 C 
ATOM      8  H   UNL     1      16.485  -7.206  -5.143  0.00  0.00    +0.000 HD
ATOM      9  H   UNL     1      18.087  -7.867  -5.475  0.00  0.00    +0.000 HD
ATOM     10  H   UNL     1      17.534  -6.429  -6.343  0.00  0.00    +0.000 HD
ENDBRANCH   1   7
BRANCH   1  11
ATOM     11  C   UNL     1      17.289  -6.002  -3.013  0.00  0.00    +0.000 C 
ATOM     12  H   UNL     1      17.840  -6.472  -2.188  0.00  0.00    +0.000 HD
ATOM     13  H   UNL     1      16.389  -6.616  -3.146  0.00  0.00    +0.000 HD
BRANCH  11  14
ATOM     14  C   UNL     1      16.872  -4.595  -2.607  0.00  0.00    +0.000 C 
ATOM     15  H   UNL     1      17.298  -4.296  -1.645  0.00  0.00    +0.000 HD
ATOM     16  H   UNL     1      17.150  -3.852  -3.358  0.00  0.00    +0.000 HD
BRANCH  14  17
ATOM     17  O   UNL     1      15.455  -4.555  -2.487  0.00  0.00    +0.000 OA
ATOM     18  H   UNL     1      15.236  -4.680  -1.548  0.00  0.00    +0.000 HD
ENDBRANCH  14  17
ENDBRANCH  11  14
ENDBRANCH   1  11
TORSDOF 5
ENDMDL
MODEL 6
REMARK VINA RESULT:    -3.222     24.903     25.727
REMARK INTER + INTRA:          -3.895
REMARK INTER:                  -3.890
REMARK INTRA:                  -0.005
REMARK UNBOUND:                -0.014
REMARK  Name = 31260
REMARK  5 active torsions:
REMARK  status: ('A' for Active; 'I' for Inactive)
REMARK    1  A    between atoms: O_1  and  C_6
REMARK    2  A    between atoms: C_2  and  C_3
REMARK    3  A    between atoms: C_2  and  C_4
REMARK    4  A    between atoms: C_2  and  C_5
REMARK    5  A    between atoms: C_3  and  C_6
REMARK                            x       y       z     vdW  Elec       q    Type
REMARK                         _______ _______ _______ _____ _____    ______ ____
ROOT
ATOM      1  C   UNL     1      12.272  18.421 -11.523  0.00  0.00    +0.000 C 
ATOM      2  H   UNL     1      12.977  18.971 -12.158  0.00  0.00    +0.000 HD
ENDROOT
BRANCH   1   3
ATOM      3  C   UNL     1      10.851  18.868 -11.874  0.00  0.00    +0.000 C 
ATOM      4  H   UNL     1      10.553  19.707 -11.236  0.00  0.00    +0.000 HD
ATOM      5  H   UNL     1      10.113  18.073 -11.723  0.00  0.00    +0.000 HD
ATOM      6  H   UNL     1      10.788  19.207 -12.913  0.00  0.00    +0.000 HD
ENDBRANCH   1   3
BRANCH   1   7
ATOM      7  C   UNL     1      12.574  18.760 -10.063  0.00  0.00    +0.000 C 
ATOM      8  H   UNL     1      12.973  17.902  -9.512  0.00  0.00    +0.000 HD
ATOM      9  H   UNL     1      11.662  19.082  -9.550  0.00  0.00    +0.000 HD
ATOM     10  H   UNL     1      13.300  19.577  -9.997  0.00  0.00    +0.000 HD
ENDBRANCH   1   7
BRANCH   1  11
ATOM     11  C   UNL     1      12.438  16.923 -11.823  0.00  0.00    +0.000 C 
ATOM     12  H   UNL     1      11.847  16.659 -12.710  0.00  0.00    +0.000 HD
ATOM     13  H   UNL     1      12.008  16.332 -11.003  0.00  0.00    +0.000 HD
BRANCH  11  14
ATOM     14  C   UNL     1      13.884  16.495 -12.035  0.00  0.00    +0.000 C 
ATOM     15  H   UNL     1      14.485  17.279 -12.504  0.00  0.00    +0.000 HD
ATOM     16  H   UNL     1      14.365  16.199 -11.099  0.00  0.00    +0.000 HD
BRANCH  14  17
ATOM     17  O   UNL     1      13.904  15.359 -12.891  0.00  0.00    +0.000 OA
ATOM     18  H   UNL     1      14.708  15.415 -13.435  0.00  0.00    +0.000 HD
ENDBRANCH  14  17
ENDBRANCH  11  14
ENDBRANCH   1  11
TORSDOF 5
ENDMDL
MODEL 7
REMARK VINA RESULT:    -3.122      6.317      7.027
REMARK INTER + INTRA:          -3.775
REMARK INTER:                  -3.705
REMARK INTRA:                  -0.070
REMARK UNBOUND:                -0.014
REMARK  Name = 31260
REMARK  5 active torsions:
REMARK  status: ('A' for Active; 'I' for Inactive)
REMARK    1  A    between atoms: O_1  and  C_6
REMARK    2  A    between atoms: C_2  and  C_3
REMARK    3  A    between atoms: C_2  and  C_4
REMARK    4  A    between atoms: C_2  and  C_5
REMARK    5  A    between atoms: C_3  and  C_6
REMARK                            x       y       z     vdW  Elec       q    Type
REMARK                         _______ _______ _______ _____ _____    ______ ____
ROOT
ATOM      1  C   UNL     1      -0.848  -5.309  -6.415  0.00  0.00    +0.000 C 
ATOM      2  H   UNL     1      -1.834  -5.722  -6.167  0.00  0.00    +0.000 HD
ENDROOT
BRANCH   1   3
ATOM      3  C   UNL     1      -0.261  -6.116  -7.575  0.00  0.00    +0.000 C 
ATOM      4  H   UNL     1       0.304  -5.457  -8.244  0.00  0.00    +0.000 HD
ATOM      5  H   UNL     1      -1.033  -6.601  -8.181  0.00  0.00    +0.000 HD
ATOM      6  H   UNL     1       0.429  -6.885  -7.212  0.00  0.00    +0.000 HD
ENDBRANCH   1   3
BRANCH   1   7
ATOM      7  C   UNL     1       0.052  -5.442  -5.186  0.00  0.00    +0.000 C 
ATOM      8  H   UNL     1       0.661  -4.548  -5.019  0.00  0.00    +0.000 HD
ATOM      9  H   UNL     1       0.738  -6.287  -5.306  0.00  0.00    +0.000 HD
ATOM     10  H   UNL     1      -0.544  -5.623  -4.286  0.00  0.00    +0.000 HD
ENDBRANCH   1   7
BRANCH   1  11
ATOM     11  C   UNL     1      -1.043  -3.846  -6.842  0.00  0.00    +0.000 C 
ATOM     12  H   UNL     1      -0.889  -3.188  -5.978  0.00  0.00    +0.000 HD
ATOM     13  H   UNL     1      -2.086  -3.685  -7.145  0.00  0.00    +0.000 HD
BRANCH  11  14
ATOM     14  C   UNL     1      -0.126  -3.411  -7.979  0.00  0.00    +0.000 C 
ATOM     15  H   UNL     1       0.194  -4.252  -8.600  0.00  0.00    +0.000 HD
ATOM     16  H   UNL     1      -0.596  -2.661  -8.619  0.00  0.00    +0.000 HD
BRANCH  14  17
ATOM     17  O   UNL     1       1.038  -2.813  -7.422  0.00  0.00    +0.000 OA
ATOM     18  H   UNL     1       1.759  -2.917  -8.065  0.00  0.00    +0.000 HD
ENDBRANCH  14  17
ENDBRANCH  11  14
ENDBRANCH   1  11
TORSDOF 5
ENDMDL
MODEL 8
REMARK VINA RESULT:    -3.104     11.678     13.000
REMARK INTER + INTRA:          -3.753
REMARK INTER:                  -3.739
REMARK INTRA:                  -0.014
REMARK UNBOUND:                -0.014
REMARK  Name = 31260
REMARK  5 active torsions:
REMARK  status: ('A' for Active; 'I' for Inactive)
REMARK    1  A    between atoms: O_1  and  C_6
REMARK    2  A    between atoms: C_2  and  C_3
REMARK    3  A    between atoms: C_2  and  C_4
REMARK    4  A    between atoms: C_2  and  C_5
REMARK    5  A    between atoms: C_3  and  C_6
REMARK                            x       y       z     vdW  Elec       q    Type
REMARK                         _______ _______ _______ _____ _____    ______ ____
ROOT
ATOM      1  C   UNL     1      -6.497  -7.932 -11.883  0.00  0.00    +0.000 C 
ATOM      2  H   UNL     1      -6.913  -8.313 -10.942  0.00  0.00    +0.000 HD
ENDROOT
BRANCH   1   3
ATOM      3  C   UNL     1      -6.488  -9.069 -12.908  0.00  0.00    +0.000 C 
ATOM      4  H   UNL     1      -5.959  -8.754 -13.814  0.00  0.00    +0.000 HD
ATOM      5  H   UNL     1      -7.496  -9.366 -13.213  0.00  0.00    +0.000 HD
ATOM      6  H   UNL     1      -5.970  -9.950 -12.515  0.00  0.00    +0.000 HD
ENDBRANCH   1   3
BRANCH   1   7
ATOM      7  C   UNL     1      -5.066  -7.461 -11.621  0.00  0.00    +0.000 C 
ATOM      8  H   UNL     1      -4.862  -6.483 -12.068  0.00  0.00    +0.000 HD
ATOM      9  H   UNL     1      -4.348  -8.171 -12.046  0.00  0.00    +0.000 HD
ATOM     10  H   UNL     1      -4.871  -7.393 -10.546  0.00  0.00    +0.000 HD
ENDBRANCH   1   7
BRANCH   1  11
ATOM     11  C   UNL     1      -7.407  -6.794 -12.374  0.00  0.00    +0.000 C 
ATOM     12  H   UNL     1      -6.809  -6.061 -12.930  0.00  0.00    +0.000 HD
ATOM     13  H   UNL     1      -7.809  -6.245 -11.512  0.00  0.00    +0.000 HD
BRANCH  11  14
ATOM     14  C   UNL     1      -8.565  -7.266 -13.244  0.00  0.00    +0.000 C 
ATOM     15  H   UNL     1      -8.603  -8.355 -13.331  0.00  0.00    +0.000 HD
ATOM     16  H   UNL     1      -9.528  -6.911 -12.870  0.00  0.00    +0.000 HD
BRANCH  14  17
ATOM     17  O   UNL     1      -8.401  -6.729 -14.551  0.00  0.00    +0.000 OA
ATOM     18  H   UNL     1      -9.002  -7.212 -15.144  0.00  0.00    +0.000 HD
ENDBRANCH  14  17
ENDBRANCH  11  14
ENDBRANCH   1  11
TORSDOF 5
ENDMDL
MODEL 9
REMARK VINA RESULT:    -3.086     15.256     15.994
REMARK INTER + INTRA:          -3.732
REMARK INTER:                  -3.697
REMARK INTRA:                  -0.035
REMARK UNBOUND:                -0.014
REMARK  Name = 31260
REMARK  5 active torsions:
REMARK  status: ('A' for Active; 'I' for Inactive)
REMARK    1  A    between atoms: O_1  and  C_6
REMARK    2  A    between atoms: C_2  and  C_3
REMARK    3  A    between atoms: C_2  and  C_4
REMARK    4  A    between atoms: C_2  and  C_5
REMARK    5  A    between atoms: C_3  and  C_6
REMARK                            x       y       z     vdW  Elec       q    Type
REMARK                         _______ _______ _______ _____ _____    ______ ____
ROOT
ATOM      1  C   UNL     1       0.606   3.229 -19.908  0.00  0.00    +0.000 C 
ATOM      2  H   UNL     1       0.472   2.895 -18.872  0.00  0.00    +0.000 HD
ENDROOT
BRANCH   1   3
ATOM      3  C   UNL     1       0.836   4.742 -19.906  0.00  0.00    +0.000 C 
ATOM      4  H   UNL     1       0.255   5.209 -19.103  0.00  0.00    +0.000 HD
ATOM      5  H   UNL     1       0.524   5.214 -20.843  0.00  0.00    +0.000 HD
ATOM      6  H   UNL     1       1.890   4.981 -19.730  0.00  0.00    +0.000 HD
ENDBRANCH   1   3
BRANCH   1   7
ATOM      7  C   UNL     1      -0.669   2.902 -20.688  0.00  0.00    +0.000 C 
ATOM      8  H   UNL     1      -1.058   1.907 -20.449  0.00  0.00    +0.000 HD
ATOM      9  H   UNL     1      -0.473   2.927 -21.765  0.00  0.00    +0.000 HD
ATOM     10  H   UNL     1      -1.453   3.636 -20.474  0.00  0.00    +0.000 HD
ENDBRANCH   1   7
BRANCH   1  11
ATOM     11  C   UNL     1       1.840   2.513 -20.479  0.00  0.00    +0.000 C 
ATOM     12  H   UNL     1       1.762   1.436 -20.284  0.00  0.00    +0.000 HD
ATOM     13  H   UNL     1       2.739   2.840 -19.939  0.00  0.00    +0.000 HD
BRANCH  11  14
ATOM     14  C   UNL     1       2.048   2.743 -21.970  0.00  0.00    +0.000 C 
ATOM     15  H   UNL     1       1.318   3.442 -22.389  0.00  0.00    +0.000 HD
ATOM     16  H   UNL     1       3.053   3.111 -22.192  0.00  0.00    +0.000 HD
BRANCH  14  17
ATOM     17  O   UNL     1       1.901   1.501 -22.648  0.00  0.00    +0.000 OA
ATOM     18  H   UNL     1       0.950   1.308 -22.706  0.00  0.00    +0.000 HD
ENDBRANCH  14  17
ENDBRANCH  11  14
ENDBRANCH   1  11
TORSDOF 5
ENDMDL
MODEL 10
REMARK VINA RESULT:    -3.034     15.053     15.902
REMARK INTER + INTRA:          -3.668
REMARK INTER:                  -3.633
REMARK INTRA:                  -0.035
REMARK UNBOUND:                -0.014
REMARK  Name = 31260
REMARK  5 active torsions:
REMARK  status: ('A' for Active; 'I' for Inactive)
REMARK    1  A    between atoms: O_1  and  C_6
REMARK    2  A    between atoms: C_2  and  C_3
REMARK    3  A    between atoms: C_2  and  C_4
REMARK    4  A    between atoms: C_2  and  C_5
REMARK    5  A    between atoms: C_3  and  C_6
REMARK                            x       y       z     vdW  Elec       q    Type
REMARK                         _______ _______ _______ _____ _____    ______ ____
ROOT
ATOM      1  C   UNL     1       1.118   2.866 -20.774  0.00  0.00    +0.000 C 
ATOM      2  H   UNL     1       1.349   3.640 -21.517  0.00  0.00    +0.000 HD
ENDROOT
BRANCH   1   3
ATOM      3  C   UNL     1       0.379   3.520 -19.605  0.00  0.00    +0.000 C 
ATOM      4  H   UNL     1      -0.697   3.328 -19.686  0.00  0.00    +0.000 HD
ATOM      5  H   UNL     1       0.509   4.606 -19.582  0.00  0.00    +0.000 HD
ATOM      6  H   UNL     1       0.714   3.110 -18.646  0.00  0.00    +0.000 HD
ENDBRANCH   1   3
BRANCH   1   7
ATOM      7  C   UNL     1       2.435   2.265 -20.280  0.00  0.00    +0.000 C 
ATOM      8  H   UNL     1       3.295   2.622 -20.855  0.00  0.00    +0.000 HD
ATOM      9  H   UNL     1       2.412   1.174 -20.369  0.00  0.00    +0.000 HD
ATOM     10  H   UNL     1       2.602   2.510 -19.226  0.00  0.00    +0.000 HD
ENDBRANCH   1   7
BRANCH   1  11
ATOM     11  C   UNL     1       0.214   1.821 -21.447  0.00  0.00    +0.000 C 
ATOM     12  H   UNL     1      -0.231   1.174 -20.680  0.00  0.00    +0.000 HD
ATOM     13  H   UNL     1       0.821   1.153 -22.071  0.00  0.00    +0.000 HD
BRANCH  11  14
ATOM     14  C   UNL     1      -0.892   2.426 -22.302  0.00  0.00    +0.000 C 
ATOM     15  H   UNL     1      -0.793   3.511 -22.404  0.00  0.00    +0.000 HD
ATOM     16  H   UNL     1      -0.928   1.982 -23.299  0.00  0.00    +0.000 HD
BRANCH  14  17
ATOM     17  O   UNL     1      -2.145   2.160 -21.682  0.00  0.00    +0.000 OA
ATOM     18  H   UNL     1      -2.181   2.675 -20.858  0.00  0.00    +0.000 HD
ENDBRANCH  14  17
ENDBRANCH  11  14
ENDBRANCH   1  11
TORSDOF 5
ENDMDL
