MODEL 1
REMARK VINA RESULT:    -5.110      0.000      0.000
REMARK INTER + INTRA:          -7.496
REMARK INTER:                  -7.315
REMARK INTRA:                  -0.181
REMARK UNBOUND:                -0.295
REMARK  Name = 61235
REMARK  8 active torsions:
REMARK  status: ('A' for Active; 'I' for Inactive)
REMARK    1  A    between atoms: C_2  and  C_3
REMARK    2  A    between atoms: C_2  and  C_4
REMARK    3  A    between atoms: C_3  and  C_5
REMARK    4  A    between atoms: C_4  and  C_6
REMARK    5  A    between atoms: C_5  and  C_7
REMARK    6  A    between atoms: C_6  and  C_8
REMARK    7  A    between atoms: C_7  and  C_9
REMARK    8  A    between atoms: C_9  and  C_10
REMARK                            x       y       z     vdW  Elec       q    Type
REMARK                         _______ _______ _______ _____ _____    ______ ____
ROOT
ATOM      1  C   UNL     1       2.931  -6.560  -7.702  0.00  0.00    +0.000 C 
ATOM      2  H   UNL     1       2.478  -7.558  -7.750  0.00  0.00    +0.000 HD
ATOM      3  H   UNL     1       3.685  -6.598  -6.906  0.00  0.00    +0.000 HD
ENDROOT
BRANCH   1   4
ATOM      4  C   UNL     1       1.861  -5.525  -7.340  0.00  0.00    +0.000 C 
ATOM      5  H   UNL     1       2.000  -4.625  -7.950  0.00  0.00    +0.000 HD
ATOM      6  H   UNL     1       1.980  -5.228  -6.291  0.00  0.00    +0.000 HD
BRANCH   4   7
ATOM      7  C   UNL     1       0.453  -6.084  -7.558  0.00  0.00    +0.000 C 
ATOM      8  H   UNL     1       0.210  -6.064  -8.627  0.00  0.00    +0.000 HD
ATOM      9  H   UNL     1       0.423  -7.134  -7.240  0.00  0.00    +0.000 HD
BRANCH   7  10
ATOM     10  C   UNL     1      -0.589  -5.285  -6.777  0.00  0.00    +0.000 C 
ATOM     11  H   UNL     1      -0.434  -4.212  -6.939  0.00  0.00    +0.000 HD
ATOM     12  H   UNL     1      -1.594  -5.528  -7.142  0.00  0.00    +0.000 HD
BRANCH  10  13
ATOM     13  C   UNL     1      -0.513  -5.577  -5.287  0.00  0.00    +0.000 C 
ATOM     14  H   UNL     1      -0.484  -4.642  -4.719  0.00  0.00    +0.000 HD
ATOM     15  H   UNL     1      -1.386  -6.149  -4.954  0.00  0.00    +0.000 HD
ATOM     16  H   UNL     1       0.387  -6.151  -5.044  0.00  0.00    +0.000 HD
ENDBRANCH  10  13
ENDBRANCH   7  10
ENDBRANCH   4   7
ENDBRANCH   1   4
BRANCH   1  17
ATOM     17  C   UNL     1       3.617  -6.248  -9.031  0.00  0.00    +0.000 C 
ATOM     18  H   UNL     1       2.981  -6.578  -9.861  0.00  0.00    +0.000 HD
ATOM     19  H   UNL     1       3.767  -5.166  -9.120  0.00  0.00    +0.000 HD
BRANCH  17  21
ATOM     20  O   UNL     1       5.134  -8.126  -9.056  0.00  0.00    +0.000 OA
ATOM     21  C   UNL     1       4.975  -6.914  -9.194  0.00  0.00    +0.000 C 
BRANCH  21  22
ATOM     22  C   UNL     1       6.131  -5.977  -9.500  0.00  0.00    +0.000 C 
ATOM     23  H   UNL     1       5.738  -4.957  -9.566  0.00  0.00    +0.000 HD
ATOM     24  H   UNL     1       6.548  -6.255 -10.474  0.00  0.00    +0.000 HD
BRANCH  22  25
ATOM     25  C   UNL     1       7.225  -6.031  -8.448  0.00  0.00    +0.000 C 
ATOM     26  H   UNL     1       7.344  -5.061  -7.955  0.00  0.00    +0.000 HD
ATOM     27  H   UNL     1       8.181  -6.301  -8.906  0.00  0.00    +0.000 HD
ATOM     28  H   UNL     1       6.992  -6.772  -7.677  0.00  0.00    +0.000 HD
ENDBRANCH  22  25
ENDBRANCH  21  22
ENDBRANCH  17  21
ENDBRANCH   1  17
TORSDOF 8
ENDMDL
MODEL 2
REMARK VINA RESULT:    -4.574      4.562      6.050
REMARK INTER + INTRA:          -6.741
REMARK INTER:                  -6.440
REMARK INTRA:                  -0.301
REMARK UNBOUND:                -0.295
REMARK  Name = 61235
REMARK  8 active torsions:
REMARK  status: ('A' for Active; 'I' for Inactive)
REMARK    1  A    between atoms: C_2  and  C_3
REMARK    2  A    between atoms: C_2  and  C_4
REMARK    3  A    between atoms: C_3  and  C_5
REMARK    4  A    between atoms: C_4  and  C_6
REMARK    5  A    between atoms: C_5  and  C_7
REMARK    6  A    between atoms: C_6  and  C_8
REMARK    7  A    between atoms: C_7  and  C_9
REMARK    8  A    between atoms: C_9  and  C_10
REMARK                            x       y       z     vdW  Elec       q    Type
REMARK                         _______ _______ _______ _____ _____    ______ ____
ROOT
ATOM      1  C   UNL     1      -0.014  -3.163  -8.003  0.00  0.00    +0.000 C 
ATOM      2  H   UNL     1      -0.295  -3.200  -9.062  0.00  0.00    +0.000 HD
ATOM      3  H   UNL     1       1.077  -3.046  -7.973  0.00  0.00    +0.000 HD
ENDROOT
BRANCH   1   4
ATOM      4  C   UNL     1      -0.402  -4.478  -7.319  0.00  0.00    +0.000 C 
ATOM      5  H   UNL     1      -1.435  -4.737  -7.581  0.00  0.00    +0.000 HD
ATOM      6  H   UNL     1      -0.366  -4.349  -6.231  0.00  0.00    +0.000 HD
BRANCH   4   7
ATOM      7  C   UNL     1       0.536  -5.615  -7.732  0.00  0.00    +0.000 C 
ATOM      8  H   UNL     1       0.027  -6.578  -7.604  0.00  0.00    +0.000 HD
ATOM      9  H   UNL     1       0.782  -5.519  -8.797  0.00  0.00    +0.000 HD
BRANCH   7  10
ATOM     10  C   UNL     1       1.823  -5.600  -6.908  0.00  0.00    +0.000 C 
ATOM     11  H   UNL     1       2.360  -6.546  -7.039  0.00  0.00    +0.000 HD
ATOM     12  H   UNL     1       2.482  -4.800  -7.264  0.00  0.00    +0.000 HD
BRANCH  10  13
ATOM     13  C   UNL     1       1.536  -5.392  -5.429  0.00  0.00    +0.000 C 
ATOM     14  H   UNL     1       0.501  -5.065  -5.287  0.00  0.00    +0.000 HD
ATOM     15  H   UNL     1       1.679  -6.321  -4.868  0.00  0.00    +0.000 HD
ATOM     16  H   UNL     1       2.196  -4.629  -5.005  0.00  0.00    +0.000 HD
ENDBRANCH  10  13
ENDBRANCH   7  10
ENDBRANCH   4   7
ENDBRANCH   1   4
BRANCH   1  17
ATOM     17  C   UNL     1      -0.669  -1.950  -7.344  0.00  0.00    +0.000 C 
ATOM     18  H   UNL     1      -1.704  -1.854  -7.693  0.00  0.00    +0.000 HD
ATOM     19  H   UNL     1      -0.682  -2.086  -6.257  0.00  0.00    +0.000 HD
BRANCH  17  21
ATOM     20  O   UNL     1       0.122   0.264  -6.798  0.00  0.00    +0.000 OA
ATOM     21  C   UNL     1       0.041  -0.635  -7.632  0.00  0.00    +0.000 C 
BRANCH  21  22
ATOM     22  C   UNL     1       0.611  -0.492  -9.034  0.00  0.00    +0.000 C 
ATOM     23  H   UNL     1       0.035   0.275  -9.561  0.00  0.00    +0.000 HD
ATOM     24  H   UNL     1       0.481  -1.447  -9.554  0.00  0.00    +0.000 HD
BRANCH  22  25
ATOM     25  C   UNL     1       2.081  -0.112  -9.034  0.00  0.00    +0.000 C 
ATOM     26  H   UNL     1       2.292   0.641  -9.801  0.00  0.00    +0.000 HD
ATOM     27  H   UNL     1       2.702  -0.990  -9.236  0.00  0.00    +0.000 HD
ATOM     28  H   UNL     1       2.380   0.304  -8.066  0.00  0.00    +0.000 HD
ENDBRANCH  22  25
ENDBRANCH  21  22
ENDBRANCH  17  21
ENDBRANCH   1  17
TORSDOF 8
ENDMDL
MODEL 3
REMARK VINA RESULT:    -4.246     15.710     18.124
REMARK INTER + INTRA:          -6.279
REMARK INTER:                  -5.818
REMARK INTRA:                  -0.461
REMARK UNBOUND:                -0.295
REMARK  Name = 61235
REMARK  8 active torsions:
REMARK  status: ('A' for Active; 'I' for Inactive)
REMARK    1  A    between atoms: C_2  and  C_3
REMARK    2  A    between atoms: C_2  and  C_4
REMARK    3  A    between atoms: C_3  and  C_5
REMARK    4  A    between atoms: C_4  and  C_6
REMARK    5  A    between atoms: C_5  and  C_7
REMARK    6  A    between atoms: C_6  and  C_8
REMARK    7  A    between atoms: C_7  and  C_9
REMARK    8  A    between atoms: C_9  and  C_10
REMARK                            x       y       z     vdW  Elec       q    Type
REMARK                         _______ _______ _______ _____ _____    ______ ____
ROOT
ATOM      1  C   UNL     1      -7.233 -12.877   4.704  0.00  0.00    +0.000 C 
ATOM      2  H   UNL     1      -6.159 -12.753   4.889  0.00  0.00    +0.000 HD
ATOM      3  H   UNL     1      -7.616 -11.891   4.414  0.00  0.00    +0.000 HD
ENDROOT
BRANCH   1   4
ATOM      4  C   UNL     1      -7.929 -13.335   5.990  0.00  0.00    +0.000 C 
ATOM      5  H   UNL     1      -8.675 -12.590   6.289  0.00  0.00    +0.000 HD
ATOM      6  H   UNL     1      -7.192 -13.400   6.800  0.00  0.00    +0.000 HD
BRANCH   4   7
ATOM      7  C   UNL     1      -8.604 -14.695   5.800  0.00  0.00    +0.000 C 
ATOM      8  H   UNL     1      -9.693 -14.568   5.790  0.00  0.00    +0.000 HD
ATOM      9  H   UNL     1      -8.319 -15.113   4.826  0.00  0.00    +0.000 HD
BRANCH   7  10
ATOM     10  C   UNL     1      -8.209 -15.671   6.908  0.00  0.00    +0.000 C 
ATOM     11  H   UNL     1      -7.987 -15.119   7.829  0.00  0.00    +0.000 HD
ATOM     12  H   UNL     1      -9.045 -16.345   7.125  0.00  0.00    +0.000 HD
BRANCH  10  13
ATOM     13  C   UNL     1      -6.991 -16.494   6.517  0.00  0.00    +0.000 C 
ATOM     14  H   UNL     1      -6.572 -16.990   7.398  0.00  0.00    +0.000 HD
ATOM     15  H   UNL     1      -7.256 -17.265   5.787  0.00  0.00    +0.000 HD
ATOM     16  H   UNL     1      -6.212 -15.860   6.081  0.00  0.00    +0.000 HD
ENDBRANCH  10  13
ENDBRANCH   7  10
ENDBRANCH   4   7
ENDBRANCH   1   4
BRANCH   1  17
ATOM     17  C   UNL     1      -7.439 -13.857   3.550  0.00  0.00    +0.000 C 
ATOM     18  H   UNL     1      -8.040 -14.709   3.891  0.00  0.00    +0.000 HD
ATOM     19  H   UNL     1      -7.980 -13.357   2.738  0.00  0.00    +0.000 HD
BRANCH  17  21
ATOM     20  O   UNL     1      -5.228 -14.816   3.678  0.00  0.00    +0.000 OA
ATOM     21  C   UNL     1      -6.144 -14.405   2.969  0.00  0.00    +0.000 C 
BRANCH  21  22
ATOM     22  C   UNL     1      -6.042 -14.373   1.452  0.00  0.00    +0.000 C 
ATOM     23  H   UNL     1      -6.164 -15.395   1.079  0.00  0.00    +0.000 HD
ATOM     24  H   UNL     1      -5.040 -14.020   1.186  0.00  0.00    +0.000 HD
BRANCH  22  25
ATOM     25  C   UNL     1      -7.083 -13.472   0.812  0.00  0.00    +0.000 C 
ATOM     26  H   UNL     1      -7.773 -13.074   1.563  0.00  0.00    +0.000 HD
ATOM     27  H   UNL     1      -7.665 -14.028   0.071  0.00  0.00    +0.000 HD
ATOM     28  H   UNL     1      -6.610 -12.622   0.308  0.00  0.00    +0.000 HD
ENDBRANCH  22  25
ENDBRANCH  21  22
ENDBRANCH  17  21
ENDBRANCH   1  17
TORSDOF 8
ENDMDL
MODEL 4
REMARK VINA RESULT:    -4.182     15.847     17.421
REMARK INTER + INTRA:          -6.188
REMARK INTER:                  -5.731
REMARK INTRA:                  -0.457
REMARK UNBOUND:                -0.295
REMARK  Name = 61235
REMARK  8 active torsions:
REMARK  status: ('A' for Active; 'I' for Inactive)
REMARK    1  A    between atoms: C_2  and  C_3
REMARK    2  A    between atoms: C_2  and  C_4
REMARK    3  A    between atoms: C_3  and  C_5
REMARK    4  A    between atoms: C_4  and  C_6
REMARK    5  A    between atoms: C_5  and  C_7
REMARK    6  A    between atoms: C_6  and  C_8
REMARK    7  A    between atoms: C_7  and  C_9
REMARK    8  A    between atoms: C_9  and  C_10
REMARK                            x       y       z     vdW  Elec       q    Type
REMARK                         _______ _______ _______ _____ _____    ______ ____
ROOT
ATOM      1  C   UNL     1      -6.115 -13.053   3.223  0.00  0.00    +0.000 C 
ATOM      2  H   UNL     1      -5.273 -13.700   2.949  0.00  0.00    +0.000 HD
ATOM      3  H   UNL     1      -5.843 -12.037   2.909  0.00  0.00    +0.000 HD
ENDROOT
BRANCH   1   4
ATOM      4  C   UNL     1      -6.313 -13.080   4.741  0.00  0.00    +0.000 C 
ATOM      5  H   UNL     1      -5.839 -12.200   5.190  0.00  0.00    +0.000 HD
ATOM      6  H   UNL     1      -5.817 -13.965   5.159  0.00  0.00    +0.000 HD
BRANCH   4   7
ATOM      7  C   UNL     1      -7.799 -13.107   5.105  0.00  0.00    +0.000 C 
ATOM      8  H   UNL     1      -8.149 -12.088   5.305  0.00  0.00    +0.000 HD
ATOM      9  H   UNL     1      -8.379 -13.486   4.253  0.00  0.00    +0.000 HD
BRANCH   7  10
ATOM     10  C   UNL     1      -8.056 -13.989   6.327  0.00  0.00    +0.000 C 
ATOM     11  H   UNL     1      -7.112 -14.195   6.843  0.00  0.00    +0.000 HD
ATOM     12  H   UNL     1      -8.706 -13.462   7.035  0.00  0.00    +0.000 HD
BRANCH  10  13
ATOM     13  C   UNL     1      -8.707 -15.307   5.936  0.00  0.00    +0.000 C 
ATOM     14  H   UNL     1      -9.670 -15.125   5.449  0.00  0.00    +0.000 HD
ATOM     15  H   UNL     1      -8.073 -15.865   5.239  0.00  0.00    +0.000 HD
ATOM     16  H   UNL     1      -8.884 -15.933   6.817  0.00  0.00    +0.000 HD
ENDBRANCH  10  13
ENDBRANCH   7  10
ENDBRANCH   4   7
ENDBRANCH   1   4
BRANCH   1  17
ATOM     17  C   UNL     1      -7.364 -13.497   2.464  0.00  0.00    +0.000 C 
ATOM     18  H   UNL     1      -7.825 -14.350   2.977  0.00  0.00    +0.000 HD
ATOM     19  H   UNL     1      -8.090 -12.676   2.441  0.00  0.00    +0.000 HD
BRANCH  17  21
ATOM     20  O   UNL     1      -7.110 -13.104   0.096  0.00  0.00    +0.000 OA
ATOM     21  C   UNL     1      -7.097 -13.911   1.025  0.00  0.00    +0.000 C 
BRANCH  21  22
ATOM     22  C   UNL     1      -6.851 -15.394   0.804  0.00  0.00    +0.000 C 
ATOM     23  H   UNL     1      -5.770 -15.557   0.745  0.00  0.00    +0.000 HD
ATOM     24  H   UNL     1      -7.300 -15.675  -0.155  0.00  0.00    +0.000 HD
BRANCH  22  25
ATOM     25  C   UNL     1      -7.435 -16.257   1.908  0.00  0.00    +0.000 C 
ATOM     26  H   UNL     1      -7.301 -15.786   2.887  0.00  0.00    +0.000 HD
ATOM     27  H   UNL     1      -6.944 -17.235   1.928  0.00  0.00    +0.000 HD
ATOM     28  H   UNL     1      -8.508 -16.415   1.757  0.00  0.00    +0.000 HD
ENDBRANCH  22  25
ENDBRANCH  21  22
ENDBRANCH  17  21
ENDBRANCH   1  17
TORSDOF 8
ENDMDL
MODEL 5
REMARK VINA RESULT:    -4.171     13.954     15.888
REMARK INTER + INTRA:          -6.173
REMARK INTER:                  -5.489
REMARK INTRA:                  -0.684
REMARK UNBOUND:                -0.295
REMARK  Name = 61235
REMARK  8 active torsions:
REMARK  status: ('A' for Active; 'I' for Inactive)
REMARK    1  A    between atoms: C_2  and  C_3
REMARK    2  A    between atoms: C_2  and  C_4
REMARK    3  A    between atoms: C_3  and  C_5
REMARK    4  A    between atoms: C_4  and  C_6
REMARK    5  A    between atoms: C_5  and  C_7
REMARK    6  A    between atoms: C_6  and  C_8
REMARK    7  A    between atoms: C_7  and  C_9
REMARK    8  A    between atoms: C_9  and  C_10
REMARK                            x       y       z     vdW  Elec       q    Type
REMARK                         _______ _______ _______ _____ _____    ______ ____
ROOT
ATOM      1  C   UNL     1      18.641  -6.527  -1.224  0.00  0.00    +0.000 C 
ATOM      2  H   UNL     1      18.679  -7.332  -1.968  0.00  0.00    +0.000 HD
ATOM      3  H   UNL     1      19.251  -6.858  -0.375  0.00  0.00    +0.000 HD
ENDROOT
BRANCH   1   4
ATOM      4  C   UNL     1      17.195  -6.320  -0.762  0.00  0.00    +0.000 C 
ATOM      5  H   UNL     1      17.137  -6.439   0.326  0.00  0.00    +0.000 HD
ATOM      6  H   UNL     1      16.555  -7.092  -1.208  0.00  0.00    +0.000 HD
BRANCH   4   7
ATOM      7  C   UNL     1      16.680  -4.935  -1.159  0.00  0.00    +0.000 C 
ATOM      8  H   UNL     1      16.237  -4.442  -0.285  0.00  0.00    +0.000 HD
ATOM      9  H   UNL     1      17.521  -4.312  -1.490  0.00  0.00    +0.000 HD
BRANCH   7  10
ATOM     10  C   UNL     1      15.644  -5.028  -2.278  0.00  0.00    +0.000 C 
ATOM     11  H   UNL     1      14.786  -4.386  -2.046  0.00  0.00    +0.000 HD
ATOM     12  H   UNL     1      16.077  -4.665  -3.217  0.00  0.00    +0.000 HD
BRANCH  10  13
ATOM     13  C   UNL     1      15.156  -6.456  -2.470  0.00  0.00    +0.000 C 
ATOM     14  H   UNL     1      14.549  -6.767  -1.614  0.00  0.00    +0.000 HD
ATOM     15  H   UNL     1      14.542  -6.542  -3.372  0.00  0.00    +0.000 HD
ATOM     16  H   UNL     1      15.999  -7.149  -2.560  0.00  0.00    +0.000 HD
ENDBRANCH  10  13
ENDBRANCH   7  10
ENDBRANCH   4   7
ENDBRANCH   1   4
BRANCH   1  17
ATOM     17  C   UNL     1      19.250  -5.258  -1.817  0.00  0.00    +0.000 C 
ATOM     18  H   UNL     1      18.653  -4.387  -1.520  0.00  0.00    +0.000 HD
ATOM     19  H   UNL     1      20.268  -5.126  -1.434  0.00  0.00    +0.000 HD
BRANCH  17  21
ATOM     20  O   UNL     1      19.577  -4.252  -3.987  0.00  0.00    +0.000 OA
ATOM     21  C   UNL     1      19.332  -5.266  -3.337  0.00  0.00    +0.000 C 
BRANCH  21  22
ATOM     22  C   UNL     1      19.050  -6.604  -4.001  0.00  0.00    +0.000 C 
ATOM     23  H   UNL     1      18.879  -7.347  -3.215  0.00  0.00    +0.000 HD
ATOM     24  H   UNL     1      19.940  -6.896  -4.570  0.00  0.00    +0.000 HD
BRANCH  22  25
ATOM     25  C   UNL     1      17.849  -6.559  -4.928  0.00  0.00    +0.000 C 
ATOM     26  H   UNL     1      16.914  -6.615  -4.362  0.00  0.00    +0.000 HD
ATOM     27  H   UNL     1      17.877  -7.398  -5.629  0.00  0.00    +0.000 HD
ATOM     28  H   UNL     1      17.835  -5.629  -5.507  0.00  0.00    +0.000 HD
ENDBRANCH  22  25
ENDBRANCH  21  22
ENDBRANCH  17  21
ENDBRANCH   1  17
TORSDOF 8
ENDMDL
MODEL 6
REMARK VINA RESULT:    -4.135     16.843     18.577
REMARK INTER + INTRA:          -6.122
REMARK INTER:                  -5.758
REMARK INTRA:                  -0.364
REMARK UNBOUND:                -0.295
REMARK  Name = 61235
REMARK  8 active torsions:
REMARK  status: ('A' for Active; 'I' for Inactive)
REMARK    1  A    between atoms: C_2  and  C_3
REMARK    2  A    between atoms: C_2  and  C_4
REMARK    3  A    between atoms: C_3  and  C_5
REMARK    4  A    between atoms: C_4  and  C_6
REMARK    5  A    between atoms: C_5  and  C_7
REMARK    6  A    between atoms: C_6  and  C_8
REMARK    7  A    between atoms: C_7  and  C_9
REMARK    8  A    between atoms: C_9  and  C_10
REMARK                            x       y       z     vdW  Elec       q    Type
REMARK                         _______ _______ _______ _____ _____    ______ ____
ROOT
ATOM      1  C   UNL     1      16.182   5.568  -1.257  0.00  0.00    +0.000 C 
ATOM      2  H   UNL     1      16.977   4.921  -1.648  0.00  0.00    +0.000 HD
ATOM      3  H   UNL     1      16.663   6.506  -0.955  0.00  0.00    +0.000 HD
ENDROOT
BRANCH   1   4
ATOM      4  C   UNL     1      15.538   4.909  -0.033  0.00  0.00    +0.000 C 
ATOM      5  H   UNL     1      14.583   5.400   0.188  0.00  0.00    +0.000 HD
ATOM      6  H   UNL     1      16.186   5.051   0.841  0.00  0.00    +0.000 HD
BRANCH   4   7
ATOM      7  C   UNL     1      15.309   3.414  -0.264  0.00  0.00    +0.000 C 
ATOM      8  H   UNL     1      15.110   3.232  -1.327  0.00  0.00    +0.000 HD
ATOM      9  H   UNL     1      16.220   2.859  -0.007  0.00  0.00    +0.000 HD
BRANCH   7  10
ATOM     10  C   UNL     1      14.142   2.895   0.575  0.00  0.00    +0.000 C 
ATOM     11  H   UNL     1      13.881   1.878   0.260  0.00  0.00    +0.000 HD
ATOM     12  H   UNL     1      14.436   2.844   1.629  0.00  0.00    +0.000 HD
BRANCH  10  13
ATOM     13  C   UNL     1      12.917   3.786   0.439  0.00  0.00    +0.000 C 
ATOM     14  H   UNL     1      13.171   4.820   0.693  0.00  0.00    +0.000 HD
ATOM     15  H   UNL     1      12.535   3.773  -0.587  0.00  0.00    +0.000 HD
ATOM     16  H   UNL     1      12.116   3.458   1.109  0.00  0.00    +0.000 HD
ENDBRANCH  10  13
ENDBRANCH   7  10
ENDBRANCH   4   7
ENDBRANCH   1   4
BRANCH   1  17
ATOM     17  C   UNL     1      15.169   5.853  -2.364  0.00  0.00    +0.000 C 
ATOM     18  H   UNL     1      15.375   5.212  -3.229  0.00  0.00    +0.000 HD
ATOM     19  H   UNL     1      14.159   5.631  -2.002  0.00  0.00    +0.000 HD
BRANCH  17  21
ATOM     20  O   UNL     1      14.406   7.702  -3.717  0.00  0.00    +0.000 OA
ATOM     21  C   UNL     1      15.174   7.297  -2.846  0.00  0.00    +0.000 C 
BRANCH  21  22
ATOM     22  C   UNL     1      16.219   8.197  -2.207  0.00  0.00    +0.000 C 
ATOM     23  H   UNL     1      16.626   7.681  -1.331  0.00  0.00    +0.000 HD
ATOM     24  H   UNL     1      15.721   9.113  -1.872  0.00  0.00    +0.000 HD
BRANCH  22  25
ATOM     25  C   UNL     1      17.348   8.553  -3.157  0.00  0.00    +0.000 C 
ATOM     26  H   UNL     1      17.761   9.540  -2.923  0.00  0.00    +0.000 HD
ATOM     27  H   UNL     1      16.987   8.569  -4.190  0.00  0.00    +0.000 HD
ATOM     28  H   UNL     1      18.163   7.825  -3.090  0.00  0.00    +0.000 HD
ENDBRANCH  22  25
ENDBRANCH  21  22
ENDBRANCH  17  21
ENDBRANCH   1  17
TORSDOF 8
ENDMDL
MODEL 7
REMARK VINA RESULT:    -4.088     15.162     16.463
REMARK INTER + INTRA:          -6.056
REMARK INTER:                  -5.599
REMARK INTRA:                  -0.457
REMARK UNBOUND:                -0.295
REMARK  Name = 61235
REMARK  8 active torsions:
REMARK  status: ('A' for Active; 'I' for Inactive)
REMARK    1  A    between atoms: C_2  and  C_3
REMARK    2  A    between atoms: C_2  and  C_4
REMARK    3  A    between atoms: C_3  and  C_5
REMARK    4  A    between atoms: C_4  and  C_6
REMARK    5  A    between atoms: C_5  and  C_7
REMARK    6  A    between atoms: C_6  and  C_8
REMARK    7  A    between atoms: C_7  and  C_9
REMARK    8  A    between atoms: C_9  and  C_10
REMARK                            x       y       z     vdW  Elec       q    Type
REMARK                         _______ _______ _______ _____ _____    ______ ____
ROOT
ATOM      1  C   UNL     1       2.972   6.335 -19.667  0.00  0.00    +0.000 C 
ATOM      2  H   UNL     1       2.921   7.180 -20.366  0.00  0.00    +0.000 HD
ATOM      3  H   UNL     1       2.116   6.439 -18.989  0.00  0.00    +0.000 HD
ENDROOT
BRANCH   1   4
ATOM      4  C   UNL     1       4.272   6.410 -18.861  0.00  0.00    +0.000 C 
ATOM      5  H   UNL     1       4.040   6.443 -17.791  0.00  0.00    +0.000 HD
ATOM      6  H   UNL     1       4.802   7.339 -19.108  0.00  0.00    +0.000 HD
BRANCH   4   7
ATOM      7  C   UNL     1       5.176   5.211 -19.156  0.00  0.00    +0.000 C 
ATOM      8  H   UNL     1       4.561   4.331 -19.377  0.00  0.00    +0.000 HD
ATOM      9  H   UNL     1       5.778   5.417 -20.051  0.00  0.00    +0.000 HD
BRANCH   7  10
ATOM     10  C   UNL     1       6.102   4.910 -17.978  0.00  0.00    +0.000 C 
ATOM     11  H   UNL     1       6.767   5.763 -17.799  0.00  0.00    +0.000 HD
ATOM     12  H   UNL     1       5.510   4.764 -17.068  0.00  0.00    +0.000 HD
BRANCH  10  13
ATOM     13  C   UNL     1       6.944   3.670 -18.233  0.00  0.00    +0.000 C 
ATOM     14  H   UNL     1       8.003   3.938 -18.299  0.00  0.00    +0.000 HD
ATOM     15  H   UNL     1       6.827   2.943 -17.423  0.00  0.00    +0.000 HD
ATOM     16  H   UNL     1       6.657   3.187 -19.173  0.00  0.00    +0.000 HD
ENDBRANCH  10  13
ENDBRANCH   7  10
ENDBRANCH   4   7
ENDBRANCH   1   4
BRANCH   1  17
ATOM     17  C   UNL     1       2.843   5.026 -20.443  0.00  0.00    +0.000 C 
ATOM     18  H   UNL     1       2.851   5.231 -21.520  0.00  0.00    +0.000 HD
ATOM     19  H   UNL     1       3.695   4.377 -20.210  0.00  0.00    +0.000 HD
BRANCH  17  21
ATOM     20  O   UNL     1       0.516   4.801 -19.841  0.00  0.00    +0.000 OA
ATOM     21  C   UNL     1       1.575   4.246 -20.129  0.00  0.00    +0.000 C 
BRANCH  21  22
ATOM     22  C   UNL     1       1.713   2.732 -20.155  0.00  0.00    +0.000 C 
ATOM     23  H   UNL     1       1.144   2.351 -21.009  0.00  0.00    +0.000 HD
ATOM     24  H   UNL     1       1.271   2.334 -19.235  0.00  0.00    +0.000 HD
BRANCH  22  25
ATOM     25  C   UNL     1       3.157   2.276 -20.262  0.00  0.00    +0.000 C 
ATOM     26  H   UNL     1       3.834   3.132 -20.342  0.00  0.00    +0.000 HD
ATOM     27  H   UNL     1       3.293   1.646 -21.146  0.00  0.00    +0.000 HD
ATOM     28  H   UNL     1       3.452   1.697 -19.380  0.00  0.00    +0.000 HD
ENDBRANCH  22  25
ENDBRANCH  21  22
ENDBRANCH  17  21
ENDBRANCH   1  17
TORSDOF 8
ENDMDL
MODEL 8
REMARK VINA RESULT:    -3.997     16.348     17.154
REMARK INTER + INTRA:          -5.928
REMARK INTER:                  -5.126
REMARK INTRA:                  -0.802
REMARK UNBOUND:                -0.295
REMARK  Name = 61235
REMARK  8 active torsions:
REMARK  status: ('A' for Active; 'I' for Inactive)
REMARK    1  A    between atoms: C_2  and  C_3
REMARK    2  A    between atoms: C_2  and  C_4
REMARK    3  A    between atoms: C_3  and  C_5
REMARK    4  A    between atoms: C_4  and  C_6
REMARK    5  A    between atoms: C_5  and  C_7
REMARK    6  A    between atoms: C_6  and  C_8
REMARK    7  A    between atoms: C_7  and  C_9
REMARK    8  A    between atoms: C_9  and  C_10
REMARK                            x       y       z     vdW  Elec       q    Type
REMARK                         _______ _______ _______ _____ _____    ______ ____
ROOT
ATOM      1  C   UNL     1      -0.868   2.912 -20.716  0.00  0.00    +0.000 C 
ATOM      2  H   UNL     1      -1.717   2.452 -20.196  0.00  0.00    +0.000 HD
ATOM      3  H   UNL     1      -1.187   3.921 -21.003  0.00  0.00    +0.000 HD
ENDROOT
BRANCH   1   4
ATOM      4  C   UNL     1      -0.538   2.105 -21.977  0.00  0.00    +0.000 C 
ATOM      5  H   UNL     1      -1.142   1.191 -21.997  0.00  0.00    +0.000 HD
ATOM      6  H   UNL     1       0.515   1.798 -21.949  0.00  0.00    +0.000 HD
BRANCH   4   7
ATOM      7  C   UNL     1      -0.799   2.925 -23.242  0.00  0.00    +0.000 C 
ATOM      8  H   UNL     1      -1.033   2.252 -24.076  0.00  0.00    +0.000 HD
ATOM      9  H   UNL     1      -1.676   3.566 -23.089  0.00  0.00    +0.000 HD
BRANCH   7  10
ATOM     10  C   UNL     1       0.408   3.791 -23.602  0.00  0.00    +0.000 C 
ATOM     11  H   UNL     1       1.262   3.520 -22.971  0.00  0.00    +0.000 HD
ATOM     12  H   UNL     1       0.700   3.607 -24.642  0.00  0.00    +0.000 HD
BRANCH  10  13
ATOM     13  C   UNL     1       0.107   5.270 -23.420  0.00  0.00    +0.000 C 
ATOM     14  H   UNL     1      -0.014   5.755 -24.395  0.00  0.00    +0.000 HD
ATOM     15  H   UNL     1      -0.818   5.415 -22.852  0.00  0.00    +0.000 HD
ATOM     16  H   UNL     1       0.920   5.774 -22.888  0.00  0.00    +0.000 HD
ENDBRANCH  10  13
ENDBRANCH   7  10
ENDBRANCH   4   7
ENDBRANCH   1   4
BRANCH   1  17
ATOM     17  C   UNL     1       0.321   3.011 -19.762  0.00  0.00    +0.000 C 
ATOM     18  H   UNL     1      -0.039   3.061 -18.727  0.00  0.00    +0.000 HD
ATOM     19  H   UNL     1       0.949   2.119 -19.865  0.00  0.00    +0.000 HD
BRANCH  17  21
ATOM     20  O   UNL     1       0.808   5.374 -19.829  0.00  0.00    +0.000 OA
ATOM     21  C   UNL     1       1.206   4.224 -20.005  0.00  0.00    +0.000 C 
BRANCH  21  22
ATOM     22  C   UNL     1       2.605   3.922 -20.518  0.00  0.00    +0.000 C 
ATOM     23  H   UNL     1       3.318   4.521 -19.943  0.00  0.00    +0.000 HD
ATOM     24  H   UNL     1       2.656   4.229 -21.569  0.00  0.00    +0.000 HD
BRANCH  22  25
ATOM     25  C   UNL     1       2.968   2.453 -20.403  0.00  0.00    +0.000 C 
ATOM     26  H   UNL     1       2.145   1.877 -19.968  0.00  0.00    +0.000 HD
ATOM     27  H   UNL     1       3.849   2.326 -19.767  0.00  0.00    +0.000 HD
ATOM     28  H   UNL     1       3.192   2.025 -21.387  0.00  0.00    +0.000 HD
ENDBRANCH  22  25
ENDBRANCH  21  22
ENDBRANCH  17  21
ENDBRANCH   1  17
TORSDOF 8
ENDMDL
MODEL 9
REMARK VINA RESULT:    -3.965     16.025     18.874
REMARK INTER + INTRA:          -5.883
REMARK INTER:                  -5.587
REMARK INTRA:                  -0.295
REMARK UNBOUND:                -0.295
REMARK  Name = 61235
REMARK  8 active torsions:
REMARK  status: ('A' for Active; 'I' for Inactive)
REMARK    1  A    between atoms: C_2  and  C_3
REMARK    2  A    between atoms: C_2  and  C_4
REMARK    3  A    between atoms: C_3  and  C_5
REMARK    4  A    between atoms: C_4  and  C_6
REMARK    5  A    between atoms: C_5  and  C_7
REMARK    6  A    between atoms: C_6  and  C_8
REMARK    7  A    between atoms: C_7  and  C_9
REMARK    8  A    between atoms: C_9  and  C_10
REMARK                            x       y       z     vdW  Elec       q    Type
REMARK                         _______ _______ _______ _____ _____    ______ ____
ROOT
ATOM      1  C   UNL     1     -15.572  -5.267  -3.869  0.00  0.00    +0.000 C 
ATOM      2  H   UNL     1     -15.188  -4.282  -4.160  0.00  0.00    +0.000 HD
ATOM      3  H   UNL     1     -16.322  -5.545  -4.619  0.00  0.00    +0.000 HD
ENDROOT
BRANCH   1   4
ATOM      4  C   UNL     1     -16.239  -5.175  -2.493  0.00  0.00    +0.000 C 
ATOM      5  H   UNL     1     -16.915  -4.312  -2.470  0.00  0.00    +0.000 HD
ATOM      6  H   UNL     1     -15.473  -5.007  -1.726  0.00  0.00    +0.000 HD
BRANCH   4   7
ATOM      7  C   UNL     1     -17.018  -6.451  -2.168  0.00  0.00    +0.000 C 
ATOM      8  H   UNL     1     -16.498  -7.319  -2.591  0.00  0.00    +0.000 HD
ATOM      9  H   UNL     1     -17.052  -6.594  -1.081  0.00  0.00    +0.000 HD
BRANCH   7  10
ATOM     10  C   UNL     1     -18.443  -6.386  -2.718  0.00  0.00    +0.000 C 
ATOM     11  H   UNL     1     -18.422  -6.096  -3.775  0.00  0.00    +0.000 HD
ATOM     12  H   UNL     1     -18.908  -7.377  -2.662  0.00  0.00    +0.000 HD
BRANCH  10  13
ATOM     13  C   UNL     1     -19.294  -5.390  -1.946  0.00  0.00    +0.000 C 
ATOM     14  H   UNL     1     -19.123  -4.376  -2.322  0.00  0.00    +0.000 HD
ATOM     15  H   UNL     1     -20.359  -5.617  -2.054  0.00  0.00    +0.000 HD
ATOM     16  H   UNL     1     -19.045  -5.403  -0.880  0.00  0.00    +0.000 HD
ENDBRANCH  10  13
ENDBRANCH   7  10
ENDBRANCH   4   7
ENDBRANCH   1   4
BRANCH   1  17
ATOM     17  C   UNL     1     -14.432  -6.284  -3.895  0.00  0.00    +0.000 C 
ATOM     18  H   UNL     1     -14.420  -6.851  -2.957  0.00  0.00    +0.000 HD
ATOM     19  H   UNL     1     -14.588  -6.987  -4.721  0.00  0.00    +0.000 HD
BRANCH  17  21
ATOM     20  O   UNL     1     -12.057  -6.093  -3.504  0.00  0.00    +0.000 OA
ATOM     21  C   UNL     1     -13.055  -5.662  -4.078  0.00  0.00    +0.000 C 
BRANCH  21  22
ATOM     22  C   UNL     1     -13.002  -4.445  -4.988  0.00  0.00    +0.000 C 
ATOM     23  H   UNL     1     -12.372  -3.688  -4.511  0.00  0.00    +0.000 HD
ATOM     24  H   UNL     1     -14.018  -4.046  -5.083  0.00  0.00    +0.000 HD
BRANCH  22  25
ATOM     25  C   UNL     1     -12.455  -4.766  -6.367  0.00  0.00    +0.000 C 
ATOM     26  H   UNL     1     -12.100  -3.860  -6.869  0.00  0.00    +0.000 HD
ATOM     27  H   UNL     1     -13.230  -5.222  -6.989  0.00  0.00    +0.000 HD
ATOM     28  H   UNL     1     -11.613  -5.464  -6.302  0.00  0.00    +0.000 HD
ENDBRANCH  22  25
ENDBRANCH  21  22
ENDBRANCH  17  21
ENDBRANCH   1  17
TORSDOF 8
ENDMDL
MODEL 10
REMARK VINA RESULT:    -3.909     17.990     21.738
REMARK INTER + INTRA:          -5.804
REMARK INTER:                  -5.621
REMARK INTRA:                  -0.184
REMARK UNBOUND:                -0.295
REMARK  Name = 61235
REMARK  8 active torsions:
REMARK  status: ('A' for Active; 'I' for Inactive)
REMARK    1  A    between atoms: C_2  and  C_3
REMARK    2  A    between atoms: C_2  and  C_4
REMARK    3  A    between atoms: C_3  and  C_5
REMARK    4  A    between atoms: C_4  and  C_6
REMARK    5  A    between atoms: C_5  and  C_7
REMARK    6  A    between atoms: C_6  and  C_8
REMARK    7  A    between atoms: C_7  and  C_9
REMARK    8  A    between atoms: C_9  and  C_10
REMARK                            x       y       z     vdW  Elec       q    Type
REMARK                         _______ _______ _______ _____ _____    ______ ____
ROOT
ATOM      1  C   UNL     1     -16.868  -6.003  -2.164  0.00  0.00    +0.000 C 
ATOM      2  H   UNL     1     -17.262  -5.242  -1.479  0.00  0.00    +0.000 HD
ATOM      3  H   UNL     1     -16.368  -6.754  -1.540  0.00  0.00    +0.000 HD
ENDROOT
BRANCH   1   4
ATOM      4  C   UNL     1     -15.846  -5.365  -3.110  0.00  0.00    +0.000 C 
ATOM      5  H   UNL     1     -15.178  -4.708  -2.541  0.00  0.00    +0.000 HD
ATOM      6  H   UNL     1     -16.368  -4.740  -3.844  0.00  0.00    +0.000 HD
BRANCH   4   7
ATOM      7  C   UNL     1     -15.024  -6.431  -3.837  0.00  0.00    +0.000 C 
ATOM      8  H   UNL     1     -14.640  -7.160  -3.113  0.00  0.00    +0.000 HD
ATOM      9  H   UNL     1     -15.670  -6.979  -4.535  0.00  0.00    +0.000 HD
BRANCH   7  10
ATOM     10  C   UNL     1     -13.859  -5.807  -4.605  0.00  0.00    +0.000 C 
ATOM     11  H   UNL     1     -13.715  -6.333  -5.556  0.00  0.00    +0.000 HD
ATOM     12  H   UNL     1     -14.088  -4.762  -4.843  0.00  0.00    +0.000 HD
BRANCH  10  13
ATOM     13  C   UNL     1     -12.568  -5.867  -3.805  0.00  0.00    +0.000 C 
ATOM     14  H   UNL     1     -11.753  -6.249  -4.429  0.00  0.00    +0.000 HD
ATOM     15  H   UNL     1     -12.283  -4.873  -3.445  0.00  0.00    +0.000 HD
ATOM     16  H   UNL     1     -12.672  -6.530  -2.939  0.00  0.00    +0.000 HD
ENDBRANCH  10  13
ENDBRANCH   7  10
ENDBRANCH   4   7
ENDBRANCH   1   4
BRANCH   1  17
ATOM     17  C   UNL     1     -18.025  -6.659  -2.915  0.00  0.00    +0.000 C 
ATOM     18  H   UNL     1     -17.878  -6.543  -3.995  0.00  0.00    +0.000 HD
ATOM     19  H   UNL     1     -18.050  -7.730  -2.683  0.00  0.00    +0.000 HD
BRANCH  17  21
ATOM     20  O   UNL     1     -19.528  -5.151  -1.779  0.00  0.00    +0.000 OA
ATOM     21  C   UNL     1     -19.390  -6.084  -2.567  0.00  0.00    +0.000 C 
BRANCH  21  22
ATOM     22  C   UNL     1     -20.576  -6.766  -3.229  0.00  0.00    +0.000 C 
ATOM     23  H   UNL     1     -20.413  -6.762  -4.312  0.00  0.00    +0.000 HD
ATOM     24  H   UNL     1     -21.474  -6.178  -3.009  0.00  0.00    +0.000 HD
BRANCH  22  25
ATOM     25  C   UNL     1     -20.776  -8.193  -2.751  0.00  0.00    +0.000 C 
ATOM     26  H   UNL     1     -20.071  -8.441  -1.951  0.00  0.00    +0.000 HD
ATOM     27  H   UNL     1     -20.623  -8.896  -3.574  0.00  0.00    +0.000 HD
ATOM     28  H   UNL     1     -21.789  -8.337  -2.360  0.00  0.00    +0.000 HD
ENDBRANCH  22  25
ENDBRANCH  21  22
ENDBRANCH  17  21
ENDBRANCH   1  17
TORSDOF 8
ENDMDL
