MODEL 1
REMARK VINA RESULT:    -4.751      0.000      0.000
REMARK INTER + INTRA:          -6.974
REMARK INTER:                  -6.791
REMARK INTRA:                  -0.182
REMARK UNBOUND:                -0.556
REMARK  Name = 246728
REMARK  7 active torsions:
REMARK  status: ('A' for Active; 'I' for Inactive)
REMARK    1  A    between atoms: C_2  and  C_3
REMARK    2  A    between atoms: C_2  and  C_4
REMARK    3  A    between atoms: C_3  and  C_5
REMARK    4  A    between atoms: C_4  and  C_6
REMARK    5  A    between atoms: C_5  and  C_8
REMARK    6  A    between atoms: C_6  and  C_7
REMARK    7  A    between atoms: C_7  and  C_9
REMARK                            x       y       z     vdW  Elec       q    Type
REMARK                         _______ _______ _______ _____ _____    ______ ____
ROOT
ATOM      1  C   UNL     1       4.107  -6.005  -9.644  0.00  0.00    +0.000 C 
ATOM      2  H   UNL     1       3.555  -6.447 -10.483  0.00  0.00    +0.000 HD
ATOM      3  H   UNL     1       3.693  -4.999  -9.494  0.00  0.00    +0.000 HD
ENDROOT
BRANCH   1   4
ATOM      4  C   UNL     1       5.592  -5.896 -10.002  0.00  0.00    +0.000 C 
ATOM      5  H   UNL     1       5.736  -6.156 -11.058  0.00  0.00    +0.000 HD
ATOM      6  H   UNL     1       5.921  -4.857  -9.877  0.00  0.00    +0.000 HD
BRANCH   4   7
ATOM      7  C   UNL     1       6.443  -6.814  -9.123  0.00  0.00    +0.000 C 
ATOM      8  H   UNL     1       7.003  -7.517  -9.752  0.00  0.00    +0.000 HD
ATOM      9  H   UNL     1       5.796  -7.409  -8.469  0.00  0.00    +0.000 HD
BRANCH   7  10
ATOM     10  C   UNL     1       7.418  -6.019  -8.270  0.00  0.00    +0.000 C 
ATOM     11  H   UNL     1       7.339  -6.323  -7.222  0.00  0.00    +0.000 HD
ATOM     12  H   UNL     1       8.450  -6.185  -8.596  0.00  0.00    +0.000 HD
ATOM     13  H   UNL     1       7.207  -4.946  -8.328  0.00  0.00    +0.000 HD
ENDBRANCH   7  10
ENDBRANCH   4   7
ENDBRANCH   1   4
BRANCH   1  14
ATOM     14  C   UNL     1       3.871  -6.844  -8.388  0.00  0.00    +0.000 C 
ATOM     15  H   UNL     1       3.723  -7.893  -8.667  0.00  0.00    +0.000 HD
ATOM     16  H   UNL     1       4.750  -6.780  -7.737  0.00  0.00    +0.000 HD
BRANCH  14  18
ATOM     17  O   UNL     1       1.534  -6.334  -8.054  0.00  0.00    +0.000 OA
ATOM     18  C   UNL     1       2.663  -6.406  -7.572  0.00  0.00    +0.000 C 
BRANCH  18  19
ATOM     19  C   UNL     1       2.952  -6.028  -6.128  0.00  0.00    +0.000 C 
ATOM     20  H   UNL     1       3.193  -6.943  -5.577  0.00  0.00    +0.000 HD
ATOM     21  H   UNL     1       3.827  -5.370  -6.116  0.00  0.00    +0.000 HD
BRANCH  19  22
ATOM     22  C   UNL     1       1.783  -5.326  -5.460  0.00  0.00    +0.000 C 
ATOM     23  H   UNL     1       2.129  -4.500  -4.829  0.00  0.00    +0.000 HD
ATOM     24  H   UNL     1       1.219  -6.019  -4.825  0.00  0.00    +0.000 HD
ATOM     25  H   UNL     1       1.101  -4.920  -6.213  0.00  0.00    +0.000 HD
ENDBRANCH  19  22
ENDBRANCH  18  19
ENDBRANCH  14  18
ENDBRANCH   1  14
TORSDOF 7
ENDMDL
MODEL 2
REMARK VINA RESULT:    -4.750      2.016      4.799
REMARK INTER + INTRA:          -6.972
REMARK INTER:                  -6.789
REMARK INTRA:                  -0.184
REMARK UNBOUND:                -0.556
REMARK  Name = 246728
REMARK  7 active torsions:
REMARK  status: ('A' for Active; 'I' for Inactive)
REMARK    1  A    between atoms: C_2  and  C_3
REMARK    2  A    between atoms: C_2  and  C_4
REMARK    3  A    between atoms: C_3  and  C_5
REMARK    4  A    between atoms: C_4  and  C_6
REMARK    5  A    between atoms: C_5  and  C_8
REMARK    6  A    between atoms: C_6  and  C_7
REMARK    7  A    between atoms: C_7  and  C_9
REMARK                            x       y       z     vdW  Elec       q    Type
REMARK                         _______ _______ _______ _____ _____    ______ ____
ROOT
ATOM      1  C   UNL     1       3.492  -6.696  -7.840  0.00  0.00    +0.000 C 
ATOM      2  H   UNL     1       3.528  -7.355  -6.964  0.00  0.00    +0.000 HD
ATOM      3  H   UNL     1       4.238  -5.909  -7.668  0.00  0.00    +0.000 HD
ENDROOT
BRANCH   1   4
ATOM      4  C   UNL     1       2.102  -6.063  -7.953  0.00  0.00    +0.000 C 
ATOM      5  H   UNL     1       2.125  -5.255  -8.695  0.00  0.00    +0.000 HD
ATOM      6  H   UNL     1       1.387  -6.813  -8.314  0.00  0.00    +0.000 HD
BRANCH   4   7
ATOM      7  C   UNL     1       1.632  -5.513  -6.605  0.00  0.00    +0.000 C 
ATOM      8  H   UNL     1       1.987  -4.483  -6.480  0.00  0.00    +0.000 HD
ATOM      9  H   UNL     1       2.062  -6.106  -5.790  0.00  0.00    +0.000 HD
BRANCH   7  10
ATOM     10  C   UNL     1       0.116  -5.538  -6.494  0.00  0.00    +0.000 C 
ATOM     11  H   UNL     1      -0.282  -6.451  -6.950  0.00  0.00    +0.000 HD
ATOM     12  H   UNL     1      -0.201  -5.515  -5.446  0.00  0.00    +0.000 HD
ATOM     13  H   UNL     1      -0.330  -4.680  -7.007  0.00  0.00    +0.000 HD
ENDBRANCH   7  10
ENDBRANCH   4   7
ENDBRANCH   1   4
BRANCH   1  14
ATOM     14  C   UNL     1       3.872  -7.494  -9.087  0.00  0.00    +0.000 C 
ATOM     15  H   UNL     1       3.517  -8.526  -8.987  0.00  0.00    +0.000 HD
ATOM     16  H   UNL     1       3.392  -7.048  -9.965  0.00  0.00    +0.000 HD
BRANCH  14  18
ATOM     17  O   UNL     1       5.986  -8.601  -9.463  0.00  0.00    +0.000 OA
ATOM     18  C   UNL     1       5.369  -7.541  -9.356  0.00  0.00    +0.000 C 
BRANCH  18  19
ATOM     19  C   UNL     1       6.060  -6.190  -9.448  0.00  0.00    +0.000 C 
ATOM     20  H   UNL     1       6.462  -6.081 -10.460  0.00  0.00    +0.000 HD
ATOM     21  H   UNL     1       5.309  -5.411  -9.282  0.00  0.00    +0.000 HD
BRANCH  19  22
ATOM     22  C   UNL     1       7.182  -6.035  -8.437  0.00  0.00    +0.000 C 
ATOM     23  H   UNL     1       8.141  -5.862  -8.936  0.00  0.00    +0.000 HD
ATOM     24  H   UNL     1       7.283  -6.935  -7.820  0.00  0.00    +0.000 HD
ATOM     25  H   UNL     1       6.983  -5.188  -7.774  0.00  0.00    +0.000 HD
ENDBRANCH  19  22
ENDBRANCH  18  19
ENDBRANCH  14  18
ENDBRANCH   1  14
TORSDOF 7
ENDMDL
MODEL 3
REMARK VINA RESULT:    -4.339      1.611      2.059
REMARK INTER + INTRA:          -6.417
REMARK INTER:                  -6.288
REMARK INTRA:                  -0.129
REMARK UNBOUND:                -0.556
REMARK  Name = 246728
REMARK  7 active torsions:
REMARK  status: ('A' for Active; 'I' for Inactive)
REMARK    1  A    between atoms: C_2  and  C_3
REMARK    2  A    between atoms: C_2  and  C_4
REMARK    3  A    between atoms: C_3  and  C_5
REMARK    4  A    between atoms: C_4  and  C_6
REMARK    5  A    between atoms: C_5  and  C_8
REMARK    6  A    between atoms: C_6  and  C_7
REMARK    7  A    between atoms: C_7  and  C_9
REMARK                            x       y       z     vdW  Elec       q    Type
REMARK                         _______ _______ _______ _____ _____    ______ ____
ROOT
ATOM      1  C   UNL     1       3.560  -6.432  -8.919  0.00  0.00    +0.000 C 
ATOM      2  H   UNL     1       2.997  -6.639  -9.837  0.00  0.00    +0.000 HD
ATOM      3  H   UNL     1       4.051  -5.461  -9.066  0.00  0.00    +0.000 HD
ENDROOT
BRANCH   1   4
ATOM      4  C   UNL     1       4.625  -7.512  -8.710  0.00  0.00    +0.000 C 
ATOM      5  H   UNL     1       4.591  -7.866  -7.672  0.00  0.00    +0.000 HD
ATOM      6  H   UNL     1       4.403  -8.372  -9.353  0.00  0.00    +0.000 HD
BRANCH   4   7
ATOM      7  C   UNL     1       6.023  -6.981  -9.029  0.00  0.00    +0.000 C 
ATOM      8  H   UNL     1       6.597  -7.744  -9.567  0.00  0.00    +0.000 HD
ATOM      9  H   UNL     1       6.562  -6.765  -8.099  0.00  0.00    +0.000 HD
BRANCH   7  10
ATOM     10  C   UNL     1       5.958  -5.717  -9.871  0.00  0.00    +0.000 C 
ATOM     11  H   UNL     1       6.145  -4.837  -9.247  0.00  0.00    +0.000 HD
ATOM     12  H   UNL     1       6.710  -5.736 -10.666  0.00  0.00    +0.000 HD
ATOM     13  H   UNL     1       4.972  -5.602 -10.332  0.00  0.00    +0.000 HD
ENDBRANCH   7  10
ENDBRANCH   4   7
ENDBRANCH   1   4
BRANCH   1  14
ATOM     14  C   UNL     1       2.588  -6.337  -7.743  0.00  0.00    +0.000 C 
ATOM     15  H   UNL     1       2.239  -7.339  -7.471  0.00  0.00    +0.000 HD
ATOM     16  H   UNL     1       3.104  -5.904  -6.878  0.00  0.00    +0.000 HD
BRANCH  14  18
ATOM     17  O   UNL     1       1.436  -4.394  -8.600  0.00  0.00    +0.000 OA
ATOM     18  C   UNL     1       1.363  -5.478  -8.023  0.00  0.00    +0.000 C 
BRANCH  18  19
ATOM     19  C   UNL     1       0.044  -6.034  -7.509  0.00  0.00    +0.000 C 
ATOM     20  H   UNL     1      -0.588  -6.266  -8.373  0.00  0.00    +0.000 HD
ATOM     21  H   UNL     1       0.252  -6.962  -6.967  0.00  0.00    +0.000 HD
BRANCH  19  22
ATOM     22  C   UNL     1      -0.683  -5.066  -6.593  0.00  0.00    +0.000 C 
ATOM     23  H   UNL     1      -0.065  -4.188  -6.377  0.00  0.00    +0.000 HD
ATOM     24  H   UNL     1      -0.935  -5.542  -5.638  0.00  0.00    +0.000 HD
ATOM     25  H   UNL     1      -1.612  -4.724  -7.060  0.00  0.00    +0.000 HD
ENDBRANCH  19  22
ENDBRANCH  18  19
ENDBRANCH  14  18
ENDBRANCH   1  14
TORSDOF 7
ENDMDL
MODEL 4
REMARK VINA RESULT:    -4.305      3.570      5.278
REMARK INTER + INTRA:          -6.372
REMARK INTER:                  -6.005
REMARK INTRA:                  -0.367
REMARK UNBOUND:                -0.556
REMARK  Name = 246728
REMARK  7 active torsions:
REMARK  status: ('A' for Active; 'I' for Inactive)
REMARK    1  A    between atoms: C_2  and  C_3
REMARK    2  A    between atoms: C_2  and  C_4
REMARK    3  A    between atoms: C_3  and  C_5
REMARK    4  A    between atoms: C_4  and  C_6
REMARK    5  A    between atoms: C_5  and  C_8
REMARK    6  A    between atoms: C_6  and  C_7
REMARK    7  A    between atoms: C_7  and  C_9
REMARK                            x       y       z     vdW  Elec       q    Type
REMARK                         _______ _______ _______ _____ _____    ______ ____
ROOT
ATOM      1  C   UNL     1       0.058  -4.472  -8.123  0.00  0.00    +0.000 C 
ATOM      2  H   UNL     1       1.102  -4.152  -8.233  0.00  0.00    +0.000 HD
ATOM      3  H   UNL     1      -0.300  -4.719  -9.132  0.00  0.00    +0.000 HD
ENDROOT
BRANCH   1   4
ATOM      4  C   UNL     1      -0.779  -3.322  -7.555  0.00  0.00    +0.000 C 
ATOM      5  H   UNL     1      -1.833  -3.468  -7.820  0.00  0.00    +0.000 HD
ATOM      6  H   UNL     1      -0.716  -3.332  -6.460  0.00  0.00    +0.000 HD
BRANCH   4   7
ATOM      7  C   UNL     1      -0.295  -1.971  -8.084  0.00  0.00    +0.000 C 
ATOM      8  H   UNL     1      -0.984  -1.179  -7.767  0.00  0.00    +0.000 HD
ATOM      9  H   UNL     1      -0.291  -1.978  -9.180  0.00  0.00    +0.000 HD
BRANCH   7  10
ATOM     10  C   UNL     1       1.104  -1.647  -7.584  0.00  0.00    +0.000 C 
ATOM     11  H   UNL     1       1.850  -1.940  -8.330  0.00  0.00    +0.000 HD
ATOM     12  H   UNL     1       1.215  -0.574  -7.395  0.00  0.00    +0.000 HD
ATOM     13  H   UNL     1       1.324  -2.185  -6.656  0.00  0.00    +0.000 HD
ENDBRANCH   7  10
ENDBRANCH   4   7
ENDBRANCH   1   4
BRANCH   1  14
ATOM     14  C   UNL     1       0.004  -5.722  -7.245  0.00  0.00    +0.000 C 
ATOM     15  H   UNL     1      -0.988  -6.182  -7.319  0.00  0.00    +0.000 HD
ATOM     16  H   UNL     1       0.748  -6.446  -7.596  0.00  0.00    +0.000 HD
BRANCH  14  18
ATOM     17  O   UNL     1      -0.597  -5.510  -4.915  0.00  0.00    +0.000 OA
ATOM     18  C   UNL     1       0.283  -5.454  -5.773  0.00  0.00    +0.000 C 
BRANCH  18  19
ATOM     19  C   UNL     1       1.716  -5.075  -5.438  0.00  0.00    +0.000 C 
ATOM     20  H   UNL     1       1.898  -4.063  -5.811  0.00  0.00    +0.000 HD
ATOM     21  H   UNL     1       1.824  -5.073  -4.348  0.00  0.00    +0.000 HD
BRANCH  19  22
ATOM     22  C   UNL     1       2.731  -6.029  -6.042  0.00  0.00    +0.000 C 
ATOM     23  H   UNL     1       2.982  -5.740  -7.068  0.00  0.00    +0.000 HD
ATOM     24  H   UNL     1       2.342  -7.053  -6.069  0.00  0.00    +0.000 HD
ATOM     25  H   UNL     1       3.653  -6.030  -5.453  0.00  0.00    +0.000 HD
ENDBRANCH  19  22
ENDBRANCH  18  19
ENDBRANCH  14  18
ENDBRANCH   1  14
TORSDOF 7
ENDMDL
MODEL 5
REMARK VINA RESULT:    -4.240     13.049     14.890
REMARK INTER + INTRA:          -6.284
REMARK INTER:                  -5.841
REMARK INTRA:                  -0.443
REMARK UNBOUND:                -0.556
REMARK  Name = 246728
REMARK  7 active torsions:
REMARK  status: ('A' for Active; 'I' for Inactive)
REMARK    1  A    between atoms: C_2  and  C_3
REMARK    2  A    between atoms: C_2  and  C_4
REMARK    3  A    between atoms: C_3  and  C_5
REMARK    4  A    between atoms: C_4  and  C_6
REMARK    5  A    between atoms: C_5  and  C_8
REMARK    6  A    between atoms: C_6  and  C_7
REMARK    7  A    between atoms: C_7  and  C_9
REMARK                            x       y       z     vdW  Elec       q    Type
REMARK                         _______ _______ _______ _____ _____    ______ ____
ROOT
ATOM      1  C   UNL     1      16.370  -4.559  -2.311  0.00  0.00    +0.000 C 
ATOM      2  H   UNL     1      15.709  -3.717  -2.550  0.00  0.00    +0.000 HD
ATOM      3  H   UNL     1      16.223  -5.305  -3.104  0.00  0.00    +0.000 HD
ENDROOT
BRANCH   1   4
ATOM      4  C   UNL     1      15.970  -5.166  -0.963  0.00  0.00    +0.000 C 
ATOM      5  H   UNL     1      16.850  -5.228  -0.312  0.00  0.00    +0.000 HD
ATOM      6  H   UNL     1      15.246  -4.507  -0.468  0.00  0.00    +0.000 HD
BRANCH   4   7
ATOM      7  C   UNL     1      15.359  -6.557  -1.141  0.00  0.00    +0.000 C 
ATOM      8  H   UNL     1      14.491  -6.670  -0.481  0.00  0.00    +0.000 HD
ATOM      9  H   UNL     1      16.087  -7.324  -0.853  0.00  0.00    +0.000 HD
BRANCH   7  10
ATOM     10  C   UNL     1      14.930  -6.795  -2.580  0.00  0.00    +0.000 C 
ATOM     11  H   UNL     1      15.414  -6.072  -3.244  0.00  0.00    +0.000 HD
ATOM     12  H   UNL     1      15.208  -7.801  -2.911  0.00  0.00    +0.000 HD
ATOM     13  H   UNL     1      13.846  -6.684  -2.690  0.00  0.00    +0.000 HD
ENDBRANCH   7  10
ENDBRANCH   4   7
ENDBRANCH   1   4
BRANCH   1  14
ATOM     14  C   UNL     1      17.821  -4.081  -2.327  0.00  0.00    +0.000 C 
ATOM     15  H   UNL     1      17.853  -3.007  -2.545  0.00  0.00    +0.000 HD
ATOM     16  H   UNL     1      18.270  -4.247  -1.341  0.00  0.00    +0.000 HD
BRANCH  14  18
ATOM     17  O   UNL     1      19.559  -4.202  -4.001  0.00  0.00    +0.000 OA
ATOM     18  C   UNL     1      18.694  -4.790  -3.354  0.00  0.00    +0.000 C 
BRANCH  18  19
ATOM     19  C   UNL     1      18.399  -6.268  -3.552  0.00  0.00    +0.000 C 
ATOM     20  H   UNL     1      19.333  -6.823  -3.419  0.00  0.00    +0.000 HD
ATOM     21  H   UNL     1      17.690  -6.582  -2.779  0.00  0.00    +0.000 HD
BRANCH  19  22
ATOM     22  C   UNL     1      17.819  -6.571  -4.922  0.00  0.00    +0.000 C 
ATOM     23  H   UNL     1      18.472  -7.248  -5.485  0.00  0.00    +0.000 HD
ATOM     24  H   UNL     1      17.699  -5.655  -5.511  0.00  0.00    +0.000 HD
ATOM     25  H   UNL     1      16.838  -7.045  -4.825  0.00  0.00    +0.000 HD
ENDBRANCH  19  22
ENDBRANCH  18  19
ENDBRANCH  14  18
ENDBRANCH   1  14
TORSDOF 7
ENDMDL
MODEL 6
REMARK VINA RESULT:    -3.966      4.598      5.681
REMARK INTER + INTRA:          -5.913
REMARK INTER:                  -5.686
REMARK INTRA:                  -0.227
REMARK UNBOUND:                -0.556
REMARK  Name = 246728
REMARK  7 active torsions:
REMARK  status: ('A' for Active; 'I' for Inactive)
REMARK    1  A    between atoms: C_2  and  C_3
REMARK    2  A    between atoms: C_2  and  C_4
REMARK    3  A    between atoms: C_3  and  C_5
REMARK    4  A    between atoms: C_4  and  C_6
REMARK    5  A    between atoms: C_5  and  C_8
REMARK    6  A    between atoms: C_6  and  C_7
REMARK    7  A    between atoms: C_7  and  C_9
REMARK                            x       y       z     vdW  Elec       q    Type
REMARK                         _______ _______ _______ _____ _____    ______ ____
ROOT
ATOM      1  C   UNL     1       0.236  -3.086  -8.386  0.00  0.00    +0.000 C 
ATOM      2  H   UNL     1       0.908  -3.680  -9.017  0.00  0.00    +0.000 HD
ATOM      3  H   UNL     1      -0.500  -2.627  -9.060  0.00  0.00    +0.000 HD
ENDROOT
BRANCH   1   4
ATOM      4  C   UNL     1       1.031  -1.985  -7.677  0.00  0.00    +0.000 C 
ATOM      5  H   UNL     1       0.829  -2.021  -6.600  0.00  0.00    +0.000 HD
ATOM      6  H   UNL     1       2.104  -2.167  -7.812  0.00  0.00    +0.000 HD
BRANCH   4   7
ATOM      7  C   UNL     1       0.672  -0.603  -8.225  0.00  0.00    +0.000 C 
ATOM      8  H   UNL     1       0.451  -0.673  -9.297  0.00  0.00    +0.000 HD
ATOM      9  H   UNL     1       1.525   0.076  -8.113  0.00  0.00    +0.000 HD
BRANCH   7  10
ATOM     10  C   UNL     1      -0.530  -0.015  -7.504  0.00  0.00    +0.000 C 
ATOM     11  H   UNL     1      -1.450  -0.505  -7.839  0.00  0.00    +0.000 HD
ATOM     12  H   UNL     1      -0.445  -0.155  -6.421  0.00  0.00    +0.000 HD
ATOM     13  H   UNL     1      -0.624   1.057  -7.706  0.00  0.00    +0.000 HD
ENDBRANCH   7  10
ENDBRANCH   4   7
ENDBRANCH   1   4
BRANCH   1  14
ATOM     14  C   UNL     1      -0.483  -4.010  -7.403  0.00  0.00    +0.000 C 
ATOM     15  H   UNL     1      -0.765  -3.447  -6.506  0.00  0.00    +0.000 HD
ATOM     16  H   UNL     1      -1.396  -4.397  -7.869  0.00  0.00    +0.000 HD
BRANCH  14  18
ATOM     17  O   UNL     1       0.934  -5.933  -7.761  0.00  0.00    +0.000 OA
ATOM     18  C   UNL     1       0.348  -5.205  -6.960  0.00  0.00    +0.000 C 
BRANCH  18  19
ATOM     19  C   UNL     1       0.377  -5.462  -5.462  0.00  0.00    +0.000 C 
ATOM     20  H   UNL     1       0.886  -6.416  -5.290  0.00  0.00    +0.000 HD
ATOM     21  H   UNL     1       0.958  -4.664  -4.990  0.00  0.00    +0.000 HD
BRANCH  19  22
ATOM     22  C   UNL     1      -1.011  -5.509  -4.848  0.00  0.00    +0.000 C 
ATOM     23  H   UNL     1      -1.774  -5.691  -5.613  0.00  0.00    +0.000 HD
ATOM     24  H   UNL     1      -1.253  -4.562  -4.352  0.00  0.00    +0.000 HD
ATOM     25  H   UNL     1      -1.073  -6.310  -4.105  0.00  0.00    +0.000 HD
ENDBRANCH  19  22
ENDBRANCH  18  19
ENDBRANCH  14  18
ENDBRANCH   1  14
TORSDOF 7
ENDMDL
MODEL 7
REMARK VINA RESULT:    -3.961     13.267     14.661
REMARK INTER + INTRA:          -5.907
REMARK INTER:                  -5.650
REMARK INTRA:                  -0.257
REMARK UNBOUND:                -0.556
REMARK  Name = 246728
REMARK  7 active torsions:
REMARK  status: ('A' for Active; 'I' for Inactive)
REMARK    1  A    between atoms: C_2  and  C_3
REMARK    2  A    between atoms: C_2  and  C_4
REMARK    3  A    between atoms: C_3  and  C_5
REMARK    4  A    between atoms: C_4  and  C_6
REMARK    5  A    between atoms: C_5  and  C_8
REMARK    6  A    between atoms: C_6  and  C_7
REMARK    7  A    between atoms: C_7  and  C_9
REMARK                            x       y       z     vdW  Elec       q    Type
REMARK                         _______ _______ _______ _____ _____    ______ ____
ROOT
ATOM      1  C   UNL     1      15.287  -6.350  -2.214  0.00  0.00    +0.000 C 
ATOM      2  H   UNL     1      14.234  -6.387  -2.520  0.00  0.00    +0.000 HD
ATOM      3  H   UNL     1      15.816  -7.091  -2.828  0.00  0.00    +0.000 HD
ENDROOT
BRANCH   1   4
ATOM      4  C   UNL     1      15.411  -6.733  -0.736  0.00  0.00    +0.000 C 
ATOM      5  H   UNL     1      14.458  -7.145  -0.382  0.00  0.00    +0.000 HD
ATOM      6  H   UNL     1      16.165  -7.522  -0.626  0.00  0.00    +0.000 HD
BRANCH   4   7
ATOM      7  C   UNL     1      15.802  -5.527   0.118  0.00  0.00    +0.000 C 
ATOM      8  H   UNL     1      15.280  -4.632  -0.241  0.00  0.00    +0.000 HD
ATOM      9  H   UNL     1      16.877  -5.335   0.023  0.00  0.00    +0.000 HD
BRANCH   7  10
ATOM     10  C   UNL     1      15.464  -5.751   1.583  0.00  0.00    +0.000 C 
ATOM     11  H   UNL     1      15.202  -6.800   1.755  0.00  0.00    +0.000 HD
ATOM     12  H   UNL     1      16.316  -5.504   2.225  0.00  0.00    +0.000 HD
ATOM     13  H   UNL     1      14.613  -5.134   1.889  0.00  0.00    +0.000 HD
ENDBRANCH   7  10
ENDBRANCH   4   7
ENDBRANCH   1   4
BRANCH   1  14
ATOM     14  C   UNL     1      15.848  -4.958  -2.503  0.00  0.00    +0.000 C 
ATOM     15  H   UNL     1      15.177  -4.425  -3.187  0.00  0.00    +0.000 HD
ATOM     16  H   UNL     1      15.911  -4.389  -1.569  0.00  0.00    +0.000 HD
BRANCH  14  18
ATOM     17  O   UNL     1      18.083  -4.118  -2.864  0.00  0.00    +0.000 OA
ATOM     18  C   UNL     1      17.235  -4.969  -3.129  0.00  0.00    +0.000 C 
BRANCH  18  19
ATOM     19  C   UNL     1      17.491  -6.082  -4.131  0.00  0.00    +0.000 C 
ATOM     20  H   UNL     1      16.908  -6.957  -3.826  0.00  0.00    +0.000 HD
ATOM     21  H   UNL     1      17.136  -5.748  -5.112  0.00  0.00    +0.000 HD
BRANCH  19  22
ATOM     22  C   UNL     1      18.959  -6.460  -4.227  0.00  0.00    +0.000 C 
ATOM     23  H   UNL     1      19.404  -6.076  -5.151  0.00  0.00    +0.000 HD
ATOM     24  H   UNL     1      19.087  -7.548  -4.221  0.00  0.00    +0.000 HD
ATOM     25  H   UNL     1      19.515  -6.045  -3.381  0.00  0.00    +0.000 HD
ENDBRANCH  19  22
ENDBRANCH  18  19
ENDBRANCH  14  18
ENDBRANCH   1  14
TORSDOF 7
ENDMDL
MODEL 8
REMARK VINA RESULT:    -3.794     16.594     18.917
REMARK INTER + INTRA:          -5.681
REMARK INTER:                  -5.447
REMARK INTRA:                  -0.234
REMARK UNBOUND:                -0.556
REMARK  Name = 246728
REMARK  7 active torsions:
REMARK  status: ('A' for Active; 'I' for Inactive)
REMARK    1  A    between atoms: C_2  and  C_3
REMARK    2  A    between atoms: C_2  and  C_4
REMARK    3  A    between atoms: C_3  and  C_5
REMARK    4  A    between atoms: C_4  and  C_6
REMARK    5  A    between atoms: C_5  and  C_8
REMARK    6  A    between atoms: C_6  and  C_7
REMARK    7  A    between atoms: C_7  and  C_9
REMARK                            x       y       z     vdW  Elec       q    Type
REMARK                         _______ _______ _______ _____ _____    ______ ____
ROOT
ATOM      1  C   UNL     1      -6.793 -13.621   3.901  0.00  0.00    +0.000 C 
ATOM      2  H   UNL     1      -6.096 -12.822   3.621  0.00  0.00    +0.000 HD
ATOM      3  H   UNL     1      -6.213 -14.352   4.480  0.00  0.00    +0.000 HD
ENDROOT
BRANCH   1   4
ATOM      4  C   UNL     1      -7.343 -14.294   2.639  0.00  0.00    +0.000 C 
ATOM      5  H   UNL     1      -6.845 -15.259   2.491  0.00  0.00    +0.000 HD
ATOM      6  H   UNL     1      -8.413 -14.497   2.772  0.00  0.00    +0.000 HD
BRANCH   4   7
ATOM      7  C   UNL     1      -7.137 -13.411   1.407  0.00  0.00    +0.000 C 
ATOM      8  H   UNL     1      -6.315 -12.707   1.587  0.00  0.00    +0.000 HD
ATOM      9  H   UNL     1      -8.038 -12.816   1.219  0.00  0.00    +0.000 HD
BRANCH   7  10
ATOM     10  C   UNL     1      -6.823 -14.243   0.174  0.00  0.00    +0.000 C 
ATOM     11  H   UNL     1      -7.622 -14.971  -0.004  0.00  0.00    +0.000 HD
ATOM     12  H   UNL     1      -6.736 -13.610  -0.715  0.00  0.00    +0.000 HD
ATOM     13  H   UNL     1      -5.885 -14.792   0.299  0.00  0.00    +0.000 HD
ENDBRANCH   7  10
ENDBRANCH   4   7
ENDBRANCH   1   4
BRANCH   1  14
ATOM     14  C   UNL     1      -7.900 -13.040   4.781  0.00  0.00    +0.000 C 
ATOM     15  H   UNL     1      -7.705 -11.977   4.964  0.00  0.00    +0.000 HD
ATOM     16  H   UNL     1      -8.861 -13.131   4.264  0.00  0.00    +0.000 HD
BRANCH  14  18
ATOM     17  O   UNL     1      -7.784 -13.155   7.191  0.00  0.00    +0.000 OA
ATOM     18  C   UNL     1      -8.039 -13.727   6.132  0.00  0.00    +0.000 C 
BRANCH  18  19
ATOM     19  C   UNL     1      -8.479 -15.182   6.083  0.00  0.00    +0.000 C 
ATOM     20  H   UNL     1      -9.381 -15.286   6.694  0.00  0.00    +0.000 HD
ATOM     21  H   UNL     1      -8.727 -15.429   5.046  0.00  0.00    +0.000 HD
BRANCH  19  22
ATOM     22  C   UNL     1      -7.411 -16.135   6.588  0.00  0.00    +0.000 C 
ATOM     23  H   UNL     1      -6.612 -15.593   7.105  0.00  0.00    +0.000 HD
ATOM     24  H   UNL     1      -6.956 -16.691   5.760  0.00  0.00    +0.000 HD
ATOM     25  H   UNL     1      -7.843 -16.857   7.287  0.00  0.00    +0.000 HD
ENDBRANCH  19  22
ENDBRANCH  18  19
ENDBRANCH  14  18
ENDBRANCH   1  14
TORSDOF 7
ENDMDL
MODEL 9
REMARK VINA RESULT:    -3.744     17.473     18.929
REMARK INTER + INTRA:          -5.613
REMARK INTER:                  -5.346
REMARK INTRA:                  -0.268
REMARK UNBOUND:                -0.556
REMARK  Name = 246728
REMARK  7 active torsions:
REMARK  status: ('A' for Active; 'I' for Inactive)
REMARK    1  A    between atoms: C_2  and  C_3
REMARK    2  A    between atoms: C_2  and  C_4
REMARK    3  A    between atoms: C_3  and  C_5
REMARK    4  A    between atoms: C_4  and  C_6
REMARK    5  A    between atoms: C_5  and  C_8
REMARK    6  A    between atoms: C_6  and  C_7
REMARK    7  A    between atoms: C_7  and  C_9
REMARK                            x       y       z     vdW  Elec       q    Type
REMARK                         _______ _______ _______ _____ _____    ______ ____
ROOT
ATOM      1  C   UNL     1      15.272   6.080  -2.740  0.00  0.00    +0.000 C 
ATOM      2  H   UNL     1      15.098   5.410  -3.590  0.00  0.00    +0.000 HD
ATOM      3  H   UNL     1      16.359   6.219  -2.669  0.00  0.00    +0.000 HD
ENDROOT
BRANCH   1   4
ATOM      4  C   UNL     1      14.759   5.427  -1.453  0.00  0.00    +0.000 C 
ATOM      5  H   UNL     1      14.262   6.181  -0.830  0.00  0.00    +0.000 HD
ATOM      6  H   UNL     1      14.008   4.668  -1.703  0.00  0.00    +0.000 HD
BRANCH   4   7
ATOM      7  C   UNL     1      15.901   4.780  -0.667  0.00  0.00    +0.000 C 
ATOM      8  H   UNL     1      16.201   5.434   0.160  0.00  0.00    +0.000 HD
ATOM      9  H   UNL     1      16.776   4.654  -1.315  0.00  0.00    +0.000 HD
BRANCH   7  10
ATOM     10  C   UNL     1      15.494   3.425  -0.112  0.00  0.00    +0.000 C 
ATOM     11  H   UNL     1      15.121   2.782  -0.916  0.00  0.00    +0.000 HD
ATOM     12  H   UNL     1      16.345   2.921   0.358  0.00  0.00    +0.000 HD
ATOM     13  H   UNL     1      14.700   3.528   0.635  0.00  0.00    +0.000 HD
ENDBRANCH   7  10
ENDBRANCH   4   7
ENDBRANCH   1   4
BRANCH   1  14
ATOM     14  C   UNL     1      14.605   7.428  -3.015  0.00  0.00    +0.000 C 
ATOM     15  H   UNL     1      14.076   7.388  -3.974  0.00  0.00    +0.000 HD
ATOM     16  H   UNL     1      13.875   7.641  -2.226  0.00  0.00    +0.000 HD
BRANCH  14  18
ATOM     17  O   UNL     1      15.312   9.648  -3.653  0.00  0.00    +0.000 OA
ATOM     18  C   UNL     1      15.577   8.598  -3.069  0.00  0.00    +0.000 C 
BRANCH  18  19
ATOM     19  C   UNL     1      16.915   8.368  -2.384  0.00  0.00    +0.000 C 
ATOM     20  H   UNL     1      16.990   9.064  -1.542  0.00  0.00    +0.000 HD
ATOM     21  H   UNL     1      16.929   7.345  -1.996  0.00  0.00    +0.000 HD
BRANCH  19  22
ATOM     22  C   UNL     1      18.095   8.571  -3.317  0.00  0.00    +0.000 C 
ATOM     23  H   UNL     1      18.952   8.992  -2.782  0.00  0.00    +0.000 HD
ATOM     24  H   UNL     1      17.839   9.257  -4.132  0.00  0.00    +0.000 HD
ATOM     25  H   UNL     1      18.402   7.617  -3.757  0.00  0.00    +0.000 HD
ENDBRANCH  19  22
ENDBRANCH  18  19
ENDBRANCH  14  18
ENDBRANCH   1  14
TORSDOF 7
ENDMDL
MODEL 10
REMARK VINA RESULT:    -3.572     15.807     17.197
REMARK INTER + INTRA:          -5.381
REMARK INTER:                  -4.825
REMARK INTRA:                  -0.556
REMARK UNBOUND:                -0.556
REMARK  Name = 246728
REMARK  7 active torsions:
REMARK  status: ('A' for Active; 'I' for Inactive)
REMARK    1  A    between atoms: C_2  and  C_3
REMARK    2  A    between atoms: C_2  and  C_4
REMARK    3  A    between atoms: C_3  and  C_5
REMARK    4  A    between atoms: C_4  and  C_6
REMARK    5  A    between atoms: C_5  and  C_8
REMARK    6  A    between atoms: C_6  and  C_7
REMARK    7  A    between atoms: C_7  and  C_9
REMARK                            x       y       z     vdW  Elec       q    Type
REMARK                         _______ _______ _______ _____ _____    ______ ____
ROOT
ATOM      1  C   UNL     1       0.016   2.904 -20.164  0.00  0.00    +0.000 C 
ATOM      2  H   UNL     1      -0.467   2.867 -19.180  0.00  0.00    +0.000 HD
ATOM      3  H   UNL     1       0.682   2.032 -20.218  0.00  0.00    +0.000 HD
ENDROOT
BRANCH   1   4
ATOM      4  C   UNL     1       0.848   4.185 -20.285  0.00  0.00    +0.000 C 
ATOM      5  H   UNL     1       0.471   4.791 -21.117  0.00  0.00    +0.000 HD
ATOM      6  H   UNL     1       0.733   4.781 -19.371  0.00  0.00    +0.000 HD
BRANCH   4   7
ATOM      7  C   UNL     1       2.327   3.866 -20.507  0.00  0.00    +0.000 C 
ATOM      8  H   UNL     1       2.942   4.446 -19.807  0.00  0.00    +0.000 HD
ATOM      9  H   UNL     1       2.625   4.159 -21.520  0.00  0.00    +0.000 HD
BRANCH   7  10
ATOM     10  C   UNL     1       2.611   2.385 -20.313  0.00  0.00    +0.000 C 
ATOM     11  H   UNL     1       1.693   1.857 -20.036  0.00  0.00    +0.000 HD
ATOM     12  H   UNL     1       2.996   1.936 -21.235  0.00  0.00    +0.000 HD
ATOM     13  H   UNL     1       3.347   2.225 -19.519  0.00  0.00    +0.000 HD
ENDBRANCH   7  10
ENDBRANCH   4   7
ENDBRANCH   1   4
BRANCH   1  14
ATOM     14  C   UNL     1      -1.050   2.797 -21.254  0.00  0.00    +0.000 C 
ATOM     15  H   UNL     1      -1.808   2.063 -20.957  0.00  0.00    +0.000 HD
ATOM     16  H   UNL     1      -1.541   3.768 -21.380  0.00  0.00    +0.000 HD
BRANCH  14  18
ATOM     17  O   UNL     1       0.163   1.357 -22.767  0.00  0.00    +0.000 OA
ATOM     18  C   UNL     1      -0.505   2.379 -22.612  0.00  0.00    +0.000 C 
BRANCH  18  19
ATOM     19  C   UNL     1      -0.809   3.328 -23.759  0.00  0.00    +0.000 C 
ATOM     20  H   UNL     1      -0.992   2.730 -24.658  0.00  0.00    +0.000 HD
ATOM     21  H   UNL     1      -1.722   3.881 -23.513  0.00  0.00    +0.000 HD
BRANCH  19  22
ATOM     22  C   UNL     1       0.319   4.309 -24.024  0.00  0.00    +0.000 C 
ATOM     23  H   UNL     1       1.068   3.877 -24.696  0.00  0.00    +0.000 HD
ATOM     24  H   UNL     1       0.826   4.587 -23.092  0.00  0.00    +0.000 HD
ATOM     25  H   UNL     1      -0.069   5.222 -24.486  0.00  0.00    +0.000 HD
ENDBRANCH  19  22
ENDBRANCH  18  19
ENDBRANCH  14  18
ENDBRANCH   1  14
TORSDOF 7
ENDMDL
