MODEL 1
REMARK VINA RESULT:    -4.205      0.000      0.000
REMARK INTER + INTRA:          -6.472
REMARK INTER:                  -5.888
REMARK INTRA:                  -0.585
REMARK UNBOUND:                -0.670
REMARK  Name = 11515
REMARK  8 active torsions:
REMARK  status: ('A' for Active; 'I' for Inactive)
REMARK    1  A    between atoms: O_1  and  C_2
REMARK    2  A    between atoms: C_2  and  C_3
REMARK    3  A    between atoms: C_2  and  C_4
REMARK    4  A    between atoms: C_3  and  C_5
REMARK    5  A    between atoms: C_4  and  C_6
REMARK    6  A    between atoms: C_5  and  C_7
REMARK    7  A    between atoms: C_6  and  C_8
REMARK    8  A    between atoms: C_7  and  C_9
REMARK                            x       y       z     vdW  Elec       q    Type
REMARK                         _______ _______ _______ _____ _____    ______ ____
ROOT
ATOM      1  C   UNL     1      17.514  -4.513  -2.621  0.00  0.00    +0.000 C 
ATOM      2  H   UNL     1      17.458  -4.545  -3.715  0.00  0.00    +0.000 HD
ENDROOT
BRANCH   1   3
ATOM      3  C   UNL     1      18.441  -5.622  -2.110  0.00  0.00    +0.000 C 
ATOM      4  H   UNL     1      19.322  -5.173  -1.634  0.00  0.00    +0.000 HD
ATOM      5  H   UNL     1      17.921  -6.210  -1.344  0.00  0.00    +0.000 HD
BRANCH   3   6
ATOM      6  C   UNL     1      18.921  -6.544  -3.238  0.00  0.00    +0.000 C 
ATOM      7  H   UNL     1      20.009  -6.667  -3.173  0.00  0.00    +0.000 HD
ATOM      8  H   UNL     1      18.475  -7.540  -3.126  0.00  0.00    +0.000 HD
BRANCH   6   9
ATOM      9  C   UNL     1      18.549  -5.981  -4.610  0.00  0.00    +0.000 C 
ATOM     10  H   UNL     1      18.087  -4.994  -4.495  0.00  0.00    +0.000 HD
ATOM     11  H   UNL     1      19.454  -5.848  -5.215  0.00  0.00    +0.000 HD
BRANCH   9  12
ATOM     12  C   UNL     1      17.585  -6.899  -5.346  0.00  0.00    +0.000 C 
ATOM     13  H   UNL     1      17.507  -7.868  -4.846  0.00  0.00    +0.000 HD
ATOM     14  H   UNL     1      16.587  -6.450  -5.379  0.00  0.00    +0.000 HD
ATOM     15  H   UNL     1      17.915  -7.068  -6.376  0.00  0.00    +0.000 HD
ENDBRANCH   9  12
ENDBRANCH   6   9
ENDBRANCH   3   6
ENDBRANCH   1   3
BRANCH   1  16
ATOM     16  C   UNL     1      16.100  -4.588  -2.028  0.00  0.00    +0.000 C 
ATOM     17  H   UNL     1      16.028  -3.881  -1.193  0.00  0.00    +0.000 HD
ATOM     18  H   UNL     1      15.386  -4.248  -2.790  0.00  0.00    +0.000 HD
BRANCH  16  19
ATOM     19  C   UNL     1      15.643  -5.968  -1.551  0.00  0.00    +0.000 C 
ATOM     20  H   UNL     1      16.505  -6.536  -1.180  0.00  0.00    +0.000 HD
ATOM     21  H   UNL     1      14.957  -5.847  -0.706  0.00  0.00    +0.000 HD
BRANCH  19  22
ATOM     22  C   UNL     1      14.960  -6.789  -2.633  0.00  0.00    +0.000 C 
ATOM     23  H   UNL     1      14.632  -7.752  -2.229  0.00  0.00    +0.000 HD
ATOM     24  H   UNL     1      14.083  -6.266  -3.024  0.00  0.00    +0.000 HD
ATOM     25  H   UNL     1      15.644  -6.985  -3.465  0.00  0.00    +0.000 HD
ENDBRANCH  19  22
ENDBRANCH  16  19
ENDBRANCH   1  16
BRANCH   1  26
ATOM     26  O   UNL     1      18.076  -3.250  -2.257  0.00  0.00    +0.000 OA
ATOM     27  H   UNL     1      18.957  -3.413  -1.879  0.00  0.00    +0.000 HD
ENDBRANCH   1  26
TORSDOF 8
ENDMDL
MODEL 2
REMARK VINA RESULT:    -3.907     25.582     27.246
REMARK INTER + INTRA:          -6.061
REMARK INTER:                  -5.873
REMARK INTRA:                  -0.188
REMARK UNBOUND:                -0.670
REMARK  Name = 11515
REMARK  8 active torsions:
REMARK  status: ('A' for Active; 'I' for Inactive)
REMARK    1  A    between atoms: O_1  and  C_2
REMARK    2  A    between atoms: C_2  and  C_3
REMARK    3  A    between atoms: C_2  and  C_4
REMARK    4  A    between atoms: C_3  and  C_5
REMARK    5  A    between atoms: C_4  and  C_6
REMARK    6  A    between atoms: C_5  and  C_7
REMARK    7  A    between atoms: C_6  and  C_8
REMARK    8  A    between atoms: C_7  and  C_9
REMARK                            x       y       z     vdW  Elec       q    Type
REMARK                         _______ _______ _______ _____ _____    ______ ____
ROOT
ATOM      1  C   UNL     1      -6.926 -13.450   4.207  0.00  0.00    +0.000 C 
ATOM      2  H   UNL     1      -6.309 -14.222   4.681  0.00  0.00    +0.000 HD
ENDROOT
BRANCH   1   3
ATOM      3  C   UNL     1      -8.070 -13.043   5.142  0.00  0.00    +0.000 C 
ATOM      4  H   UNL     1      -8.155 -11.949   5.161  0.00  0.00    +0.000 HD
ATOM      5  H   UNL     1      -9.017 -13.437   4.755  0.00  0.00    +0.000 HD
BRANCH   3   6
ATOM      6  C   UNL     1      -7.849 -13.533   6.578  0.00  0.00    +0.000 C 
ATOM      7  H   UNL     1      -6.899 -13.137   6.959  0.00  0.00    +0.000 HD
ATOM      8  H   UNL     1      -8.643 -13.155   7.232  0.00  0.00    +0.000 HD
BRANCH   6   9
ATOM      9  C   UNL     1      -7.830 -15.060   6.646  0.00  0.00    +0.000 C 
ATOM     10  H   UNL     1      -6.923 -15.444   6.165  0.00  0.00    +0.000 HD
ATOM     11  H   UNL     1      -7.806 -15.387   7.692  0.00  0.00    +0.000 HD
BRANCH   9  12
ATOM     12  C   UNL     1      -9.048 -15.664   5.961  0.00  0.00    +0.000 C 
ATOM     13  H   UNL     1      -8.866 -15.806   4.892  0.00  0.00    +0.000 HD
ATOM     14  H   UNL     1      -9.284 -16.639   6.399  0.00  0.00    +0.000 HD
ATOM     15  H   UNL     1      -9.923 -15.018   6.079  0.00  0.00    +0.000 HD
ENDBRANCH   9  12
ENDBRANCH   6   9
ENDBRANCH   3   6
ENDBRANCH   1   3
BRANCH   1  16
ATOM     16  C   UNL     1      -7.413 -13.947   2.838  0.00  0.00    +0.000 C 
ATOM     17  H   UNL     1      -7.716 -14.997   2.930  0.00  0.00    +0.000 HD
ATOM     18  H   UNL     1      -8.316 -13.384   2.566  0.00  0.00    +0.000 HD
BRANCH  16  19
ATOM     19  C   UNL     1      -6.421 -13.815   1.682  0.00  0.00    +0.000 C 
ATOM     20  H   UNL     1      -5.653 -13.074   1.936  0.00  0.00    +0.000 HD
ATOM     21  H   UNL     1      -5.903 -14.770   1.541  0.00  0.00    +0.000 HD
BRANCH  19  22
ATOM     22  C   UNL     1      -7.068 -13.401   0.370  0.00  0.00    +0.000 C 
ATOM     23  H   UNL     1      -7.346 -14.285  -0.212  0.00  0.00    +0.000 HD
ATOM     24  H   UNL     1      -7.972 -12.812   0.550  0.00  0.00    +0.000 HD
ATOM     25  H   UNL     1      -6.379 -12.800  -0.232  0.00  0.00    +0.000 HD
ENDBRANCH  19  22
ENDBRANCH  16  19
ENDBRANCH   1  16
BRANCH   1  26
ATOM     26  O   UNL     1      -6.091 -12.309   3.988  0.00  0.00    +0.000 OA
ATOM     27  H   UNL     1      -5.627 -12.437   3.144  0.00  0.00    +0.000 HD
ENDBRANCH   1  26
TORSDOF 8
ENDMDL
MODEL 3
REMARK VINA RESULT:    -3.762      1.011      3.536
REMARK INTER + INTRA:          -5.861
REMARK INTER:                  -5.513
REMARK INTRA:                  -0.348
REMARK UNBOUND:                -0.670
REMARK  Name = 11515
REMARK  8 active torsions:
REMARK  status: ('A' for Active; 'I' for Inactive)
REMARK    1  A    between atoms: O_1  and  C_2
REMARK    2  A    between atoms: C_2  and  C_3
REMARK    3  A    between atoms: C_2  and  C_4
REMARK    4  A    between atoms: C_3  and  C_5
REMARK    5  A    between atoms: C_4  and  C_6
REMARK    6  A    between atoms: C_5  and  C_7
REMARK    7  A    between atoms: C_6  and  C_8
REMARK    8  A    between atoms: C_7  and  C_9
REMARK                            x       y       z     vdW  Elec       q    Type
REMARK                         _______ _______ _______ _____ _____    ______ ____
ROOT
ATOM      1  C   UNL     1      18.354  -4.497  -2.503  0.00  0.00    +0.000 C 
ATOM      2  H   UNL     1      19.218  -4.880  -1.948  0.00  0.00    +0.000 HD
ENDROOT
BRANCH   1   3
ATOM      3  C   UNL     1      17.078  -4.669  -1.670  0.00  0.00    +0.000 C 
ATOM      4  H   UNL     1      17.214  -5.490  -0.956  0.00  0.00    +0.000 HD
ATOM      5  H   UNL     1      16.896  -3.757  -1.089  0.00  0.00    +0.000 HD
BRANCH   3   6
ATOM      6  C   UNL     1      15.855  -4.985  -2.540  0.00  0.00    +0.000 C 
ATOM      7  H   UNL     1      15.091  -4.212  -2.393  0.00  0.00    +0.000 HD
ATOM      8  H   UNL     1      16.133  -4.969  -3.600  0.00  0.00    +0.000 HD
BRANCH   6   9
ATOM      9  C   UNL     1      15.270  -6.355  -2.197  0.00  0.00    +0.000 C 
ATOM     10  H   UNL     1      14.205  -6.381  -2.456  0.00  0.00    +0.000 HD
ATOM     11  H   UNL     1      15.768  -7.132  -2.789  0.00  0.00    +0.000 HD
BRANCH   9  12
ATOM     12  C   UNL     1      15.429  -6.675  -0.718  0.00  0.00    +0.000 C 
ATOM     13  H   UNL     1      15.562  -5.761  -0.132  0.00  0.00    +0.000 HD
ATOM     14  H   UNL     1      14.539  -7.192  -0.345  0.00  0.00    +0.000 HD
ATOM     15  H   UNL     1      16.294  -7.322  -0.548  0.00  0.00    +0.000 HD
ENDBRANCH   9  12
ENDBRANCH   6   9
ENDBRANCH   3   6
ENDBRANCH   1   3
BRANCH   1  16
ATOM     16  C   UNL     1      18.275  -5.180  -3.875  0.00  0.00    +0.000 C 
ATOM     17  H   UNL     1      17.236  -5.152  -4.226  0.00  0.00    +0.000 HD
ATOM     18  H   UNL     1      18.863  -4.590  -4.591  0.00  0.00    +0.000 HD
BRANCH  16  19
ATOM     19  C   UNL     1      18.782  -6.622  -3.939  0.00  0.00    +0.000 C 
ATOM     20  H   UNL     1      18.181  -7.255  -3.276  0.00  0.00    +0.000 HD
ATOM     21  H   UNL     1      18.643  -7.007  -4.955  0.00  0.00    +0.000 HD
BRANCH  19  22
ATOM     22  C   UNL     1      20.243  -6.769  -3.546  0.00  0.00    +0.000 C 
ATOM     23  H   UNL     1      20.737  -5.793  -3.543  0.00  0.00    +0.000 HD
ATOM     24  H   UNL     1      20.336  -7.202  -2.545  0.00  0.00    +0.000 HD
ATOM     25  H   UNL     1      20.774  -7.417  -4.251  0.00  0.00    +0.000 HD
ENDBRANCH  19  22
ENDBRANCH  16  19
ENDBRANCH   1  16
BRANCH   1  26
ATOM     26  O   UNL     1      18.569  -3.100  -2.719  0.00  0.00    +0.000 OA
ATOM     27  H   UNL     1      18.502  -2.933  -3.674  0.00  0.00    +0.000 HD
ENDBRANCH   1  26
TORSDOF 8
ENDMDL
MODEL 4
REMARK VINA RESULT:    -3.644     24.471     25.545
REMARK INTER + INTRA:          -5.699
REMARK INTER:                  -5.263
REMARK INTRA:                  -0.436
REMARK UNBOUND:                -0.670
REMARK  Name = 11515
REMARK  8 active torsions:
REMARK  status: ('A' for Active; 'I' for Inactive)
REMARK    1  A    between atoms: O_1  and  C_2
REMARK    2  A    between atoms: C_2  and  C_3
REMARK    3  A    between atoms: C_2  and  C_4
REMARK    4  A    between atoms: C_3  and  C_5
REMARK    5  A    between atoms: C_4  and  C_6
REMARK    6  A    between atoms: C_5  and  C_7
REMARK    7  A    between atoms: C_6  and  C_8
REMARK    8  A    between atoms: C_7  and  C_9
REMARK                            x       y       z     vdW  Elec       q    Type
REMARK                         _______ _______ _______ _____ _____    ______ ____
ROOT
ATOM      1  C   UNL     1      13.849  16.778 -12.447  0.00  0.00    +0.000 C 
ATOM      2  H   UNL     1      13.482  17.236 -13.372  0.00  0.00    +0.000 HD
ENDROOT
BRANCH   1   3
ATOM      3  C   UNL     1      12.868  17.049 -11.300  0.00  0.00    +0.000 C 
ATOM      4  H   UNL     1      12.314  16.131 -11.067  0.00  0.00    +0.000 HD
ATOM      5  H   UNL     1      13.427  17.331 -10.400  0.00  0.00    +0.000 HD
BRANCH   3   6
ATOM      6  C   UNL     1      11.856  18.147 -11.650  0.00  0.00    +0.000 C 
ATOM      7  H   UNL     1      11.892  18.348 -12.728  0.00  0.00    +0.000 HD
ATOM      8  H   UNL     1      10.839  17.809 -11.417  0.00  0.00    +0.000 HD
BRANCH   6   9
ATOM      9  C   UNL     1      12.145  19.434 -10.879  0.00  0.00    +0.000 C 
ATOM     10  H   UNL     1      13.066  19.321 -10.295  0.00  0.00    +0.000 HD
ATOM     11  H   UNL     1      12.304  20.261 -11.580  0.00  0.00    +0.000 HD
BRANCH   9  12
ATOM     12  C   UNL     1      11.002  19.789  -9.939  0.00  0.00    +0.000 C 
ATOM     13  H   UNL     1      10.625  18.899  -9.426  0.00  0.00    +0.000 HD
ATOM     14  H   UNL     1      11.344  20.501  -9.180  0.00  0.00    +0.000 HD
ATOM     15  H   UNL     1      10.173  20.249 -10.485  0.00  0.00    +0.000 HD
ENDBRANCH   9  12
ENDBRANCH   6   9
ENDBRANCH   3   6
ENDBRANCH   1   3
BRANCH   1  16
ATOM     16  C   UNL     1      15.272  17.274 -12.153  0.00  0.00    +0.000 C 
ATOM     17  H   UNL     1      15.980  16.464 -12.367  0.00  0.00    +0.000 HD
ATOM     18  H   UNL     1      15.507  18.088 -12.852  0.00  0.00    +0.000 HD
BRANCH  16  19
ATOM     19  C   UNL     1      15.524  17.794 -10.737  0.00  0.00    +0.000 C 
ATOM     20  H   UNL     1      14.621  17.665 -10.129  0.00  0.00    +0.000 HD
ATOM     21  H   UNL     1      16.310  17.192 -10.267  0.00  0.00    +0.000 HD
BRANCH  19  22
ATOM     22  C   UNL     1      15.926  19.259 -10.691  0.00  0.00    +0.000 C 
ATOM     23  H   UNL     1      16.062  19.584  -9.655  0.00  0.00    +0.000 HD
ATOM     24  H   UNL     1      16.866  19.423 -11.226  0.00  0.00    +0.000 HD
ATOM     25  H   UNL     1      15.156  19.890 -11.147  0.00  0.00    +0.000 HD
ENDBRANCH  19  22
ENDBRANCH  16  19
ENDBRANCH   1  16
BRANCH   1  26
ATOM     26  O   UNL     1      13.912  15.365 -12.663  0.00  0.00    +0.000 OA
ATOM     27  H   UNL     1      14.655  15.017 -12.141  0.00  0.00    +0.000 HD
ENDBRANCH   1  26
TORSDOF 8
ENDMDL
MODEL 5
REMARK VINA RESULT:    -3.585     25.678     26.579
REMARK INTER + INTRA:          -5.617
REMARK INTER:                  -5.153
REMARK INTRA:                  -0.464
REMARK UNBOUND:                -0.670
REMARK  Name = 11515
REMARK  8 active torsions:
REMARK  status: ('A' for Active; 'I' for Inactive)
REMARK    1  A    between atoms: O_1  and  C_2
REMARK    2  A    between atoms: C_2  and  C_3
REMARK    3  A    between atoms: C_2  and  C_4
REMARK    4  A    between atoms: C_3  and  C_5
REMARK    5  A    between atoms: C_4  and  C_6
REMARK    6  A    between atoms: C_5  and  C_7
REMARK    7  A    between atoms: C_6  and  C_8
REMARK    8  A    between atoms: C_7  and  C_9
REMARK                            x       y       z     vdW  Elec       q    Type
REMARK                         _______ _______ _______ _____ _____    ______ ____
ROOT
ATOM      1  C   UNL     1       0.305   2.966 -20.036  0.00  0.00    +0.000 C 
ATOM      2  H   UNL     1       0.851   2.042 -19.813  0.00  0.00    +0.000 HD
ENDROOT
BRANCH   1   3
ATOM      3  C   UNL     1      -0.649   2.741 -21.215  0.00  0.00    +0.000 C 
ATOM      4  H   UNL     1      -0.286   1.905 -21.826  0.00  0.00    +0.000 HD
ATOM      5  H   UNL     1      -1.639   2.461 -20.835  0.00  0.00    +0.000 HD
BRANCH   3   6
ATOM      6  C   UNL     1      -0.766   3.978 -22.112  0.00  0.00    +0.000 C 
ATOM      7  H   UNL     1      -1.750   4.442 -21.972  0.00  0.00    +0.000 HD
ATOM      8  H   UNL     1      -0.014   4.723 -21.826  0.00  0.00    +0.000 HD
BRANCH   6   9
ATOM      9  C   UNL     1      -0.575   3.616 -23.585  0.00  0.00    +0.000 C 
ATOM     10  H   UNL     1      -0.356   2.546 -23.680  0.00  0.00    +0.000 HD
ATOM     11  H   UNL     1      -1.502   3.807 -24.138  0.00  0.00    +0.000 HD
BRANCH   9  12
ATOM     12  C   UNL     1       0.557   4.413 -24.214  0.00  0.00    +0.000 C 
ATOM     13  H   UNL     1       0.204   4.978 -25.082  0.00  0.00    +0.000 HD
ATOM     14  H   UNL     1       0.968   5.123 -23.489  0.00  0.00    +0.000 HD
ATOM     15  H   UNL     1       1.367   3.753 -24.539  0.00  0.00    +0.000 HD
ENDBRANCH   9  12
ENDBRANCH   6   9
ENDBRANCH   3   6
ENDBRANCH   1   3
BRANCH   1  16
ATOM     16  C   UNL     1       1.301   4.109 -20.276  0.00  0.00    +0.000 C 
ATOM     17  H   UNL     1       0.866   4.811 -20.998  0.00  0.00    +0.000 HD
ATOM     18  H   UNL     1       1.426   4.664 -19.336  0.00  0.00    +0.000 HD
BRANCH  16  19
ATOM     19  C   UNL     1       2.693   3.699 -20.757  0.00  0.00    +0.000 C 
ATOM     20  H   UNL     1       2.734   3.741 -21.852  0.00  0.00    +0.000 HD
ATOM     21  H   UNL     1       3.430   4.420 -20.386  0.00  0.00    +0.000 HD
BRANCH  19  22
ATOM     22  C   UNL     1       3.101   2.302 -20.318  0.00  0.00    +0.000 C 
ATOM     23  H   UNL     1       2.720   1.555 -21.022  0.00  0.00    +0.000 HD
ATOM     24  H   UNL     1       4.190   2.208 -20.277  0.00  0.00    +0.000 HD
ATOM     25  H   UNL     1       2.698   2.071 -19.327  0.00  0.00    +0.000 HD
ENDBRANCH  19  22
ENDBRANCH  16  19
ENDBRANCH   1  16
BRANCH   1  26
ATOM     26  O   UNL     1      -0.471   3.294 -18.881  0.00  0.00    +0.000 OA
ATOM     27  H   UNL     1      -0.164   2.736 -18.147  0.00  0.00    +0.000 HD
ENDBRANCH   1  26
TORSDOF 8
ENDMDL
MODEL 6
REMARK VINA RESULT:    -3.480     25.441     26.281
REMARK INTER + INTRA:          -5.472
REMARK INTER:                  -4.891
REMARK INTRA:                  -0.581
REMARK UNBOUND:                -0.670
REMARK  Name = 11515
REMARK  8 active torsions:
REMARK  status: ('A' for Active; 'I' for Inactive)
REMARK    1  A    between atoms: O_1  and  C_2
REMARK    2  A    between atoms: C_2  and  C_3
REMARK    3  A    between atoms: C_2  and  C_4
REMARK    4  A    between atoms: C_3  and  C_5
REMARK    5  A    between atoms: C_4  and  C_6
REMARK    6  A    between atoms: C_5  and  C_7
REMARK    7  A    between atoms: C_6  and  C_8
REMARK    8  A    between atoms: C_7  and  C_9
REMARK                            x       y       z     vdW  Elec       q    Type
REMARK                         _______ _______ _______ _____ _____    ______ ____
ROOT
ATOM      1  C   UNL     1       0.324   3.440 -20.062  0.00  0.00    +0.000 C 
ATOM      2  H   UNL     1       0.660   4.476 -20.189  0.00  0.00    +0.000 HD
ENDROOT
BRANCH   1   3
ATOM      3  C   UNL     1       1.526   2.490 -20.087  0.00  0.00    +0.000 C 
ATOM      4  H   UNL     1       1.800   2.218 -19.060  0.00  0.00    +0.000 HD
ATOM      5  H   UNL     1       1.250   1.565 -20.607  0.00  0.00    +0.000 HD
BRANCH   3   6
ATOM      6  C   UNL     1       2.751   3.121 -20.761  0.00  0.00    +0.000 C 
ATOM      7  H   UNL     1       2.636   4.211 -20.782  0.00  0.00    +0.000 HD
ATOM      8  H   UNL     1       3.655   2.902 -20.180  0.00  0.00    +0.000 HD
BRANCH   6   9
ATOM      9  C   UNL     1       2.932   2.596 -22.185  0.00  0.00    +0.000 C 
ATOM     10  H   UNL     1       3.833   1.976 -22.242  0.00  0.00    +0.000 HD
ATOM     11  H   UNL     1       2.082   1.960 -22.459  0.00  0.00    +0.000 HD
BRANCH   9  12
ATOM     12  C   UNL     1       3.049   3.735 -23.188  0.00  0.00    +0.000 C 
ATOM     13  H   UNL     1       2.092   4.252 -23.306  0.00  0.00    +0.000 HD
ATOM     14  H   UNL     1       3.791   4.464 -22.848  0.00  0.00    +0.000 HD
ATOM     15  H   UNL     1       3.361   3.363 -24.168  0.00  0.00    +0.000 HD
ENDBRANCH   9  12
ENDBRANCH   6   9
ENDBRANCH   3   6
ENDBRANCH   1   3
BRANCH   1  16
ATOM     16  C   UNL     1      -0.732   3.105 -21.124  0.00  0.00    +0.000 C 
ATOM     17  H   UNL     1      -0.649   2.043 -21.384  0.00  0.00    +0.000 HD
ATOM     18  H   UNL     1      -1.728   3.242 -20.680  0.00  0.00    +0.000 HD
BRANCH  16  19
ATOM     19  C   UNL     1      -0.682   3.936 -22.408  0.00  0.00    +0.000 C 
ATOM     20  H   UNL     1      -1.532   4.629 -22.434  0.00  0.00    +0.000 HD
ATOM     21  H   UNL     1       0.226   4.549 -22.404  0.00  0.00    +0.000 HD
BRANCH  19  22
ATOM     22  C   UNL     1      -0.711   3.097 -23.676  0.00  0.00    +0.000 C 
ATOM     23  H   UNL     1      -1.629   3.290 -24.239  0.00  0.00    +0.000 HD
ATOM     24  H   UNL     1       0.141   3.335 -24.320  0.00  0.00    +0.000 HD
ATOM     25  H   UNL     1      -0.676   2.029 -23.438  0.00  0.00    +0.000 HD
ENDBRANCH  19  22
ENDBRANCH  16  19
ENDBRANCH   1  16
BRANCH   1  26
ATOM     26  O   UNL     1      -0.300   3.348 -18.778  0.00  0.00    +0.000 OA
ATOM     27  H   UNL     1       0.393   3.155 -18.124  0.00  0.00    +0.000 HD
ENDBRANCH   1  26
TORSDOF 8
ENDMDL
MODEL 7
REMARK VINA RESULT:    -3.475     31.043     33.145
REMARK INTER + INTRA:          -5.466
REMARK INTER:                  -5.342
REMARK INTRA:                  -0.124
REMARK UNBOUND:                -0.670
REMARK  Name = 11515
REMARK  8 active torsions:
REMARK  status: ('A' for Active; 'I' for Inactive)
REMARK    1  A    between atoms: O_1  and  C_2
REMARK    2  A    between atoms: C_2  and  C_3
REMARK    3  A    between atoms: C_2  and  C_4
REMARK    4  A    between atoms: C_3  and  C_5
REMARK    5  A    between atoms: C_4  and  C_6
REMARK    6  A    between atoms: C_5  and  C_7
REMARK    7  A    between atoms: C_6  and  C_8
REMARK    8  A    between atoms: C_7  and  C_9
REMARK                            x       y       z     vdW  Elec       q    Type
REMARK                         _______ _______ _______ _____ _____    ______ ____
ROOT
ATOM      1  C   UNL     1     -14.826 -16.085   0.997  0.00  0.00    +0.000 C 
ATOM      2  H   UNL     1     -15.916 -16.204   0.989  0.00  0.00    +0.000 HD
ENDROOT
BRANCH   1   3
ATOM      3  C   UNL     1     -14.189 -17.016  -0.041  0.00  0.00    +0.000 C 
ATOM      4  H   UNL     1     -13.475 -17.685   0.456  0.00  0.00    +0.000 HD
ATOM      5  H   UNL     1     -14.965 -17.644  -0.494  0.00  0.00    +0.000 HD
BRANCH   3   6
ATOM      6  C   UNL     1     -13.442 -16.242  -1.134  0.00  0.00    +0.000 C 
ATOM      7  H   UNL     1     -14.114 -16.066  -1.983  0.00  0.00    +0.000 HD
ATOM      8  H   UNL     1     -13.134 -15.259  -0.756  0.00  0.00    +0.000 HD
BRANCH   6   9
ATOM      9  C   UNL     1     -12.205 -17.005  -1.608  0.00  0.00    +0.000 C 
ATOM     10  H   UNL     1     -11.533 -17.189  -0.762  0.00  0.00    +0.000 HD
ATOM     11  H   UNL     1     -12.501 -17.983  -2.006  0.00  0.00    +0.000 HD
BRANCH   9  12
ATOM     12  C   UNL     1     -11.452 -16.235  -2.682  0.00  0.00    +0.000 C 
ATOM     13  H   UNL     1     -10.981 -16.917  -3.396  0.00  0.00    +0.000 HD
ATOM     14  H   UNL     1     -12.139 -15.585  -3.234  0.00  0.00    +0.000 HD
ATOM     15  H   UNL     1     -10.672 -15.607  -2.240  0.00  0.00    +0.000 HD
ENDBRANCH   9  12
ENDBRANCH   6   9
ENDBRANCH   3   6
ENDBRANCH   1   3
BRANCH   1  16
ATOM     16  C   UNL     1     -14.292 -16.311   2.418  0.00  0.00    +0.000 C 
ATOM     17  H   UNL     1     -14.141 -17.386   2.573  0.00  0.00    +0.000 HD
ATOM     18  H   UNL     1     -13.302 -15.841   2.495  0.00  0.00    +0.000 HD
BRANCH  16  19
ATOM     19  C   UNL     1     -15.153 -15.760   3.555  0.00  0.00    +0.000 C 
ATOM     20  H   UNL     1     -15.879 -15.042   3.156  0.00  0.00    +0.000 HD
ATOM     21  H   UNL     1     -15.731 -16.580   3.998  0.00  0.00    +0.000 HD
BRANCH  19  22
ATOM     22  C   UNL     1     -14.350 -15.072   4.647  0.00  0.00    +0.000 C 
ATOM     23  H   UNL     1     -13.353 -15.515   4.723  0.00  0.00    +0.000 HD
ATOM     24  H   UNL     1     -14.235 -14.005   4.432  0.00  0.00    +0.000 HD
ATOM     25  H   UNL     1     -14.844 -15.175   5.619  0.00  0.00    +0.000 HD
ENDBRANCH  19  22
ENDBRANCH  16  19
ENDBRANCH   1  16
BRANCH   1  26
ATOM     26  O   UNL     1     -14.541 -14.733   0.629  0.00  0.00    +0.000 OA
ATOM     27  H   UNL     1     -14.571 -14.675  -0.341  0.00  0.00    +0.000 HD
ENDBRANCH   1  26
TORSDOF 8
ENDMDL
MODEL 8
REMARK VINA RESULT:    -3.447      1.722      3.448
REMARK INTER + INTRA:          -5.426
REMARK INTER:                  -4.978
REMARK INTRA:                  -0.448
REMARK UNBOUND:                -0.670
REMARK  Name = 11515
REMARK  8 active torsions:
REMARK  status: ('A' for Active; 'I' for Inactive)
REMARK    1  A    between atoms: O_1  and  C_2
REMARK    2  A    between atoms: C_2  and  C_3
REMARK    3  A    between atoms: C_2  and  C_4
REMARK    4  A    between atoms: C_3  and  C_5
REMARK    5  A    between atoms: C_4  and  C_6
REMARK    6  A    between atoms: C_5  and  C_7
REMARK    7  A    between atoms: C_6  and  C_8
REMARK    8  A    between atoms: C_7  and  C_9
REMARK                            x       y       z     vdW  Elec       q    Type
REMARK                         _______ _______ _______ _____ _____    ______ ____
ROOT
ATOM      1  C   UNL     1      16.493  -4.617  -2.659  0.00  0.00    +0.000 C 
ATOM      2  H   UNL     1      15.951  -4.077  -3.445  0.00  0.00    +0.000 HD
ENDROOT
BRANCH   1   3
ATOM      3  C   UNL     1      17.759  -3.845  -2.271  0.00  0.00    +0.000 C 
ATOM      4  H   UNL     1      18.631  -4.306  -2.753  0.00  0.00    +0.000 HD
ATOM      5  H   UNL     1      17.688  -2.816  -2.641  0.00  0.00    +0.000 HD
BRANCH   3   6
ATOM      6  C   UNL     1      17.994  -3.839  -0.755  0.00  0.00    +0.000 C 
ATOM      7  H   UNL     1      17.995  -2.805  -0.389  0.00  0.00    +0.000 HD
ATOM      8  H   UNL     1      17.177  -4.363  -0.246  0.00  0.00    +0.000 HD
BRANCH   6   9
ATOM      9  C   UNL     1      19.319  -4.511  -0.397  0.00  0.00    +0.000 C 
ATOM     10  H   UNL     1      20.074  -4.275  -1.156  0.00  0.00    +0.000 HD
ATOM     11  H   UNL     1      19.688  -4.122   0.560  0.00  0.00    +0.000 HD
BRANCH   9  12
ATOM     12  C   UNL     1      19.170  -6.022  -0.298  0.00  0.00    +0.000 C 
ATOM     13  H   UNL     1      19.290  -6.492  -1.278  0.00  0.00    +0.000 HD
ATOM     14  H   UNL     1      19.930  -6.434   0.374  0.00  0.00    +0.000 HD
ATOM     15  H   UNL     1      18.186  -6.293   0.096  0.00  0.00    +0.000 HD
ENDBRANCH   9  12
ENDBRANCH   6   9
ENDBRANCH   3   6
ENDBRANCH   1   3
BRANCH   1  16
ATOM     16  C   UNL     1      16.779  -6.052  -3.121  0.00  0.00    +0.000 C 
ATOM     17  H   UNL     1      16.943  -6.682  -2.237  0.00  0.00    +0.000 HD
ATOM     18  H   UNL     1      15.881  -6.442  -3.620  0.00  0.00    +0.000 HD
BRANCH  16  19
ATOM     19  C   UNL     1      17.954  -6.228  -4.083  0.00  0.00    +0.000 C 
ATOM     20  H   UNL     1      18.423  -5.256  -4.277  0.00  0.00    +0.000 HD
ATOM     21  H   UNL     1      18.717  -6.857  -3.609  0.00  0.00    +0.000 HD
BRANCH  19  22
ATOM     22  C   UNL     1      17.561  -6.844  -5.416  0.00  0.00    +0.000 C 
ATOM     23  H   UNL     1      16.755  -7.570  -5.277  0.00  0.00    +0.000 HD
ATOM     24  H   UNL     1      17.213  -6.076  -6.113  0.00  0.00    +0.000 HD
ATOM     25  H   UNL     1      18.411  -7.362  -5.872  0.00  0.00    +0.000 HD
ENDBRANCH  19  22
ENDBRANCH  16  19
ENDBRANCH   1  16
BRANCH   1  26
ATOM     26  O   UNL     1      15.636  -4.685  -1.516  0.00  0.00    +0.000 OA
ATOM     27  H   UNL     1      14.726  -4.811  -1.834  0.00  0.00    +0.000 HD
ENDBRANCH   1  26
TORSDOF 8
ENDMDL
MODEL 9
REMARK VINA RESULT:    -3.366     10.538     12.190
REMARK INTER + INTRA:          -5.315
REMARK INTER:                  -5.018
REMARK INTRA:                  -0.297
REMARK UNBOUND:                -0.670
REMARK  Name = 11515
REMARK  8 active torsions:
REMARK  status: ('A' for Active; 'I' for Inactive)
REMARK    1  A    between atoms: O_1  and  C_2
REMARK    2  A    between atoms: C_2  and  C_3
REMARK    3  A    between atoms: C_2  and  C_4
REMARK    4  A    between atoms: C_3  and  C_5
REMARK    5  A    between atoms: C_4  and  C_6
REMARK    6  A    between atoms: C_5  and  C_7
REMARK    7  A    between atoms: C_6  and  C_8
REMARK    8  A    between atoms: C_7  and  C_9
REMARK                            x       y       z     vdW  Elec       q    Type
REMARK                         _______ _______ _______ _____ _____    ______ ____
ROOT
ATOM      1  C   UNL     1      14.351   6.500  -0.788  0.00  0.00    +0.000 C 
ATOM      2  H   UNL     1      14.606   7.499  -0.416  0.00  0.00    +0.000 HD
ENDROOT
BRANCH   1   3
ATOM      3  C   UNL     1      14.757   5.437   0.239  0.00  0.00    +0.000 C 
ATOM      4  H   UNL     1      15.693   5.737   0.726  0.00  0.00    +0.000 HD
ATOM      5  H   UNL     1      13.990   5.372   1.020  0.00  0.00    +0.000 HD
BRANCH   3   6
ATOM      6  C   UNL     1      14.967   4.060  -0.402  0.00  0.00    +0.000 C 
ATOM      7  H   UNL     1      14.566   4.066  -1.423  0.00  0.00    +0.000 HD
ATOM      8  H   UNL     1      16.038   3.838  -0.476  0.00  0.00    +0.000 HD
BRANCH   6   9
ATOM      9  C   UNL     1      14.282   2.960   0.410  0.00  0.00    +0.000 C 
ATOM     10  H   UNL     1      14.295   2.020  -0.152  0.00  0.00    +0.000 HD
ATOM     11  H   UNL     1      14.832   2.789   1.342  0.00  0.00    +0.000 HD
BRANCH   9  12
ATOM     12  C   UNL     1      12.842   3.324   0.738  0.00  0.00    +0.000 C 
ATOM     13  H   UNL     1      12.404   2.600   1.432  0.00  0.00    +0.000 HD
ATOM     14  H   UNL     1      12.798   4.313   1.205  0.00  0.00    +0.000 HD
ATOM     15  H   UNL     1      12.228   3.348  -0.167  0.00  0.00    +0.000 HD
ENDBRANCH   9  12
ENDBRANCH   6   9
ENDBRANCH   3   6
ENDBRANCH   1   3
BRANCH   1  16
ATOM     16  C   UNL     1      14.990   6.283  -2.167  0.00  0.00    +0.000 C 
ATOM     17  H   UNL     1      15.030   5.206  -2.372  0.00  0.00    +0.000 HD
ATOM     18  H   UNL     1      14.332   6.722  -2.928  0.00  0.00    +0.000 HD
BRANCH  16  19
ATOM     19  C   UNL     1      16.385   6.879  -2.363  0.00  0.00    +0.000 C 
ATOM     20  H   UNL     1      16.928   6.872  -1.410  0.00  0.00    +0.000 HD
ATOM     21  H   UNL     1      16.953   6.246  -3.054  0.00  0.00    +0.000 HD
BRANCH  19  22
ATOM     22  C   UNL     1      16.367   8.303  -2.893  0.00  0.00    +0.000 C 
ATOM     23  H   UNL     1      16.789   8.990  -2.152  0.00  0.00    +0.000 HD
ATOM     24  H   UNL     1      16.959   8.385  -3.810  0.00  0.00    +0.000 HD
ATOM     25  H   UNL     1      15.345   8.626  -3.113  0.00  0.00    +0.000 HD
ENDBRANCH  19  22
ENDBRANCH  16  19
ENDBRANCH   1  16
BRANCH   1  26
ATOM     26  O   UNL     1      12.930   6.454  -0.951  0.00  0.00    +0.000 OA
ATOM     27  H   UNL     1      12.579   5.809  -0.314  0.00  0.00    +0.000 HD
ENDBRANCH   1  26
TORSDOF 8
ENDMDL
MODEL 10
REMARK VINA RESULT:    -3.340     25.517     27.015
REMARK INTER + INTRA:          -5.278
REMARK INTER:                  -4.609
REMARK INTRA:                  -0.670
REMARK UNBOUND:                -0.670
REMARK  Name = 11515
REMARK  8 active torsions:
REMARK  status: ('A' for Active; 'I' for Inactive)
REMARK    1  A    between atoms: O_1  and  C_2
REMARK    2  A    between atoms: C_2  and  C_3
REMARK    3  A    between atoms: C_2  and  C_4
REMARK    4  A    between atoms: C_3  and  C_5
REMARK    5  A    between atoms: C_4  and  C_6
REMARK    6  A    between atoms: C_5  and  C_7
REMARK    7  A    between atoms: C_6  and  C_8
REMARK    8  A    between atoms: C_7  and  C_9
REMARK                            x       y       z     vdW  Elec       q    Type
REMARK                         _______ _______ _______ _____ _____    ______ ____
ROOT
ATOM      1  C   UNL     1      -6.843  -8.336 -11.896  0.00  0.00    +0.000 C 
ATOM      2  H   UNL     1      -7.909  -8.477 -11.686  0.00  0.00    +0.000 HD
ENDROOT
BRANCH   1   3
ATOM      3  C   UNL     1      -6.498  -6.843 -11.884  0.00  0.00    +0.000 C 
ATOM      4  H   UNL     1      -6.109  -6.565 -10.897  0.00  0.00    +0.000 HD
ATOM      5  H   UNL     1      -5.705  -6.645 -12.615  0.00  0.00    +0.000 HD
BRANCH   3   6
ATOM      6  C   UNL     1      -7.717  -5.963 -12.187  0.00  0.00    +0.000 C 
ATOM      7  H   UNL     1      -7.606  -4.996 -11.679  0.00  0.00    +0.000 HD
ATOM      8  H   UNL     1      -7.777  -5.759 -13.262  0.00  0.00    +0.000 HD
BRANCH   6   9
ATOM      9  C   UNL     1      -9.013  -6.634 -11.732  0.00  0.00    +0.000 C 
ATOM     10  H   UNL     1      -8.809  -7.666 -11.422  0.00  0.00    +0.000 HD
ATOM     11  H   UNL     1      -9.420  -6.108 -10.861  0.00  0.00    +0.000 HD
BRANCH   9  12
ATOM     12  C   UNL     1     -10.054  -6.646 -12.842  0.00  0.00    +0.000 C 
ATOM     13  H   UNL     1     -10.353  -7.669 -13.088  0.00  0.00    +0.000 HD
ATOM     14  H   UNL     1     -10.947  -6.095 -12.528  0.00  0.00    +0.000 HD
ATOM     15  H   UNL     1      -9.665  -6.174 -13.749  0.00  0.00    +0.000 HD
ENDBRANCH   9  12
ENDBRANCH   6   9
ENDBRANCH   3   6
ENDBRANCH   1   3
BRANCH   1  16
ATOM     16  C   UNL     1      -6.480  -9.029 -13.217  0.00  0.00    +0.000 C 
ATOM     17  H   UNL     1      -5.686  -8.456 -13.711  0.00  0.00    +0.000 HD
ATOM     18  H   UNL     1      -6.057 -10.016 -12.987  0.00  0.00    +0.000 HD
BRANCH  16  19
ATOM     19  C   UNL     1      -7.629  -9.238 -14.205  0.00  0.00    +0.000 C 
ATOM     20  H   UNL     1      -7.532 -10.219 -14.684  0.00  0.00    +0.000 HD
ATOM     21  H   UNL     1      -8.578  -9.248 -13.656  0.00  0.00    +0.000 HD
BRANCH  19  22
ATOM     22  C   UNL     1      -7.695  -8.179 -15.293  0.00  0.00    +0.000 C 
ATOM     23  H   UNL     1      -7.446  -7.195 -14.883  0.00  0.00    +0.000 HD
ATOM     24  H   UNL     1      -6.988  -8.402 -16.098  0.00  0.00    +0.000 HD
ATOM     25  H   UNL     1      -8.700  -8.124 -15.724  0.00  0.00    +0.000 HD
ENDBRANCH  19  22
ENDBRANCH  16  19
ENDBRANCH   1  16
BRANCH   1  26
ATOM     26  O   UNL     1      -6.111  -8.978 -10.848  0.00  0.00    +0.000 OA
ATOM     27  H   UNL     1      -5.432  -8.357 -10.535  0.00  0.00    +0.000 HD
ENDBRANCH   1  26
TORSDOF 8
ENDMDL
