MODEL 1
REMARK VINA RESULT:    -5.460      0.000      0.000
REMARK INTER + INTRA:          -8.701
REMARK INTER:                  -7.639
REMARK INTRA:                  -1.062
REMARK UNBOUND:                -1.166
REMARK  Name = 5365976
REMARK  8 active torsions:
REMARK  status: ('A' for Active; 'I' for Inactive)
REMARK    1  A    between atoms: C_2  and  C_7
REMARK    2  A    between atoms: C_2  and  C_8
REMARK    3  A    between atoms: C_3  and  C_10
REMARK    4  A    between atoms: C_6  and  C_11
REMARK    5  A    between atoms: C_12  and  C_13
REMARK    6  A    between atoms: C_13  and  C_14
REMARK    7  A    between atoms: C_14  and  C_15
REMARK    8  A    between atoms: C_15  and  C_16
REMARK                            x       y       z     vdW  Elec       q    Type
REMARK                         _______ _______ _______ _____ _____    ______ ____
ROOT
ATOM      1  C   UNL     1      -6.378 -15.687   3.666  0.00  0.00    +0.000 C 
ATOM      2  C   UNL     1      -6.096 -15.301   2.170  0.00  0.00    +0.000 C 
ATOM      3  C   UNL     1      -6.307 -14.416   4.545  0.00  0.00    +0.000 C 
ATOM      4  C   UNL     1      -7.267 -13.315   4.087  0.00  0.00    +0.000 C 
ATOM      5  C   UNL     1      -6.907 -14.092   1.722  0.00  0.00    +0.000 C 
ATOM      6  C   UNL     1      -7.419 -13.211   2.599  0.00  0.00    +0.000 C 
ATOM      7  H   UNL     1      -6.426 -16.156   1.562  0.00  0.00    +0.000 HD
ATOM      8  H   UNL     1      -5.285 -14.017   4.536  0.00  0.00    +0.000 HD
ATOM      9  H   UNL     1      -6.521 -14.662   5.594  0.00  0.00    +0.000 HD
ATOM     10  H   UNL     1      -6.921 -12.354   4.484  0.00  0.00    +0.000 HD
ATOM     11  H   UNL     1      -8.259 -13.491   4.519  0.00  0.00    +0.000 HD
ATOM     12  H   UNL     1      -8.003 -12.369   2.237  0.00  0.00    +0.000 HD
ENDROOT
BRANCH   1  13
ATOM     13  C   UNL     1      -7.779 -16.338   3.783  0.00  0.00    +0.000 C 
ATOM     14  H   UNL     1      -8.500 -15.637   4.220  0.00  0.00    +0.000 HD
ATOM     15  H   UNL     1      -8.180 -16.659   2.817  0.00  0.00    +0.000 HD
ATOM     16  H   UNL     1      -7.745 -17.222   4.429  0.00  0.00    +0.000 HD
ENDBRANCH   1  13
BRANCH   1  17
ATOM     17  C   UNL     1      -5.361 -16.723   4.195  0.00  0.00    +0.000 C 
ATOM     18  H   UNL     1      -5.659 -17.094   5.183  0.00  0.00    +0.000 HD
ATOM     19  H   UNL     1      -5.291 -17.586   3.523  0.00  0.00    +0.000 HD
ATOM     20  H   UNL     1      -4.359 -16.296   4.306  0.00  0.00    +0.000 HD
ENDBRANCH   1  17
BRANCH   2  21
ATOM     21  C   UNL     1      -4.636 -15.053   1.889  0.00  0.00    +0.000 C 
ATOM     22  C   UNL     1      -3.977 -15.614   0.869  0.00  0.00    +0.000 C 
ATOM     23  H   UNL     1      -4.115 -14.374   2.561  0.00  0.00    +0.000 HD
ATOM     24  H   UNL     1      -4.468 -16.294   0.180  0.00  0.00    +0.000 HD
BRANCH  22  26
ATOM     25  O   UNL     1      -1.950 -15.704  -0.374  0.00  0.00    +0.000 OA
ATOM     26  C   UNL     1      -2.531 -15.329   0.642  0.00  0.00    +0.000 C 
BRANCH  26  27
ATOM     27  C   UNL     1      -1.837 -14.555   1.749  0.00  0.00    +0.000 C 
ATOM     28  H   UNL     1      -1.325 -13.698   1.294  0.00  0.00    +0.000 HD
ATOM     29  H   UNL     1      -2.605 -14.178   2.436  0.00  0.00    +0.000 HD
BRANCH  27  30
ATOM     30  C   UNL     1      -0.831 -15.412   2.517  0.00  0.00    +0.000 C 
ATOM     31  H   UNL     1       0.005 -14.789   2.858  0.00  0.00    +0.000 HD
ATOM     32  H   UNL     1      -0.402 -16.168   1.847  0.00  0.00    +0.000 HD
BRANCH  30  33
ATOM     33  C   UNL     1      -1.481 -16.113   3.673  0.00  0.00    +0.000 C 
ATOM     34  C   UNL     1      -1.744 -17.425   3.701  0.00  0.00    +0.000 C 
ATOM     35  H   UNL     1      -1.765 -15.507   4.528  0.00  0.00    +0.000 HD
ATOM     36  H   UNL     1      -2.224 -17.869   4.565  0.00  0.00    +0.000 HD
ATOM     37  H   UNL     1      -1.488 -18.073   2.870  0.00  0.00    +0.000 HD
ENDBRANCH  30  33
ENDBRANCH  27  30
ENDBRANCH  26  27
ENDBRANCH  22  26
ENDBRANCH   2  21
BRANCH   5  38
ATOM     38  C   UNL     1      -7.124 -13.935   0.242  0.00  0.00    +0.000 C 
ATOM     39  H   UNL     1      -6.396 -13.239  -0.185  0.00  0.00    +0.000 HD
ATOM     40  H   UNL     1      -8.123 -13.551   0.011  0.00  0.00    +0.000 HD
ATOM     41  H   UNL     1      -7.018 -14.902  -0.261  0.00  0.00    +0.000 HD
ENDBRANCH   5  38
TORSDOF 8
ENDMDL
MODEL 2
REMARK VINA RESULT:    -5.456      1.602      2.685
REMARK INTER + INTRA:          -8.695
REMARK INTER:                  -8.099
REMARK INTRA:                  -0.596
REMARK UNBOUND:                -1.166
REMARK  Name = 5365976
REMARK  8 active torsions:
REMARK  status: ('A' for Active; 'I' for Inactive)
REMARK    1  A    between atoms: C_2  and  C_7
REMARK    2  A    between atoms: C_2  and  C_8
REMARK    3  A    between atoms: C_3  and  C_10
REMARK    4  A    between atoms: C_6  and  C_11
REMARK    5  A    between atoms: C_12  and  C_13
REMARK    6  A    between atoms: C_13  and  C_14
REMARK    7  A    between atoms: C_14  and  C_15
REMARK    8  A    between atoms: C_15  and  C_16
REMARK                            x       y       z     vdW  Elec       q    Type
REMARK                         _______ _______ _______ _____ _____    ______ ____
ROOT
ATOM      1  C   UNL     1      -5.752 -15.037   4.457  0.00  0.00    +0.000 C 
ATOM      2  C   UNL     1      -5.680 -15.197   2.896  0.00  0.00    +0.000 C 
ATOM      3  C   UNL     1      -5.903 -13.539   4.812  0.00  0.00    +0.000 C 
ATOM      4  C   UNL     1      -7.119 -12.885   4.150  0.00  0.00    +0.000 C 
ATOM      5  C   UNL     1      -6.775 -14.415   2.183  0.00  0.00    +0.000 C 
ATOM      6  C   UNL     1      -7.405 -13.377   2.763  0.00  0.00    +0.000 C 
ATOM      7  H   UNL     1      -5.854 -16.263   2.686  0.00  0.00    +0.000 HD
ATOM      8  H   UNL     1      -5.001 -12.994   4.505  0.00  0.00    +0.000 HD
ATOM      9  H   UNL     1      -5.975 -13.407   5.899  0.00  0.00    +0.000 HD
ATOM     10  H   UNL     1      -6.970 -11.799   4.126  0.00  0.00    +0.000 HD
ATOM     11  H   UNL     1      -8.010 -13.063   4.765  0.00  0.00    +0.000 HD
ATOM     12  H   UNL     1      -8.190 -12.854   2.223  0.00  0.00    +0.000 HD
ENDROOT
BRANCH   1  13
ATOM     13  C   UNL     1      -6.956 -15.839   5.010  0.00  0.00    +0.000 C 
ATOM     14  H   UNL     1      -7.375 -16.498   4.239  0.00  0.00    +0.000 HD
ATOM     15  H   UNL     1      -6.692 -16.466   5.867  0.00  0.00    +0.000 HD
ATOM     16  H   UNL     1      -7.757 -15.165   5.336  0.00  0.00    +0.000 HD
ENDBRANCH   1  13
BRANCH   1  17
ATOM     17  C   UNL     1      -4.490 -15.595   5.152  0.00  0.00    +0.000 C 
ATOM     18  H   UNL     1      -4.553 -15.465   6.238  0.00  0.00    +0.000 HD
ATOM     19  H   UNL     1      -4.370 -16.665   4.951  0.00  0.00    +0.000 HD
ATOM     20  H   UNL     1      -3.580 -15.082   4.823  0.00  0.00    +0.000 HD
ENDBRANCH   1  17
BRANCH   2  21
ATOM     21  C   UNL     1      -4.340 -14.812   2.324  0.00  0.00    +0.000 C 
ATOM     22  C   UNL     1      -3.560 -15.658   1.641  0.00  0.00    +0.000 C 
ATOM     23  H   UNL     1      -4.015 -13.785   2.482  0.00  0.00    +0.000 HD
ATOM     24  H   UNL     1      -3.857 -16.687   1.464  0.00  0.00    +0.000 HD
BRANCH  22  26
ATOM     25  O   UNL     1      -1.788 -14.101   1.334  0.00  0.00    +0.000 OA
ATOM     26  C   UNL     1      -2.243 -15.218   1.099  0.00  0.00    +0.000 C 
BRANCH  26  27
ATOM     27  C   UNL     1      -1.516 -16.239   0.240  0.00  0.00    +0.000 C 
ATOM     28  H   UNL     1      -0.574 -15.789  -0.097  0.00  0.00    +0.000 HD
ATOM     29  H   UNL     1      -1.283 -17.108   0.868  0.00  0.00    +0.000 HD
BRANCH  27  30
ATOM     30  C   UNL     1      -2.343 -16.678  -0.968  0.00  0.00    +0.000 C 
ATOM     31  H   UNL     1      -3.251 -17.195  -0.630  0.00  0.00    +0.000 HD
ATOM     32  H   UNL     1      -1.775 -17.403  -1.562  0.00  0.00    +0.000 HD
BRANCH  30  33
ATOM     33  C   UNL     1      -2.690 -15.511  -1.845  0.00  0.00    +0.000 C 
ATOM     34  C   UNL     1      -2.733 -15.567  -3.181  0.00  0.00    +0.000 C 
ATOM     35  H   UNL     1      -2.901 -14.564  -1.357  0.00  0.00    +0.000 HD
ATOM     36  H   UNL     1      -2.982 -14.684  -3.759  0.00  0.00    +0.000 HD
ATOM     37  H   UNL     1      -2.522 -16.485  -3.719  0.00  0.00    +0.000 HD
ENDBRANCH  30  33
ENDBRANCH  27  30
ENDBRANCH  26  27
ENDBRANCH  22  26
ENDBRANCH   2  21
BRANCH   5  38
ATOM     38  C   UNL     1      -7.135 -14.867   0.795  0.00  0.00    +0.000 C 
ATOM     39  H   UNL     1      -6.235 -15.077   0.210  0.00  0.00    +0.000 HD
ATOM     40  H   UNL     1      -7.714 -14.112   0.253  0.00  0.00    +0.000 HD
ATOM     41  H   UNL     1      -7.742 -15.778   0.840  0.00  0.00    +0.000 HD
ENDBRANCH   5  38
TORSDOF 8
ENDMDL
MODEL 3
REMARK VINA RESULT:    -5.419      1.762      3.543
REMARK INTER + INTRA:          -8.644
REMARK INTER:                  -7.861
REMARK INTRA:                  -0.784
REMARK UNBOUND:                -1.166
REMARK  Name = 5365976
REMARK  8 active torsions:
REMARK  status: ('A' for Active; 'I' for Inactive)
REMARK    1  A    between atoms: C_2  and  C_7
REMARK    2  A    between atoms: C_2  and  C_8
REMARK    3  A    between atoms: C_3  and  C_10
REMARK    4  A    between atoms: C_6  and  C_11
REMARK    5  A    between atoms: C_12  and  C_13
REMARK    6  A    between atoms: C_13  and  C_14
REMARK    7  A    between atoms: C_14  and  C_15
REMARK    8  A    between atoms: C_15  and  C_16
REMARK                            x       y       z     vdW  Elec       q    Type
REMARK                         _______ _______ _______ _____ _____    ______ ____
ROOT
ATOM      1  C   UNL     1      -7.449 -14.259   5.404  0.00  0.00    +0.000 C 
ATOM      2  C   UNL     1      -6.048 -14.902   5.103  0.00  0.00    +0.000 C 
ATOM      3  C   UNL     1      -8.543 -15.349   5.311  0.00  0.00    +0.000 C 
ATOM      4  C   UNL     1      -8.288 -16.537   6.243  0.00  0.00    +0.000 C 
ATOM      5  C   UNL     1      -5.823 -16.190   5.884  0.00  0.00    +0.000 C 
ATOM      6  C   UNL     1      -6.843 -16.911   6.383  0.00  0.00    +0.000 C 
ATOM      7  H   UNL     1      -5.295 -14.178   5.448  0.00  0.00    +0.000 HD
ATOM      8  H   UNL     1      -8.609 -15.720   4.280  0.00  0.00    +0.000 HD
ATOM      9  H   UNL     1      -9.529 -14.923   5.538  0.00  0.00    +0.000 HD
ATOM     10  H   UNL     1      -8.853 -17.403   5.878  0.00  0.00    +0.000 HD
ATOM     11  H   UNL     1      -8.679 -16.308   7.242  0.00  0.00    +0.000 HD
ATOM     12  H   UNL     1      -6.637 -17.818   6.945  0.00  0.00    +0.000 HD
ENDROOT
BRANCH   1  13
ATOM     13  C   UNL     1      -7.442 -13.631   6.820  0.00  0.00    +0.000 C 
ATOM     14  H   UNL     1      -8.434 -13.243   7.080  0.00  0.00    +0.000 HD
ATOM     15  H   UNL     1      -7.156 -14.343   7.599  0.00  0.00    +0.000 HD
ATOM     16  H   UNL     1      -6.737 -12.794   6.872  0.00  0.00    +0.000 HD
ENDBRANCH   1  13
BRANCH   1  17
ATOM     17  C   UNL     1      -7.785 -13.122   4.415  0.00  0.00    +0.000 C 
ATOM     18  H   UNL     1      -8.297 -13.514   3.528  0.00  0.00    +0.000 HD
ATOM     19  H   UNL     1      -8.444 -12.379   4.877  0.00  0.00    +0.000 HD
ATOM     20  H   UNL     1      -6.887 -12.606   4.060  0.00  0.00    +0.000 HD
ENDBRANCH   1  17
BRANCH   2  21
ATOM     21  C   UNL     1      -5.820 -15.163   3.636  0.00  0.00    +0.000 C 
ATOM     22  C   UNL     1      -4.757 -14.708   2.964  0.00  0.00    +0.000 C 
ATOM     23  H   UNL     1      -6.571 -15.760   3.121  0.00  0.00    +0.000 HD
ATOM     24  H   UNL     1      -3.991 -14.112   3.448  0.00  0.00    +0.000 HD
BRANCH  22  26
ATOM     25  O   UNL     1      -5.520 -14.897   0.718  0.00  0.00    +0.000 OA
ATOM     26  C   UNL     1      -4.587 -14.999   1.511  0.00  0.00    +0.000 C 
BRANCH  26  27
ATOM     27  C   UNL     1      -3.193 -15.432   1.092  0.00  0.00    +0.000 C 
ATOM     28  H   UNL     1      -3.055 -16.476   1.398  0.00  0.00    +0.000 HD
ATOM     29  H   UNL     1      -3.133 -15.379  -0.003  0.00  0.00    +0.000 HD
BRANCH  27  30
ATOM     30  C   UNL     1      -2.101 -14.561   1.713  0.00  0.00    +0.000 C 
ATOM     31  H   UNL     1      -2.550 -13.848   2.416  0.00  0.00    +0.000 HD
ATOM     32  H   UNL     1      -1.614 -13.965   0.933  0.00  0.00    +0.000 HD
BRANCH  30  33
ATOM     33  C   UNL     1      -1.058 -15.397   2.395  0.00  0.00    +0.000 C 
ATOM     34  C   UNL     1      -1.275 -16.097   3.515  0.00  0.00    +0.000 C 
ATOM     35  H   UNL     1      -0.066 -15.415   1.954  0.00  0.00    +0.000 HD
ATOM     36  H   UNL     1      -0.475 -16.675   3.963  0.00  0.00    +0.000 HD
ATOM     37  H   UNL     1      -2.245 -16.106   4.000  0.00  0.00    +0.000 HD
ENDBRANCH  30  33
ENDBRANCH  27  30
ENDBRANCH  26  27
ENDBRANCH  22  26
ENDBRANCH   2  21
BRANCH   5  38
ATOM     38  C   UNL     1      -4.395 -16.617   6.088  0.00  0.00    +0.000 C 
ATOM     39  H   UNL     1      -4.329 -17.701   6.216  0.00  0.00    +0.000 HD
ATOM     40  H   UNL     1      -3.948 -16.151   6.972  0.00  0.00    +0.000 HD
ATOM     41  H   UNL     1      -3.788 -16.331   5.222  0.00  0.00    +0.000 HD
ENDBRANCH   5  38
TORSDOF 8
ENDMDL
MODEL 4
REMARK VINA RESULT:    -5.382      2.410      5.546
REMARK INTER + INTRA:          -8.594
REMARK INTER:                  -7.978
REMARK INTRA:                  -0.616
REMARK UNBOUND:                -1.166
REMARK  Name = 5365976
REMARK  8 active torsions:
REMARK  status: ('A' for Active; 'I' for Inactive)
REMARK    1  A    between atoms: C_2  and  C_7
REMARK    2  A    between atoms: C_2  and  C_8
REMARK    3  A    between atoms: C_3  and  C_10
REMARK    4  A    between atoms: C_6  and  C_11
REMARK    5  A    between atoms: C_12  and  C_13
REMARK    6  A    between atoms: C_13  and  C_14
REMARK    7  A    between atoms: C_14  and  C_15
REMARK    8  A    between atoms: C_15  and  C_16
REMARK                            x       y       z     vdW  Elec       q    Type
REMARK                         _______ _______ _______ _____ _____    ______ ____
ROOT
ATOM      1  C   UNL     1      -4.435 -16.902   0.515  0.00  0.00    +0.000 C 
ATOM      2  C   UNL     1      -3.745 -15.859   1.465  0.00  0.00    +0.000 C 
ATOM      3  C   UNL     1      -4.488 -16.330  -0.921  0.00  0.00    +0.000 C 
ATOM      4  C   UNL     1      -3.109 -15.941  -1.464  0.00  0.00    +0.000 C 
ATOM      5  C   UNL     1      -2.449 -15.313   0.880  0.00  0.00    +0.000 C 
ATOM      6  C   UNL     1      -2.186 -15.356  -0.438  0.00  0.00    +0.000 C 
ATOM      7  H   UNL     1      -3.481 -16.404   2.383  0.00  0.00    +0.000 HD
ATOM      8  H   UNL     1      -5.135 -15.444  -0.943  0.00  0.00    +0.000 HD
ATOM      9  H   UNL     1      -4.950 -17.053  -1.606  0.00  0.00    +0.000 HD
ATOM     10  H   UNL     1      -3.239 -15.228  -2.285  0.00  0.00    +0.000 HD
ATOM     11  H   UNL     1      -2.624 -16.826  -1.894  0.00  0.00    +0.000 HD
ATOM     12  H   UNL     1      -1.243 -14.966  -0.812  0.00  0.00    +0.000 HD
ENDROOT
BRANCH   1  13
ATOM     13  C   UNL     1      -3.639 -18.230   0.530  0.00  0.00    +0.000 C 
ATOM     14  H   UNL     1      -2.561 -18.041   0.466  0.00  0.00    +0.000 HD
ATOM     15  H   UNL     1      -3.814 -18.820   1.435  0.00  0.00    +0.000 HD
ATOM     16  H   UNL     1      -3.914 -18.859  -0.325  0.00  0.00    +0.000 HD
ENDBRANCH   1  13
BRANCH   1  17
ATOM     17  C   UNL     1      -5.870 -17.239   0.976  0.00  0.00    +0.000 C 
ATOM     18  H   UNL     1      -6.605 -16.927   0.224  0.00  0.00    +0.000 HD
ATOM     19  H   UNL     1      -5.992 -18.317   1.132  0.00  0.00    +0.000 HD
ATOM     20  H   UNL     1      -6.134 -16.728   1.908  0.00  0.00    +0.000 HD
ENDBRANCH   1  17
BRANCH   2  21
ATOM     21  C   UNL     1      -4.647 -14.710   1.836  0.00  0.00    +0.000 C 
ATOM     22  C   UNL     1      -4.837 -14.301   3.096  0.00  0.00    +0.000 C 
ATOM     23  H   UNL     1      -5.153 -14.199   1.019  0.00  0.00    +0.000 HD
ATOM     24  H   UNL     1      -4.346 -14.788   3.932  0.00  0.00    +0.000 HD
BRANCH  22  26
ATOM     25  O   UNL     1      -5.308 -12.027   3.612  0.00  0.00    +0.000 OA
ATOM     26  C   UNL     1      -5.743 -13.156   3.401  0.00  0.00    +0.000 C 
BRANCH  26  27
ATOM     27  C   UNL     1      -7.225 -13.488   3.434  0.00  0.00    +0.000 C 
ATOM     28  H   UNL     1      -7.692 -13.041   2.548  0.00  0.00    +0.000 HD
ATOM     29  H   UNL     1      -7.333 -14.578   3.372  0.00  0.00    +0.000 HD
BRANCH  27  30
ATOM     30  C   UNL     1      -7.909 -12.970   4.699  0.00  0.00    +0.000 C 
ATOM     31  H   UNL     1      -8.993 -12.910   4.537  0.00  0.00    +0.000 HD
ATOM     32  H   UNL     1      -7.569 -11.949   4.911  0.00  0.00    +0.000 HD
BRANCH  30  33
ATOM     33  C   UNL     1      -7.593 -13.834   5.883  0.00  0.00    +0.000 C 
ATOM     34  C   UNL     1      -8.342 -14.873   6.272  0.00  0.00    +0.000 C 
ATOM     35  H   UNL     1      -6.709 -13.584   6.463  0.00  0.00    +0.000 HD
ATOM     36  H   UNL     1      -8.063 -15.453   7.144  0.00  0.00    +0.000 HD
ATOM     37  H   UNL     1      -9.239 -15.160   5.734  0.00  0.00    +0.000 HD
ENDBRANCH  30  33
ENDBRANCH  27  30
ENDBRANCH  26  27
ENDBRANCH  22  26
ENDBRANCH   2  21
BRANCH   5  38
ATOM     38  C   UNL     1      -1.460 -14.732   1.853  0.00  0.00    +0.000 C 
ATOM     39  H   UNL     1      -0.507 -15.267   1.804  0.00  0.00    +0.000 HD
ATOM     40  H   UNL     1      -1.818 -14.787   2.886  0.00  0.00    +0.000 HD
ATOM     41  H   UNL     1      -1.278 -13.677   1.622  0.00  0.00    +0.000 HD
ENDBRANCH   5  38
TORSDOF 8
ENDMDL
MODEL 5
REMARK VINA RESULT:    -5.121      1.837      5.475
REMARK INTER + INTRA:          -8.233
REMARK INTER:                  -7.736
REMARK INTRA:                  -0.497
REMARK UNBOUND:                -1.166
REMARK  Name = 5365976
REMARK  8 active torsions:
REMARK  status: ('A' for Active; 'I' for Inactive)
REMARK    1  A    between atoms: C_2  and  C_7
REMARK    2  A    between atoms: C_2  and  C_8
REMARK    3  A    between atoms: C_3  and  C_10
REMARK    4  A    between atoms: C_6  and  C_11
REMARK    5  A    between atoms: C_12  and  C_13
REMARK    6  A    between atoms: C_13  and  C_14
REMARK    7  A    between atoms: C_14  and  C_15
REMARK    8  A    between atoms: C_15  and  C_16
REMARK                            x       y       z     vdW  Elec       q    Type
REMARK                         _______ _______ _______ _____ _____    ______ ____
ROOT
ATOM      1  C   UNL     1      -2.303 -16.017   0.710  0.00  0.00    +0.000 C 
ATOM      2  C   UNL     1      -3.622 -16.235   1.535  0.00  0.00    +0.000 C 
ATOM      3  C   UNL     1      -1.382 -15.032   1.468  0.00  0.00    +0.000 C 
ATOM      4  C   UNL     1      -1.054 -15.491   2.892  0.00  0.00    +0.000 C 
ATOM      5  C   UNL     1      -3.344 -16.524   3.004  0.00  0.00    +0.000 C 
ATOM      6  C   UNL     1      -2.186 -16.177   3.594  0.00  0.00    +0.000 C 
ATOM      7  H   UNL     1      -4.105 -17.129   1.115  0.00  0.00    +0.000 HD
ATOM      8  H   UNL     1      -1.859 -14.045   1.519  0.00  0.00    +0.000 HD
ATOM      9  H   UNL     1      -0.445 -14.880   0.917  0.00  0.00    +0.000 HD
ATOM     10  H   UNL     1      -0.734 -14.623   3.480  0.00  0.00    +0.000 HD
ATOM     11  H   UNL     1      -0.201 -16.181   2.865  0.00  0.00    +0.000 HD
ATOM     12  H   UNL     1      -2.024 -16.414   4.643  0.00  0.00    +0.000 HD
ENDROOT
BRANCH   1  13
ATOM     13  C   UNL     1      -1.582 -17.373   0.509  0.00  0.00    +0.000 C 
ATOM     14  H   UNL     1      -2.281 -18.209   0.623  0.00  0.00    +0.000 HD
ATOM     15  H   UNL     1      -1.119 -17.465  -0.478  0.00  0.00    +0.000 HD
ATOM     16  H   UNL     1      -0.787 -17.505   1.252  0.00  0.00    +0.000 HD
ENDBRANCH   1  13
BRANCH   1  17
ATOM     17  C   UNL     1      -2.591 -15.454  -0.699  0.00  0.00    +0.000 C 
ATOM     18  H   UNL     1      -2.701 -14.364  -0.669  0.00  0.00    +0.000 HD
ATOM     19  H   UNL     1      -1.775 -15.687  -1.392  0.00  0.00    +0.000 HD
ATOM     20  H   UNL     1      -3.520 -15.855  -1.120  0.00  0.00    +0.000 HD
ENDBRANCH   1  17
BRANCH   2  21
ATOM     21  C   UNL     1      -4.583 -15.079   1.428  0.00  0.00    +0.000 C 
ATOM     22  C   UNL     1      -5.910 -15.232   1.340  0.00  0.00    +0.000 C 
ATOM     23  H   UNL     1      -4.153 -14.080   1.431  0.00  0.00    +0.000 HD
ATOM     24  H   UNL     1      -6.370 -16.214   1.336  0.00  0.00    +0.000 HD
BRANCH  22  26
ATOM     25  O   UNL     1      -7.041 -13.503   0.160  0.00  0.00    +0.000 OA
ATOM     26  C   UNL     1      -6.811 -14.048   1.237  0.00  0.00    +0.000 C 
BRANCH  26  27
ATOM     27  C   UNL     1      -7.413 -13.570   2.547  0.00  0.00    +0.000 C 
ATOM     28  H   UNL     1      -8.088 -12.735   2.325  0.00  0.00    +0.000 HD
ATOM     29  H   UNL     1      -8.004 -14.392   2.971  0.00  0.00    +0.000 HD
BRANCH  27  30
ATOM     30  C   UNL     1      -6.348 -13.126   3.549  0.00  0.00    +0.000 C 
ATOM     31  H   UNL     1      -6.001 -12.115   3.298  0.00  0.00    +0.000 HD
ATOM     32  H   UNL     1      -5.474 -13.783   3.475  0.00  0.00    +0.000 HD
BRANCH  30  33
ATOM     33  C   UNL     1      -6.867 -13.178   4.955  0.00  0.00    +0.000 C 
ATOM     34  C   UNL     1      -8.166 -13.145   5.276  0.00  0.00    +0.000 C 
ATOM     35  H   UNL     1      -6.135 -13.229   5.756  0.00  0.00    +0.000 HD
ATOM     36  H   UNL     1      -8.475 -13.177   6.314  0.00  0.00    +0.000 HD
ATOM     37  H   UNL     1      -8.937 -13.086   4.516  0.00  0.00    +0.000 HD
ENDBRANCH  30  33
ENDBRANCH  27  30
ENDBRANCH  26  27
ENDBRANCH  22  26
ENDBRANCH   2  21
BRANCH   5  38
ATOM     38  C   UNL     1      -4.426 -17.235   3.770  0.00  0.00    +0.000 C 
ATOM     39  H   UNL     1      -4.180 -18.294   3.895  0.00  0.00    +0.000 HD
ATOM     40  H   UNL     1      -5.395 -17.178   3.262  0.00  0.00    +0.000 HD
ATOM     41  H   UNL     1      -4.545 -16.786   4.761  0.00  0.00    +0.000 HD
ENDBRANCH   5  38
TORSDOF 8
ENDMDL
MODEL 6
REMARK VINA RESULT:    -5.118     29.870     31.329
REMARK INTER + INTRA:          -8.229
REMARK INTER:                  -7.666
REMARK INTRA:                  -0.563
REMARK UNBOUND:                -1.166
REMARK  Name = 5365976
REMARK  8 active torsions:
REMARK  status: ('A' for Active; 'I' for Inactive)
REMARK    1  A    between atoms: C_2  and  C_7
REMARK    2  A    between atoms: C_2  and  C_8
REMARK    3  A    between atoms: C_3  and  C_10
REMARK    4  A    between atoms: C_6  and  C_11
REMARK    5  A    between atoms: C_12  and  C_13
REMARK    6  A    between atoms: C_13  and  C_14
REMARK    7  A    between atoms: C_14  and  C_15
REMARK    8  A    between atoms: C_15  and  C_16
REMARK                            x       y       z     vdW  Elec       q    Type
REMARK                         _______ _______ _______ _____ _____    ______ ____
ROOT
ATOM      1  C   UNL     1       1.224   4.071 -22.351  0.00  0.00    +0.000 C 
ATOM      2  C   UNL     1       1.697   4.941 -21.132  0.00  0.00    +0.000 C 
ATOM      3  C   UNL     1       0.931   2.631 -21.870  0.00  0.00    +0.000 C 
ATOM      4  C   UNL     1      -0.101   2.573 -20.740  0.00  0.00    +0.000 C 
ATOM      5  C   UNL     1       0.790   4.778 -19.919  0.00  0.00    +0.000 C 
ATOM      6  C   UNL     1      -0.005   3.705 -19.761  0.00  0.00    +0.000 C 
ATOM      7  H   UNL     1       1.623   5.990 -21.453  0.00  0.00    +0.000 HD
ATOM      8  H   UNL     1       1.859   2.161 -21.521  0.00  0.00    +0.000 HD
ATOM      9  H   UNL     1       0.580   2.011 -22.705  0.00  0.00    +0.000 HD
ATOM     10  H   UNL     1       0.008   1.622 -20.207  0.00  0.00    +0.000 HD
ATOM     11  H   UNL     1      -1.111   2.577 -21.167  0.00  0.00    +0.000 HD
ATOM     12  H   UNL     1      -0.647   3.635 -18.886  0.00  0.00    +0.000 HD
ENDROOT
BRANCH   1  13
ATOM     13  C   UNL     1      -0.050   4.694 -22.975  0.00  0.00    +0.000 C 
ATOM     14  H   UNL     1      -0.796   4.914 -22.202  0.00  0.00    +0.000 HD
ATOM     15  H   UNL     1       0.152   5.627 -23.509  0.00  0.00    +0.000 HD
ATOM     16  H   UNL     1      -0.511   4.004 -23.691  0.00  0.00    +0.000 HD
ENDBRANCH   1  13
BRANCH   1  17
ATOM     17  C   UNL     1       2.288   4.022 -23.470  0.00  0.00    +0.000 C 
ATOM     18  H   UNL     1       2.725   5.013 -23.638  0.00  0.00    +0.000 HD
ATOM     19  H   UNL     1       3.103   3.338 -23.209  0.00  0.00    +0.000 HD
ATOM     20  H   UNL     1       1.864   3.696 -24.426  0.00  0.00    +0.000 HD
ENDBRANCH   1  17
BRANCH   2  21
ATOM     21  C   UNL     1       3.122   4.666 -20.727  0.00  0.00    +0.000 C 
ATOM     22  C   UNL     1       4.027   5.630 -20.520  0.00  0.00    +0.000 C 
ATOM     23  H   UNL     1       3.404   3.623 -20.598  0.00  0.00    +0.000 HD
ATOM     24  H   UNL     1       3.778   6.679 -20.639  0.00  0.00    +0.000 HD
BRANCH  22  26
ATOM     25  O   UNL     1       6.384   5.959 -20.508  0.00  0.00    +0.000 OA
ATOM     26  C   UNL     1       5.425   5.295 -20.121  0.00  0.00    +0.000 C 
BRANCH  26  27
ATOM     27  C   UNL     1       5.572   4.084 -19.215  0.00  0.00    +0.000 C 
ATOM     28  H   UNL     1       4.590   3.866 -18.779  0.00  0.00    +0.000 HD
ATOM     29  H   UNL     1       5.877   3.231 -19.834  0.00  0.00    +0.000 HD
BRANCH  27  30
ATOM     30  C   UNL     1       6.595   4.311 -18.103  0.00  0.00    +0.000 C 
ATOM     31  H   UNL     1       6.217   3.897 -17.159  0.00  0.00    +0.000 HD
ATOM     32  H   UNL     1       6.730   5.387 -17.938  0.00  0.00    +0.000 HD
BRANCH  30  33
ATOM     33  C   UNL     1       7.925   3.712 -18.453  0.00  0.00    +0.000 C 
ATOM     34  C   UNL     1       9.065   4.409 -18.522  0.00  0.00    +0.000 C 
ATOM     35  H   UNL     1       7.950   2.649 -18.678  0.00  0.00    +0.000 HD
ATOM     36  H   UNL     1       9.993   3.916 -18.789  0.00  0.00    +0.000 HD
ATOM     37  H   UNL     1       9.093   5.473 -18.315  0.00  0.00    +0.000 HD
ENDBRANCH  30  33
ENDBRANCH  27  30
ENDBRANCH  26  27
ENDBRANCH  22  26
ENDBRANCH   2  21
BRANCH   5  38
ATOM     38  C   UNL     1       0.812   5.887 -18.904  0.00  0.00    +0.000 C 
ATOM     39  H   UNL     1       1.833   6.078 -18.560  0.00  0.00    +0.000 HD
ATOM     40  H   UNL     1       0.206   5.652 -18.023  0.00  0.00    +0.000 HD
ATOM     41  H   UNL     1       0.415   6.809 -19.342  0.00  0.00    +0.000 HD
ENDBRANCH   5  38
TORSDOF 8
ENDMDL
MODEL 7
REMARK VINA RESULT:    -5.090     29.712     31.493
REMARK INTER + INTRA:          -8.191
REMARK INTER:                  -7.798
REMARK INTRA:                  -0.393
REMARK UNBOUND:                -1.166
REMARK  Name = 5365976
REMARK  8 active torsions:
REMARK  status: ('A' for Active; 'I' for Inactive)
REMARK    1  A    between atoms: C_2  and  C_7
REMARK    2  A    between atoms: C_2  and  C_8
REMARK    3  A    between atoms: C_3  and  C_10
REMARK    4  A    between atoms: C_6  and  C_11
REMARK    5  A    between atoms: C_12  and  C_13
REMARK    6  A    between atoms: C_13  and  C_14
REMARK    7  A    between atoms: C_14  and  C_15
REMARK    8  A    between atoms: C_15  and  C_16
REMARK                            x       y       z     vdW  Elec       q    Type
REMARK                         _______ _______ _______ _____ _____    ______ ____
ROOT
ATOM      1  C   UNL     1       2.055   3.474 -20.892  0.00  0.00    +0.000 C 
ATOM      2  C   UNL     1       3.219   4.478 -21.212  0.00  0.00    +0.000 C 
ATOM      3  C   UNL     1       0.996   4.181 -20.013  0.00  0.00    +0.000 C 
ATOM      4  C   UNL     1       0.441   5.457 -20.652  0.00  0.00    +0.000 C 
ATOM      5  C   UNL     1       2.703   5.830 -21.688  0.00  0.00    +0.000 C 
ATOM      6  C   UNL     1       1.454   6.251 -21.422  0.00  0.00    +0.000 C 
ATOM      7  H   UNL     1       3.788   4.037 -22.044  0.00  0.00    +0.000 HD
ATOM      8  H   UNL     1       1.434   4.438 -19.041  0.00  0.00    +0.000 HD
ATOM      9  H   UNL     1       0.163   3.501 -19.794  0.00  0.00    +0.000 HD
ATOM     10  H   UNL     1       0.006   6.087 -19.868  0.00  0.00    +0.000 HD
ATOM     11  H   UNL     1      -0.378   5.198 -21.334  0.00  0.00    +0.000 HD
ATOM     12  H   UNL     1       1.121   7.218 -21.792  0.00  0.00    +0.000 HD
ENDROOT
BRANCH   1  13
ATOM     13  C   UNL     1       1.410   2.982 -22.211  0.00  0.00    +0.000 C 
ATOM     14  H   UNL     1       1.404   3.779 -22.964  0.00  0.00    +0.000 HD
ATOM     15  H   UNL     1       1.933   2.125 -22.646  0.00  0.00    +0.000 HD
ATOM     16  H   UNL     1       0.371   2.677 -22.047  0.00  0.00    +0.000 HD
ENDBRANCH   1  13
BRANCH   1  17
ATOM     17  C   UNL     1       2.566   2.218 -20.152  0.00  0.00    +0.000 C 
ATOM     18  H   UNL     1       3.571   1.945 -20.492  0.00  0.00    +0.000 HD
ATOM     19  H   UNL     1       2.615   2.390 -19.071  0.00  0.00    +0.000 HD
ATOM     20  H   UNL     1       1.924   1.348 -20.329  0.00  0.00    +0.000 HD
ENDBRANCH   1  17
BRANCH   2  21
ATOM     21  C   UNL     1       4.158   4.685 -20.051  0.00  0.00    +0.000 C 
ATOM     22  C   UNL     1       4.184   5.803 -19.317  0.00  0.00    +0.000 C 
ATOM     23  H   UNL     1       4.835   3.867 -19.814  0.00  0.00    +0.000 HD
ATOM     24  H   UNL     1       3.521   6.636 -19.526  0.00  0.00    +0.000 HD
BRANCH  22  26
ATOM     25  O   UNL     1       5.069   6.896 -17.397  0.00  0.00    +0.000 OA
ATOM     26  C   UNL     1       5.136   5.950 -18.179  0.00  0.00    +0.000 C 
BRANCH  26  27
ATOM     27  C   UNL     1       6.186   4.858 -18.062  0.00  0.00    +0.000 C 
ATOM     28  H   UNL     1       6.393   4.700 -16.996  0.00  0.00    +0.000 HD
ATOM     29  H   UNL     1       5.764   3.933 -18.475  0.00  0.00    +0.000 HD
BRANCH  27  30
ATOM     30  C   UNL     1       7.479   5.212 -18.795  0.00  0.00    +0.000 C 
ATOM     31  H   UNL     1       7.794   6.228 -18.524  0.00  0.00    +0.000 HD
ATOM     32  H   UNL     1       7.300   5.220 -19.877  0.00  0.00    +0.000 HD
BRANCH  30  33
ATOM     33  C   UNL     1       8.564   4.220 -18.498  0.00  0.00    +0.000 C 
ATOM     34  C   UNL     1       9.864   4.531 -18.432  0.00  0.00    +0.000 C 
ATOM     35  H   UNL     1       8.268   3.187 -18.343  0.00  0.00    +0.000 HD
ATOM     36  H   UNL     1      10.601   3.765 -18.221  0.00  0.00    +0.000 HD
ATOM     37  H   UNL     1      10.214   5.546 -18.587  0.00  0.00    +0.000 HD
ENDBRANCH  30  33
ENDBRANCH  27  30
ENDBRANCH  26  27
ENDBRANCH  22  26
ENDBRANCH   2  21
BRANCH   5  38
ATOM     38  C   UNL     1       3.655   6.673 -22.490  0.00  0.00    +0.000 C 
ATOM     39  H   UNL     1       3.469   6.556 -23.562  0.00  0.00    +0.000 HD
ATOM     40  H   UNL     1       4.700   6.404 -22.305  0.00  0.00    +0.000 HD
ATOM     41  H   UNL     1       3.535   7.730 -22.231  0.00  0.00    +0.000 HD
ENDBRANCH   5  38
TORSDOF 8
ENDMDL
MODEL 8
REMARK VINA RESULT:    -4.916     14.359     16.016
REMARK INTER + INTRA:          -7.950
REMARK INTER:                  -7.605
REMARK INTRA:                  -0.345
REMARK UNBOUND:                -1.166
REMARK  Name = 5365976
REMARK  8 active torsions:
REMARK  status: ('A' for Active; 'I' for Inactive)
REMARK    1  A    between atoms: C_2  and  C_7
REMARK    2  A    between atoms: C_2  and  C_8
REMARK    3  A    between atoms: C_3  and  C_10
REMARK    4  A    between atoms: C_6  and  C_11
REMARK    5  A    between atoms: C_12  and  C_13
REMARK    6  A    between atoms: C_13  and  C_14
REMARK    7  A    between atoms: C_14  and  C_15
REMARK    8  A    between atoms: C_15  and  C_16
REMARK                            x       y       z     vdW  Elec       q    Type
REMARK                         _______ _______ _______ _____ _____    ______ ____
ROOT
ATOM      1  C   UNL     1     -15.302  -5.375  -4.742  0.00  0.00    +0.000 C 
ATOM      2  C   UNL     1     -14.630  -5.115  -6.138  0.00  0.00    +0.000 C 
ATOM      3  C   UNL     1     -14.448  -6.388  -3.943  0.00  0.00    +0.000 C 
ATOM      4  C   UNL     1     -12.995  -5.939  -3.763  0.00  0.00    +0.000 C 
ATOM      5  C   UNL     1     -13.138  -4.834  -6.018  0.00  0.00    +0.000 C 
ATOM      6  C   UNL     1     -12.423  -5.217  -4.945  0.00  0.00    +0.000 C 
ATOM      7  H   UNL     1     -15.099  -4.207  -6.543  0.00  0.00    +0.000 HD
ATOM      8  H   UNL     1     -14.454  -7.360  -4.453  0.00  0.00    +0.000 HD
ATOM      9  H   UNL     1     -14.891  -6.569  -2.955  0.00  0.00    +0.000 HD
ATOM     10  H   UNL     1     -12.377  -6.815  -3.538  0.00  0.00    +0.000 HD
ATOM     11  H   UNL     1     -12.924  -5.276  -2.891  0.00  0.00    +0.000 HD
ATOM     12  H   UNL     1     -11.362  -4.985  -4.895  0.00  0.00    +0.000 HD
ENDROOT
BRANCH   1  13
ATOM     13  C   UNL     1     -15.416  -4.043  -3.961  0.00  0.00    +0.000 C 
ATOM     14  H   UNL     1     -15.310  -3.184  -4.634  0.00  0.00    +0.000 HD
ATOM     15  H   UNL     1     -16.374  -3.935  -3.442  0.00  0.00    +0.000 HD
ATOM     16  H   UNL     1     -14.628  -3.966  -3.203  0.00  0.00    +0.000 HD
ENDBRANCH   1  13
BRANCH   1  17
ATOM     17  C   UNL     1     -16.736  -5.929  -4.887  0.00  0.00    +0.000 C 
ATOM     18  H   UNL     1     -16.866  -6.840  -4.291  0.00  0.00    +0.000 HD
ATOM     19  H   UNL     1     -17.478  -5.199  -4.545  0.00  0.00    +0.000 HD
ATOM     20  H   UNL     1     -16.972  -6.193  -5.924  0.00  0.00    +0.000 HD
ENDBRANCH   1  17
BRANCH   2  21
ATOM     21  C   UNL     1     -14.847  -6.240  -7.117  0.00  0.00    +0.000 C 
ATOM     22  C   UNL     1     -14.044  -7.307  -7.202  0.00  0.00    +0.000 C 
ATOM     23  H   UNL     1     -15.712  -6.161  -7.773  0.00  0.00    +0.000 HD
ATOM     24  H   UNL     1     -13.176  -7.417  -6.561  0.00  0.00    +0.000 HD
BRANCH  22  26
ATOM     25  O   UNL     1     -14.400  -8.157  -9.395  0.00  0.00    +0.000 OA
ATOM     26  C   UNL     1     -14.311  -8.390  -8.192  0.00  0.00    +0.000 C 
BRANCH  26  27
ATOM     27  C   UNL     1     -14.468  -9.784  -7.609  0.00  0.00    +0.000 C 
ATOM     28  H   UNL     1     -13.478 -10.255  -7.588  0.00  0.00    +0.000 HD
ATOM     29  H   UNL     1     -14.828  -9.684  -6.577  0.00  0.00    +0.000 HD
BRANCH  27  30
ATOM     30  C   UNL     1     -15.437 -10.647  -8.415  0.00  0.00    +0.000 C 
ATOM     31  H   UNL     1     -15.385 -10.372  -9.477  0.00  0.00    +0.000 HD
ATOM     32  H   UNL     1     -16.466 -10.448  -8.092  0.00  0.00    +0.000 HD
BRANCH  30  33
ATOM     33  C   UNL     1     -15.153 -12.108  -8.228  0.00  0.00    +0.000 C 
ATOM     34  C   UNL     1     -16.042 -13.079  -8.466  0.00  0.00    +0.000 C 
ATOM     35  H   UNL     1     -14.167 -12.382  -7.863  0.00  0.00    +0.000 HD
ATOM     36  H   UNL     1     -15.776 -14.117  -8.302  0.00  0.00    +0.000 HD
ATOM     37  H   UNL     1     -17.042 -12.859  -8.824  0.00  0.00    +0.000 HD
ENDBRANCH  30  33
ENDBRANCH  27  30
ENDBRANCH  26  27
ENDBRANCH  22  26
ENDBRANCH   2  21
BRANCH   5  38
ATOM     38  C   UNL     1     -12.497  -4.090  -7.156  0.00  0.00    +0.000 C 
ATOM     39  H   UNL     1     -13.159  -4.067  -8.027  0.00  0.00    +0.000 HD
ATOM     40  H   UNL     1     -11.554  -4.549  -7.470  0.00  0.00    +0.000 HD
ATOM     41  H   UNL     1     -12.279  -3.059  -6.859  0.00  0.00    +0.000 HD
ENDBRANCH   5  38
TORSDOF 8
ENDMDL
MODEL 9
REMARK VINA RESULT:    -4.893     14.334     17.217
REMARK INTER + INTRA:          -7.918
REMARK INTER:                  -7.350
REMARK INTRA:                  -0.569
REMARK UNBOUND:                -1.166
REMARK  Name = 5365976
REMARK  8 active torsions:
REMARK  status: ('A' for Active; 'I' for Inactive)
REMARK    1  A    between atoms: C_2  and  C_7
REMARK    2  A    between atoms: C_2  and  C_8
REMARK    3  A    between atoms: C_3  and  C_10
REMARK    4  A    between atoms: C_6  and  C_11
REMARK    5  A    between atoms: C_12  and  C_13
REMARK    6  A    between atoms: C_13  and  C_14
REMARK    7  A    between atoms: C_14  and  C_15
REMARK    8  A    between atoms: C_15  and  C_16
REMARK                            x       y       z     vdW  Elec       q    Type
REMARK                         _______ _______ _______ _____ _____    ______ ____
ROOT
ATOM      1  C   UNL     1     -14.736  -6.408  -6.920  0.00  0.00    +0.000 C 
ATOM      2  C   UNL     1     -14.462  -6.214  -5.386  0.00  0.00    +0.000 C 
ATOM      3  C   UNL     1     -14.354  -5.113  -7.677  0.00  0.00    +0.000 C 
ATOM      4  C   UNL     1     -12.903  -4.686  -7.442  0.00  0.00    +0.000 C 
ATOM      5  C   UNL     1     -13.085  -5.623  -5.115  0.00  0.00    +0.000 C 
ATOM      6  C   UNL     1     -12.405  -4.937  -6.050  0.00  0.00    +0.000 C 
ATOM      7  H   UNL     1     -14.477  -7.219  -4.939  0.00  0.00    +0.000 HD
ATOM      8  H   UNL     1     -15.016  -4.295  -7.365  0.00  0.00    +0.000 HD
ATOM      9  H   UNL     1     -14.521  -5.235  -8.755  0.00  0.00    +0.000 HD
ATOM     10  H   UNL     1     -12.803  -3.620  -7.676  0.00  0.00    +0.000 HD
ATOM     11  H   UNL     1     -12.247  -5.221  -8.140  0.00  0.00    +0.000 HD
ATOM     12  H   UNL     1     -11.418  -4.543  -5.818  0.00  0.00    +0.000 HD
ENDROOT
BRANCH   1  13
ATOM     13  C   UNL     1     -13.904  -7.600  -7.453  0.00  0.00    +0.000 C 
ATOM     14  H   UNL     1     -13.981  -8.463  -6.781  0.00  0.00    +0.000 HD
ATOM     15  H   UNL     1     -14.223  -7.931  -8.446  0.00  0.00    +0.000 HD
ATOM     16  H   UNL     1     -12.843  -7.334  -7.527  0.00  0.00    +0.000 HD
ENDBRANCH   1  13
BRANCH   1  17
ATOM     17  C   UNL     1     -16.218  -6.738  -7.204  0.00  0.00    +0.000 C 
ATOM     18  H   UNL     1     -16.329  -7.233  -8.175  0.00  0.00    +0.000 HD
ATOM     19  H   UNL     1     -16.625  -7.410  -6.440  0.00  0.00    +0.000 HD
ATOM     20  H   UNL     1     -16.842  -5.838  -7.232  0.00  0.00    +0.000 HD
ENDBRANCH   1  17
BRANCH   2  21
ATOM     21  C   UNL     1     -15.508  -5.372  -4.701  0.00  0.00    +0.000 C 
ATOM     22  C   UNL     1     -16.206  -5.788  -3.638  0.00  0.00    +0.000 C 
ATOM     23  H   UNL     1     -15.682  -4.377  -5.107  0.00  0.00    +0.000 HD
ATOM     24  H   UNL     1     -16.055  -6.772  -3.208  0.00  0.00    +0.000 HD
BRANCH  22  26
ATOM     25  O   UNL     1     -17.170  -3.684  -3.085  0.00  0.00    +0.000 OA
ATOM     26  C   UNL     1     -17.229  -4.908  -3.002  0.00  0.00    +0.000 C 
BRANCH  26  27
ATOM     27  C   UNL     1     -18.334  -5.630  -2.250  0.00  0.00    +0.000 C 
ATOM     28  H   UNL     1     -17.987  -5.806  -1.225  0.00  0.00    +0.000 HD
ATOM     29  H   UNL     1     -19.210  -4.971  -2.214  0.00  0.00    +0.000 HD
BRANCH  27  30
ATOM     30  C   UNL     1     -18.711  -6.959  -2.905  0.00  0.00    +0.000 C 
ATOM     31  H   UNL     1     -18.278  -7.791  -2.334  0.00  0.00    +0.000 HD
ATOM     32  H   UNL     1     -18.278  -7.012  -3.911  0.00  0.00    +0.000 HD
BRANCH  30  33
ATOM     33  C   UNL     1     -20.200  -7.108  -3.019  0.00  0.00    +0.000 C 
ATOM     34  C   UNL     1     -20.871  -8.208  -2.656  0.00  0.00    +0.000 C 
ATOM     35  H   UNL     1     -20.755  -6.274  -3.436  0.00  0.00    +0.000 HD
ATOM     36  H   UNL     1     -21.948  -8.255  -2.772  0.00  0.00    +0.000 HD
ATOM     37  H   UNL     1     -20.364  -9.072  -2.241  0.00  0.00    +0.000 HD
ENDBRANCH  30  33
ENDBRANCH  27  30
ENDBRANCH  26  27
ENDBRANCH  22  26
ENDBRANCH   2  21
BRANCH   5  38
ATOM     38  C   UNL     1     -12.507  -5.856  -3.746  0.00  0.00    +0.000 C 
ATOM     39  H   UNL     1     -11.617  -5.239  -3.590  0.00  0.00    +0.000 HD
ATOM     40  H   UNL     1     -12.215  -6.901  -3.594  0.00  0.00    +0.000 HD
ATOM     41  H   UNL     1     -13.244  -5.604  -2.976  0.00  0.00    +0.000 HD
ENDBRANCH   5  38
TORSDOF 8
ENDMDL
MODEL 10
REMARK VINA RESULT:    -4.752     16.546     19.269
REMARK INTER + INTRA:          -7.723
REMARK INTER:                  -6.557
REMARK INTRA:                  -1.166
REMARK UNBOUND:                -1.166
REMARK  Name = 5365976
REMARK  8 active torsions:
REMARK  status: ('A' for Active; 'I' for Inactive)
REMARK    1  A    between atoms: C_2  and  C_7
REMARK    2  A    between atoms: C_2  and  C_8
REMARK    3  A    between atoms: C_3  and  C_10
REMARK    4  A    between atoms: C_6  and  C_11
REMARK    5  A    between atoms: C_12  and  C_13
REMARK    6  A    between atoms: C_13  and  C_14
REMARK    7  A    between atoms: C_14  and  C_15
REMARK    8  A    between atoms: C_15  and  C_16
REMARK                            x       y       z     vdW  Elec       q    Type
REMARK                         _______ _______ _______ _____ _____    ______ ____
ROOT
ATOM      1  C   UNL     1      -7.533  -9.691 -13.326  0.00  0.00    +0.000 C 
ATOM      2  C   UNL     1      -8.624  -8.647 -13.758  0.00  0.00    +0.000 C 
ATOM      3  C   UNL     1      -6.188  -8.962 -13.096  0.00  0.00    +0.000 C 
ATOM      4  C   UNL     1      -6.285  -7.832 -12.067  0.00  0.00    +0.000 C 
ATOM      5  C   UNL     1      -8.636  -7.418 -12.858  0.00  0.00    +0.000 C 
ATOM      6  C   UNL     1      -7.574  -7.068 -12.111  0.00  0.00    +0.000 C 
ATOM      7  H   UNL     1      -9.596  -9.146 -13.637  0.00  0.00    +0.000 HD
ATOM      8  H   UNL     1      -5.829  -8.542 -14.044  0.00  0.00    +0.000 HD
ATOM      9  H   UNL     1      -5.416  -9.673 -12.774  0.00  0.00    +0.000 HD
ATOM     10  H   UNL     1      -5.448  -7.141 -12.217  0.00  0.00    +0.000 HD
ATOM     11  H   UNL     1      -6.169  -8.247 -11.058  0.00  0.00    +0.000 HD
ATOM     12  H   UNL     1      -7.631  -6.190 -11.472  0.00  0.00    +0.000 HD
ENDROOT
BRANCH   1  13
ATOM     13  C   UNL     1      -7.980 -10.406 -12.026  0.00  0.00    +0.000 C 
ATOM     14  H   UNL     1      -7.724 -11.471 -12.058  0.00  0.00    +0.000 HD
ATOM     15  H   UNL     1      -7.514  -9.985 -11.129  0.00  0.00    +0.000 HD
ATOM     16  H   UNL     1      -9.065 -10.331 -11.893  0.00  0.00    +0.000 HD
ENDBRANCH   1  13
BRANCH   1  17
ATOM     17  C   UNL     1      -7.334 -10.791 -14.392  0.00  0.00    +0.000 C 
ATOM     18  H   UNL     1      -8.000 -10.630 -15.248  0.00  0.00    +0.000 HD
ATOM     19  H   UNL     1      -6.305 -10.795 -14.767  0.00  0.00    +0.000 HD
ATOM     20  H   UNL     1      -7.558 -11.789 -13.999  0.00  0.00    +0.000 HD
ENDBRANCH   1  17
BRANCH   2  21
ATOM     21  C   UNL     1      -8.487  -8.210 -15.194  0.00  0.00    +0.000 C 
ATOM     22  C   UNL     1      -9.412  -8.457 -16.129  0.00  0.00    +0.000 C 
ATOM     23  H   UNL     1      -7.584  -7.662 -15.457  0.00  0.00    +0.000 HD
ATOM     24  H   UNL     1     -10.323  -8.998 -15.898  0.00  0.00    +0.000 HD
BRANCH  22  26
ATOM     25  O   UNL     1     -10.162  -7.611 -18.222  0.00  0.00    +0.000 OA
ATOM     26  C   UNL     1      -9.220  -7.999 -17.535  0.00  0.00    +0.000 C 
BRANCH  26  27
ATOM     27  C   UNL     1      -7.792  -8.050 -18.049  0.00  0.00    +0.000 C 
ATOM     28  H   UNL     1      -7.698  -7.321 -18.863  0.00  0.00    +0.000 HD
ATOM     29  H   UNL     1      -7.124  -7.748 -17.232  0.00  0.00    +0.000 HD
BRANCH  27  30
ATOM     30  C   UNL     1      -7.404  -9.441 -18.551  0.00  0.00    +0.000 C 
ATOM     31  H   UNL     1      -7.217  -9.407 -19.632  0.00  0.00    +0.000 HD
ATOM     32  H   UNL     1      -8.239 -10.135 -18.400  0.00  0.00    +0.000 HD
BRANCH  30  33
ATOM     33  C   UNL     1      -6.206  -9.970 -17.819  0.00  0.00    +0.000 C 
ATOM     34  C   UNL     1      -5.353  -9.205 -17.127  0.00  0.00    +0.000 C 
ATOM     35  H   UNL     1      -6.020 -11.039 -17.873  0.00  0.00    +0.000 HD
ATOM     36  H   UNL     1      -4.501  -9.650 -16.627  0.00  0.00    +0.000 HD
ATOM     37  H   UNL     1      -5.488  -8.132 -17.049  0.00  0.00    +0.000 HD
ENDBRANCH  30  33
ENDBRANCH  27  30
ENDBRANCH  26  27
ENDBRANCH  22  26
ENDBRANCH   2  21
BRANCH   5  38
ATOM     38  C   UNL     1      -9.907  -6.614 -12.829  0.00  0.00    +0.000 C 
ATOM     39  H   UNL     1      -9.796  -5.692 -13.408  0.00  0.00    +0.000 HD
ATOM     40  H   UNL     1     -10.193  -6.331 -11.811  0.00  0.00    +0.000 HD
ATOM     41  H   UNL     1     -10.732  -7.195 -13.255  0.00  0.00    +0.000 HD
ENDBRANCH   5  38
TORSDOF 8
ENDMDL
