MODEL 1
REMARK VINA RESULT:    -4.763      0.000      0.000
REMARK INTER + INTRA:          -5.198
REMARK INTER:                  -5.178
REMARK INTRA:                  -0.020
REMARK UNBOUND:                -0.017
REMARK  Name = 7519
REMARK  2 active torsions:
REMARK  status: ('A' for Active; 'I' for Inactive)
REMARK    1  A    between atoms: O_1  and  C_2
REMARK    2  A    between atoms: O_1  and  C_8
REMARK                            x       y       z     vdW  Elec       q    Type
REMARK                         _______ _______ _______ _____ _____    ______ ____
ROOT
ATOM      1  C   UNL     1       1.949  -5.877  -7.562  0.00  0.00    +0.000 A 
ATOM      2  C   UNL     1       2.386  -5.785  -6.240  0.00  0.00    +0.000 A 
ATOM      3  C   UNL     1       0.593  -5.740  -7.859  0.00  0.00    +0.000 A 
ATOM      4  C   UNL     1       1.467  -5.556  -5.216  0.00  0.00    +0.000 A 
ATOM      5  C   UNL     1      -0.327  -5.511  -6.835  0.00  0.00    +0.000 A 
ATOM      6  C   UNL     1       0.110  -5.419  -5.514  0.00  0.00    +0.000 A 
ATOM      7  H   UNL     1       3.424  -5.882  -5.939  0.00  0.00    +0.000 HD
ATOM      8  H   UNL     1       0.246  -5.811  -8.887  0.00  0.00    +0.000 HD
ATOM      9  H   UNL     1       1.805  -5.485  -4.187  0.00  0.00    +0.000 HD
ATOM     10  H   UNL     1      -1.382  -5.405  -7.066  0.00  0.00    +0.000 HD
ATOM     11  H   UNL     1      -0.604  -5.241  -4.716  0.00  0.00    +0.000 HD
ENDROOT
BRANCH   1  12
ATOM     12  O   UNL     1       2.845  -6.101  -8.561  0.00  0.00    +0.000 OA
BRANCH  12  13
ATOM     13  C   UNL     1       3.550  -7.341  -8.537  0.00  0.00    +0.000 C 
ATOM     14  H   UNL     1       3.159  -8.040  -9.284  0.00  0.00    +0.000 HD
ATOM     15  H   UNL     1       3.566  -7.774  -7.531  0.00  0.00    +0.000 HD
ATOM     16  H   UNL     1       4.588  -7.128  -8.811  0.00  0.00    +0.000 HD
ENDBRANCH  12  13
ENDBRANCH   1  12
TORSDOF 2
ENDMDL
MODEL 2
REMARK VINA RESULT:    -4.027     15.451     16.638
REMARK INTER + INTRA:          -4.398
REMARK INTER:                  -4.367
REMARK INTRA:                  -0.030
REMARK UNBOUND:                -0.017
REMARK  Name = 7519
REMARK  2 active torsions:
REMARK  status: ('A' for Active; 'I' for Inactive)
REMARK    1  A    between atoms: O_1  and  C_2
REMARK    2  A    between atoms: O_1  and  C_8
REMARK                            x       y       z     vdW  Elec       q    Type
REMARK                         _______ _______ _______ _____ _____    ______ ____
ROOT
ATOM      1  C   UNL     1      17.930  -4.394  -2.607  0.00  0.00    +0.000 A 
ATOM      2  C   UNL     1      17.769  -5.436  -3.520  0.00  0.00    +0.000 A 
ATOM      3  C   UNL     1      16.947  -4.148  -1.649  0.00  0.00    +0.000 A 
ATOM      4  C   UNL     1      16.624  -6.232  -3.476  0.00  0.00    +0.000 A 
ATOM      5  C   UNL     1      15.802  -4.944  -1.603  0.00  0.00    +0.000 A 
ATOM      6  C   UNL     1      15.640  -5.985  -2.517  0.00  0.00    +0.000 A 
ATOM      7  H   UNL     1      18.493  -5.682  -4.290  0.00  0.00    +0.000 HD
ATOM      8  H   UNL     1      17.067  -3.338  -0.934  0.00  0.00    +0.000 HD
ATOM      9  H   UNL     1      16.497  -7.043  -4.186  0.00  0.00    +0.000 HD
ATOM     10  H   UNL     1      15.036  -4.753  -0.858  0.00  0.00    +0.000 HD
ATOM     11  H   UNL     1      14.750  -6.605  -2.483  0.00  0.00    +0.000 HD
ENDROOT
BRANCH   1  12
ATOM     12  O   UNL     1      19.047  -3.618  -2.650  0.00  0.00    +0.000 OA
BRANCH  12  13
ATOM     13  C   UNL     1      19.960  -3.852  -3.721  0.00  0.00    +0.000 C 
ATOM     14  H   UNL     1      20.686  -3.037  -3.817  0.00  0.00    +0.000 HD
ATOM     15  H   UNL     1      19.435  -4.053  -4.661  0.00  0.00    +0.000 HD
ATOM     16  H   UNL     1      20.526  -4.756  -3.471  0.00  0.00    +0.000 HD
ENDBRANCH  12  13
ENDBRANCH   1  12
TORSDOF 2
ENDMDL
MODEL 3
REMARK VINA RESULT:    -3.989     15.497     16.987
REMARK INTER + INTRA:          -4.356
REMARK INTER:                  -4.328
REMARK INTRA:                  -0.028
REMARK UNBOUND:                -0.017
REMARK  Name = 7519
REMARK  2 active torsions:
REMARK  status: ('A' for Active; 'I' for Inactive)
REMARK    1  A    between atoms: O_1  and  C_2
REMARK    2  A    between atoms: O_1  and  C_8
REMARK                            x       y       z     vdW  Elec       q    Type
REMARK                         _______ _______ _______ _____ _____    ______ ____
ROOT
ATOM      1  C   UNL     1      17.493  -4.771  -2.719  0.00  0.00    +0.000 A 
ATOM      2  C   UNL     1      18.833  -4.427  -2.897  0.00  0.00    +0.000 A 
ATOM      3  C   UNL     1      16.931  -5.798  -3.477  0.00  0.00    +0.000 A 
ATOM      4  C   UNL     1      19.611  -5.110  -3.832  0.00  0.00    +0.000 A 
ATOM      5  C   UNL     1      17.708  -6.481  -4.412  0.00  0.00    +0.000 A 
ATOM      6  C   UNL     1      19.048  -6.137  -4.590  0.00  0.00    +0.000 A 
ATOM      7  H   UNL     1      19.333  -3.639  -2.342  0.00  0.00    +0.000 HD
ATOM      8  H   UNL     1      15.887  -6.071  -3.343  0.00  0.00    +0.000 HD
ATOM      9  H   UNL     1      20.654  -4.843  -3.971  0.00  0.00    +0.000 HD
ATOM     10  H   UNL     1      17.271  -7.281  -5.002  0.00  0.00    +0.000 HD
ATOM     11  H   UNL     1      19.654  -6.668  -5.318  0.00  0.00    +0.000 HD
ENDROOT
BRANCH   1  12
ATOM     12  O   UNL     1      16.735  -4.104  -1.806  0.00  0.00    +0.000 OA
BRANCH  12  13
ATOM     13  C   UNL     1      15.656  -4.823  -1.209  0.00  0.00    +0.000 C 
ATOM     14  H   UNL     1      15.691  -4.764  -0.116  0.00  0.00    +0.000 HD
ATOM     15  H   UNL     1      15.614  -5.856  -1.569  0.00  0.00    +0.000 HD
ATOM     16  H   UNL     1      14.729  -4.335  -1.526  0.00  0.00    +0.000 HD
ENDBRANCH  12  13
ENDBRANCH   1  12
TORSDOF 2
ENDMDL
MODEL 4
REMARK VINA RESULT:    -3.972     15.699     16.808
REMARK INTER + INTRA:          -4.338
REMARK INTER:                  -4.308
REMARK INTRA:                  -0.030
REMARK UNBOUND:                -0.017
REMARK  Name = 7519
REMARK  2 active torsions:
REMARK  status: ('A' for Active; 'I' for Inactive)
REMARK    1  A    between atoms: O_1  and  C_2
REMARK    2  A    between atoms: O_1  and  C_8
REMARK                            x       y       z     vdW  Elec       q    Type
REMARK                         _______ _______ _______ _____ _____    ______ ____
ROOT
ATOM      1  C   UNL     1      -7.459 -14.543   3.559  0.00  0.00    +0.000 A 
ATOM      2  C   UNL     1      -7.466 -13.246   4.072  0.00  0.00    +0.000 A 
ATOM      3  C   UNL     1      -7.794 -15.619   4.381  0.00  0.00    +0.000 A 
ATOM      4  C   UNL     1      -7.808 -13.025   5.406  0.00  0.00    +0.000 A 
ATOM      5  C   UNL     1      -8.136 -15.399   5.715  0.00  0.00    +0.000 A 
ATOM      6  C   UNL     1      -8.143 -14.102   6.228  0.00  0.00    +0.000 A 
ATOM      7  H   UNL     1      -7.217 -12.365   3.490  0.00  0.00    +0.000 HD
ATOM      8  H   UNL     1      -7.791 -16.632   3.987  0.00  0.00    +0.000 HD
ATOM      9  H   UNL     1      -7.814 -12.016   5.806  0.00  0.00    +0.000 HD
ATOM     10  H   UNL     1      -8.397 -16.236   6.355  0.00  0.00    +0.000 HD
ATOM     11  H   UNL     1      -8.409 -13.929   7.266  0.00  0.00    +0.000 HD
ENDROOT
BRANCH   1  12
ATOM     12  O   UNL     1      -7.126 -14.758   2.257  0.00  0.00    +0.000 OA
BRANCH  12  13
ATOM     13  C   UNL     1      -7.149 -13.629   1.385  0.00  0.00    +0.000 C 
ATOM     14  H   UNL     1      -7.618 -13.872   0.426  0.00  0.00    +0.000 HD
ATOM     15  H   UNL     1      -6.151 -13.196   1.262  0.00  0.00    +0.000 HD
ATOM     16  H   UNL     1      -7.773 -12.866   1.861  0.00  0.00    +0.000 HD
ENDBRANCH  12  13
ENDBRANCH   1  12
TORSDOF 2
ENDMDL
MODEL 5
REMARK VINA RESULT:    -3.967     17.150     17.971
REMARK INTER + INTRA:          -4.333
REMARK INTER:                  -4.307
REMARK INTRA:                  -0.026
REMARK UNBOUND:                -0.017
REMARK  Name = 7519
REMARK  2 active torsions:
REMARK  status: ('A' for Active; 'I' for Inactive)
REMARK    1  A    between atoms: O_1  and  C_2
REMARK    2  A    between atoms: O_1  and  C_8
REMARK                            x       y       z     vdW  Elec       q    Type
REMARK                         _______ _______ _______ _____ _____    ______ ____
ROOT
ATOM      1  C   UNL     1      14.257   5.331  -0.850  0.00  0.00    +0.000 A 
ATOM      2  C   UNL     1      13.109   4.970  -0.145  0.00  0.00    +0.000 A 
ATOM      3  C   UNL     1      15.371   4.491  -0.847  0.00  0.00    +0.000 A 
ATOM      4  C   UNL     1      13.075   3.769   0.564  0.00  0.00    +0.000 A 
ATOM      5  C   UNL     1      15.337   3.290  -0.138  0.00  0.00    +0.000 A 
ATOM      6  C   UNL     1      14.189   2.929   0.567  0.00  0.00    +0.000 A 
ATOM      7  H   UNL     1      12.209   5.575  -0.105  0.00  0.00    +0.000 HD
ATOM      8  H   UNL     1      16.268   4.767  -1.395  0.00  0.00    +0.000 HD
ATOM      9  H   UNL     1      12.182   3.487   1.114  0.00  0.00    +0.000 HD
ATOM     10  H   UNL     1      16.204   2.636  -0.135  0.00  0.00    +0.000 HD
ATOM     11  H   UNL     1      14.162   1.995   1.119  0.00  0.00    +0.000 HD
ENDROOT
BRANCH   1  12
ATOM     12  O   UNL     1      14.291   6.503  -1.542  0.00  0.00    +0.000 OA
BRANCH  12  13
ATOM     13  C   UNL     1      14.963   6.495  -2.800  0.00  0.00    +0.000 C 
ATOM     14  H   UNL     1      14.383   7.019  -3.569  0.00  0.00    +0.000 HD
ATOM     15  H   UNL     1      15.234   5.480  -3.105  0.00  0.00    +0.000 HD
ATOM     16  H   UNL     1      15.897   7.052  -2.671  0.00  0.00    +0.000 HD
ENDBRANCH  12  13
ENDBRANCH   1  12
TORSDOF 2
ENDMDL
MODEL 6
REMARK VINA RESULT:    -3.799     19.023     19.901
REMARK INTER + INTRA:          -4.149
REMARK INTER:                  -4.132
REMARK INTRA:                  -0.017
REMARK UNBOUND:                -0.017
REMARK  Name = 7519
REMARK  2 active torsions:
REMARK  status: ('A' for Active; 'I' for Inactive)
REMARK    1  A    between atoms: O_1  and  C_2
REMARK    2  A    between atoms: O_1  and  C_8
REMARK                            x       y       z     vdW  Elec       q    Type
REMARK                         _______ _______ _______ _____ _____    ______ ____
ROOT
ATOM      1  C   UNL     1      15.239   6.581  -2.327  0.00  0.00    +0.000 A 
ATOM      2  C   UNL     1      16.608   6.591  -2.058  0.00  0.00    +0.000 A 
ATOM      3  C   UNL     1      14.641   7.682  -2.941  0.00  0.00    +0.000 A 
ATOM      4  C   UNL     1      17.379   7.702  -2.404  0.00  0.00    +0.000 A 
ATOM      5  C   UNL     1      15.411   8.793  -3.287  0.00  0.00    +0.000 A 
ATOM      6  C   UNL     1      16.780   8.803  -3.018  0.00  0.00    +0.000 A 
ATOM      7  H   UNL     1      17.137   5.771  -1.584  0.00  0.00    +0.000 HD
ATOM      8  H   UNL     1      13.575   7.680  -3.153  0.00  0.00    +0.000 HD
ATOM      9  H   UNL     1      18.444   7.711  -2.195  0.00  0.00    +0.000 HD
ATOM     10  H   UNL     1      14.946   9.649  -3.765  0.00  0.00    +0.000 HD
ATOM     11  H   UNL     1      17.380   9.666  -3.286  0.00  0.00    +0.000 HD
ENDROOT
BRANCH   1  12
ATOM     12  O   UNL     1      14.488   5.498  -1.990  0.00  0.00    +0.000 OA
BRANCH  12  13
ATOM     13  C   UNL     1      13.865   5.513  -0.707  0.00  0.00    +0.000 C 
ATOM     14  H   UNL     1      14.423   6.134   0.004  0.00  0.00    +0.000 HD
ATOM     15  H   UNL     1      13.697   4.499  -0.329  0.00  0.00    +0.000 HD
ATOM     16  H   UNL     1      12.881   5.977  -0.831  0.00  0.00    +0.000 HD
ENDBRANCH  12  13
ENDBRANCH   1  12
TORSDOF 2
ENDMDL
MODEL 7
REMARK VINA RESULT:    -3.783     16.222     16.817
REMARK INTER + INTRA:          -4.132
REMARK INTER:                  -4.115
REMARK INTRA:                  -0.018
REMARK UNBOUND:                -0.017
REMARK  Name = 7519
REMARK  2 active torsions:
REMARK  status: ('A' for Active; 'I' for Inactive)
REMARK    1  A    between atoms: O_1  and  C_2
REMARK    2  A    between atoms: O_1  and  C_8
REMARK                            x       y       z     vdW  Elec       q    Type
REMARK                         _______ _______ _______ _____ _____    ______ ____
ROOT
ATOM      1  C   UNL     1       0.871   3.832 -19.941  0.00  0.00    +0.000 A 
ATOM      2  C   UNL     1       0.820   5.174 -19.563  0.00  0.00    +0.000 A 
ATOM      3  C   UNL     1       2.072   3.278 -20.383  0.00  0.00    +0.000 A 
ATOM      4  C   UNL     1       1.971   5.961 -19.627  0.00  0.00    +0.000 A 
ATOM      5  C   UNL     1       3.223   4.064 -20.447  0.00  0.00    +0.000 A 
ATOM      6  C   UNL     1       3.172   5.405 -20.069  0.00  0.00    +0.000 A 
ATOM      7  H   UNL     1      -0.079   5.668 -19.211  0.00  0.00    +0.000 HD
ATOM      8  H   UNL     1       2.118   2.232 -20.680  0.00  0.00    +0.000 HD
ATOM      9  H   UNL     1       1.933   7.005 -19.332  0.00  0.00    +0.000 HD
ATOM     10  H   UNL     1       4.158   3.632 -20.791  0.00  0.00    +0.000 HD
ATOM     11  H   UNL     1       4.067   6.018 -20.118  0.00  0.00    +0.000 HD
ENDROOT
BRANCH   1  12
ATOM     12  O   UNL     1      -0.251   3.065 -19.879  0.00  0.00    +0.000 OA
BRANCH  12  13
ATOM     13  C   UNL     1      -0.996   2.905 -21.086  0.00  0.00    +0.000 C 
ATOM     14  H   UNL     1      -1.956   2.410 -20.902  0.00  0.00    +0.000 HD
ATOM     15  H   UNL     1      -0.408   2.398 -21.857  0.00  0.00    +0.000 HD
ATOM     16  H   UNL     1      -1.221   3.908 -21.462  0.00  0.00    +0.000 HD
ENDBRANCH  12  13
ENDBRANCH   1  12
TORSDOF 2
ENDMDL
MODEL 8
REMARK VINA RESULT:    -3.777     16.003     16.701
REMARK INTER + INTRA:          -4.126
REMARK INTER:                  -4.096
REMARK INTRA:                  -0.030
REMARK UNBOUND:                -0.017
REMARK  Name = 7519
REMARK  2 active torsions:
REMARK  status: ('A' for Active; 'I' for Inactive)
REMARK    1  A    between atoms: O_1  and  C_2
REMARK    2  A    between atoms: O_1  and  C_8
REMARK                            x       y       z     vdW  Elec       q    Type
REMARK                         _______ _______ _______ _____ _____    ______ ____
ROOT
ATOM      1  C   UNL     1       1.416   3.876 -20.326  0.00  0.00    +0.000 A 
ATOM      2  C   UNL     1       1.976   2.599 -20.359  0.00  0.00    +0.000 A 
ATOM      3  C   UNL     1       2.240   4.997 -20.233  0.00  0.00    +0.000 A 
ATOM      4  C   UNL     1       3.361   2.443 -20.298  0.00  0.00    +0.000 A 
ATOM      5  C   UNL     1       3.625   4.842 -20.172  0.00  0.00    +0.000 A 
ATOM      6  C   UNL     1       4.185   3.565 -20.205  0.00  0.00    +0.000 A 
ATOM      7  H   UNL     1       1.394   1.686 -20.430  0.00  0.00    +0.000 HD
ATOM      8  H   UNL     1       1.809   5.995 -20.207  0.00  0.00    +0.000 HD
ATOM      9  H   UNL     1       3.798   1.449 -20.323  0.00  0.00    +0.000 HD
ATOM     10  H   UNL     1       4.267   5.714 -20.100  0.00  0.00    +0.000 HD
ATOM     11  H   UNL     1       5.263   3.442 -20.157  0.00  0.00    +0.000 HD
ENDROOT
BRANCH   1  12
ATOM     12  O   UNL     1       0.064   4.028 -20.385  0.00  0.00    +0.000 OA
BRANCH  12  13
ATOM     13  C   UNL     1      -0.700   2.895 -20.795  0.00  0.00    +0.000 C 
ATOM     14  H   UNL     1      -0.625   2.076 -20.071  0.00  0.00    +0.000 HD
ATOM     15  H   UNL     1      -0.436   2.577 -21.809  0.00  0.00    +0.000 HD
ATOM     16  H   UNL     1      -1.750   3.204 -20.819  0.00  0.00    +0.000 HD
ENDBRANCH  12  13
ENDBRANCH   1  12
TORSDOF 2
ENDMDL
MODEL 9
REMARK VINA RESULT:    -3.750     15.558     16.613
REMARK INTER + INTRA:          -4.096
REMARK INTER:                  -4.079
REMARK INTRA:                  -0.018
REMARK UNBOUND:                -0.017
REMARK  Name = 7519
REMARK  2 active torsions:
REMARK  status: ('A' for Active; 'I' for Inactive)
REMARK    1  A    between atoms: O_1  and  C_2
REMARK    2  A    between atoms: O_1  and  C_8
REMARK                            x       y       z     vdW  Elec       q    Type
REMARK                         _______ _______ _______ _____ _____    ______ ____
ROOT
ATOM      1  C   UNL     1      -6.160 -14.071   4.379  0.00  0.00    +0.000 A 
ATOM      2  C   UNL     1      -6.235 -15.212   5.179  0.00  0.00    +0.000 A 
ATOM      3  C   UNL     1      -7.092 -13.046   4.538  0.00  0.00    +0.000 A 
ATOM      4  C   UNL     1      -7.243 -15.326   6.137  0.00  0.00    +0.000 A 
ATOM      5  C   UNL     1      -8.099 -13.159   5.496  0.00  0.00    +0.000 A 
ATOM      6  C   UNL     1      -8.175 -14.300   6.296  0.00  0.00    +0.000 A 
ATOM      7  H   UNL     1      -5.545 -16.045   5.109  0.00  0.00    +0.000 HD
ATOM      8  H   UNL     1      -7.038 -12.154   3.918  0.00  0.00    +0.000 HD
ATOM      9  H   UNL     1      -7.303 -16.213   6.761  0.00  0.00    +0.000 HD
ATOM     10  H   UNL     1      -8.825 -12.361   5.620  0.00  0.00    +0.000 HD
ATOM     11  H   UNL     1      -8.958 -14.390   7.042  0.00  0.00    +0.000 HD
ENDROOT
BRANCH   1  12
ATOM     12  O   UNL     1      -5.177 -13.959   3.445  0.00  0.00    +0.000 OA
BRANCH  12  13
ATOM     13  C   UNL     1      -5.506 -14.337   2.108  0.00  0.00    +0.000 C 
ATOM     14  H   UNL     1      -6.520 -14.745   2.044  0.00  0.00    +0.000 HD
ATOM     15  H   UNL     1      -4.757 -15.015   1.687  0.00  0.00    +0.000 HD
ATOM     16  H   UNL     1      -5.490 -13.425   1.502  0.00  0.00    +0.000 HD
ENDBRANCH  12  13
ENDBRANCH   1  12
TORSDOF 2
ENDMDL
MODEL 10
REMARK VINA RESULT:    -3.744     14.631     15.811
REMARK INTER + INTRA:          -4.090
REMARK INTER:                  -4.060
REMARK INTRA:                  -0.030
REMARK UNBOUND:                -0.017
REMARK  Name = 7519
REMARK  2 active torsions:
REMARK  status: ('A' for Active; 'I' for Inactive)
REMARK    1  A    between atoms: O_1  and  C_2
REMARK    2  A    between atoms: O_1  and  C_8
REMARK                            x       y       z     vdW  Elec       q    Type
REMARK                         _______ _______ _______ _____ _____    ______ ____
ROOT
ATOM      1  C   UNL     1      -7.347 -14.467   2.985  0.00  0.00    +0.000 A 
ATOM      2  C   UNL     1      -7.381 -15.738   2.410  0.00  0.00    +0.000 A 
ATOM      3  C   UNL     1      -7.210 -13.339   2.176  0.00  0.00    +0.000 A 
ATOM      4  C   UNL     1      -7.278 -15.880   1.026  0.00  0.00    +0.000 A 
ATOM      5  C   UNL     1      -7.107 -13.480   0.792  0.00  0.00    +0.000 A 
ATOM      6  C   UNL     1      -7.141 -14.750   0.217  0.00  0.00    +0.000 A 
ATOM      7  H   UNL     1      -7.485 -16.656   2.978  0.00  0.00    +0.000 HD
ATOM      8  H   UNL     1      -7.183 -12.346   2.619  0.00  0.00    +0.000 HD
ATOM      9  H   UNL     1      -7.304 -16.868   0.577  0.00  0.00    +0.000 HD
ATOM     10  H   UNL     1      -7.001 -12.602   0.163  0.00  0.00    +0.000 HD
ATOM     11  H   UNL     1      -7.061 -14.862  -0.860  0.00  0.00    +0.000 HD
ENDROOT
BRANCH   1  12
ATOM     12  O   UNL     1      -7.447 -14.329   4.335  0.00  0.00    +0.000 OA
BRANCH  12  13
ATOM     13  C   UNL     1      -7.710 -13.019   4.836  0.00  0.00    +0.000 C 
ATOM     14  H   UNL     1      -8.778 -12.779   4.793  0.00  0.00    +0.000 HD
ATOM     15  H   UNL     1      -7.095 -12.266   4.334  0.00  0.00    +0.000 HD
ATOM     16  H   UNL     1      -7.425 -13.014   5.893  0.00  0.00    +0.000 HD
ENDBRANCH  12  13
ENDBRANCH   1  12
TORSDOF 2
ENDMDL
