MODEL 1
REMARK VINA RESULT:    -5.456      0.000      0.000
REMARK INTER + INTRA:          -6.863
REMARK INTER:                  -6.645
REMARK INTRA:                  -0.217
REMARK UNBOUND:                -0.130
REMARK  Name = 638014
REMARK  6 active torsions:
REMARK  status: ('A' for Active; 'I' for Inactive)
REMARK    1  A    between atoms: C_2  and  C_8
REMARK    2  A    between atoms: C_2  and  C_9
REMARK    3  A    between atoms: C_5  and  C_10
REMARK    4  A    between atoms: C_7  and  C_11
REMARK    5  A    between atoms: C_12  and  C_13
REMARK    6  A    between atoms: C_13  and  C_14
REMARK                            x       y       z     vdW  Elec       q    Type
REMARK                         _______ _______ _______ _____ _____    ______ ____
ROOT
ATOM      1  C   UNL     1      -6.852 -13.509   3.890  0.00  0.00    +0.000 C 
ATOM      2  C   UNL     1      -8.080 -13.140   4.768  0.00  0.00    +0.000 C 
ATOM      3  C   UNL     1      -7.827 -13.390   6.244  0.00  0.00    +0.000 C 
ATOM      4  C   UNL     1      -6.237 -14.863   4.313  0.00  0.00    +0.000 C 
ATOM      5  C   UNL     1      -7.524 -14.862   6.479  0.00  0.00    +0.000 C 
ATOM      6  C   UNL     1      -6.570 -15.478   5.477  0.00  0.00    +0.000 C 
ATOM      7  H   UNL     1      -8.953 -13.732   4.459  0.00  0.00    +0.000 HD
ATOM      8  H   UNL     1      -8.356 -12.088   4.619  0.00  0.00    +0.000 HD
ATOM      9  H   UNL     1      -8.706 -13.098   6.829  0.00  0.00    +0.000 HD
ATOM     10  H   UNL     1      -6.995 -12.772   6.602  0.00  0.00    +0.000 HD
ATOM     11  H   UNL     1      -8.462 -15.431   6.454  0.00  0.00    +0.000 HD
ATOM     12  H   UNL     1      -7.115 -14.967   7.492  0.00  0.00    +0.000 HD
ENDROOT
BRANCH   1  13
ATOM     13  C   UNL     1      -5.788 -12.394   4.020  0.00  0.00    +0.000 C 
ATOM     14  H   UNL     1      -6.118 -11.459   3.555  0.00  0.00    +0.000 HD
ATOM     15  H   UNL     1      -5.566 -12.174   5.071  0.00  0.00    +0.000 HD
ATOM     16  H   UNL     1      -4.846 -12.690   3.546  0.00  0.00    +0.000 HD
ENDBRANCH   1  13
BRANCH   1  17
ATOM     17  C   UNL     1      -7.364 -13.533   2.430  0.00  0.00    +0.000 C 
ATOM     18  H   UNL     1      -8.297 -14.105   2.352  0.00  0.00    +0.000 HD
ATOM     19  H   UNL     1      -7.584 -12.530   2.049  0.00  0.00    +0.000 HD
ATOM     20  H   UNL     1      -6.633 -13.999   1.758  0.00  0.00    +0.000 HD
ENDBRANCH   1  17
BRANCH   4  21
ATOM     21  C   UNL     1      -5.258 -15.424   3.396  0.00  0.00    +0.000 C 
ATOM     22  C   UNL     1      -3.951 -15.373   3.632  0.00  0.00    +0.000 C 
ATOM     23  H   UNL     1      -5.635 -15.926   2.512  0.00  0.00    +0.000 HD
ATOM     24  H   UNL     1      -3.513 -14.857   4.477  0.00  0.00    +0.000 HD
BRANCH  22  26
ATOM     25  O   UNL     1      -2.621 -17.134   2.732  0.00  0.00    +0.000 OA
ATOM     26  C   UNL     1      -2.998 -15.967   2.653  0.00  0.00    +0.000 C 
BRANCH  26  27
ATOM     27  C   UNL     1      -2.497 -15.062   1.558  0.00  0.00    +0.000 C 
ATOM     28  H   UNL     1      -1.846 -14.299   1.994  0.00  0.00    +0.000 HD
ATOM     29  H   UNL     1      -1.915 -15.615   0.817  0.00  0.00    +0.000 HD
ATOM     30  H   UNL     1      -3.349 -14.588   1.064  0.00  0.00    +0.000 HD
ENDBRANCH  26  27
ENDBRANCH  22  26
ENDBRANCH   4  21
BRANCH   6  31
ATOM     31  C   UNL     1      -6.059 -16.823   5.943  0.00  0.00    +0.000 C 
ATOM     32  H   UNL     1      -5.025 -16.744   6.292  0.00  0.00    +0.000 HD
ATOM     33  H   UNL     1      -6.141 -17.608   5.187  0.00  0.00    +0.000 HD
ATOM     34  H   UNL     1      -6.666 -17.179   6.784  0.00  0.00    +0.000 HD
ENDBRANCH   6  31
TORSDOF 6
ENDMDL
MODEL 2
REMARK VINA RESULT:    -5.428      4.518      6.517
REMARK INTER + INTRA:          -6.828
REMARK INTER:                  -6.707
REMARK INTRA:                  -0.121
REMARK UNBOUND:                -0.130
REMARK  Name = 638014
REMARK  6 active torsions:
REMARK  status: ('A' for Active; 'I' for Inactive)
REMARK    1  A    between atoms: C_2  and  C_8
REMARK    2  A    between atoms: C_2  and  C_9
REMARK    3  A    between atoms: C_5  and  C_10
REMARK    4  A    between atoms: C_7  and  C_11
REMARK    5  A    between atoms: C_12  and  C_13
REMARK    6  A    between atoms: C_13  and  C_14
REMARK                            x       y       z     vdW  Elec       q    Type
REMARK                         _______ _______ _______ _____ _____    ______ ____
ROOT
ATOM      1  C   UNL     1      -2.192 -15.344   1.639  0.00  0.00    +0.000 C 
ATOM      2  C   UNL     1      -1.962 -15.922   3.063  0.00  0.00    +0.000 C 
ATOM      3  C   UNL     1      -0.570 -16.506   3.228  0.00  0.00    +0.000 C 
ATOM      4  C   UNL     1      -1.657 -16.297   0.545  0.00  0.00    +0.000 C 
ATOM      5  C   UNL     1      -0.359 -17.638   2.236  0.00  0.00    +0.000 C 
ATOM      6  C   UNL     1      -0.849 -17.349   0.832  0.00  0.00    +0.000 C 
ATOM      7  H   UNL     1      -2.698 -16.712   3.269  0.00  0.00    +0.000 HD
ATOM      8  H   UNL     1      -2.124 -15.147   3.822  0.00  0.00    +0.000 HD
ATOM      9  H   UNL     1      -0.441 -16.882   4.249  0.00  0.00    +0.000 HD
ATOM     10  H   UNL     1       0.192 -15.730   3.084  0.00  0.00    +0.000 HD
ATOM     11  H   UNL     1      -0.873 -18.536   2.600  0.00  0.00    +0.000 HD
ATOM     12  H   UNL     1       0.713 -17.873   2.212  0.00  0.00    +0.000 HD
ENDROOT
BRANCH   1  13
ATOM     13  C   UNL     1      -1.475 -13.978   1.530  0.00  0.00    +0.000 C 
ATOM     14  H   UNL     1      -2.184 -13.155   1.387  0.00  0.00    +0.000 HD
ATOM     15  H   UNL     1      -0.897 -13.755   2.435  0.00  0.00    +0.000 HD
ATOM     16  H   UNL     1      -0.774 -13.965   0.688  0.00  0.00    +0.000 HD
ENDBRANCH   1  13
BRANCH   1  17
ATOM     17  C   UNL     1      -3.717 -15.110   1.514  0.00  0.00    +0.000 C 
ATOM     18  H   UNL     1      -3.929 -14.254   0.860  0.00  0.00    +0.000 HD
ATOM     19  H   UNL     1      -4.235 -15.970   1.075  0.00  0.00    +0.000 HD
ATOM     20  H   UNL     1      -4.170 -14.901   2.490  0.00  0.00    +0.000 HD
ENDBRANCH   1  17
BRANCH   4  21
ATOM     21  C   UNL     1      -2.056 -15.979  -0.817  0.00  0.00    +0.000 C 
ATOM     22  C   UNL     1      -2.857 -16.767  -1.526  0.00  0.00    +0.000 C 
ATOM     23  H   UNL     1      -1.702 -15.042  -1.232  0.00  0.00    +0.000 HD
ATOM     24  H   UNL     1      -3.214 -17.729  -1.179  0.00  0.00    +0.000 HD
BRANCH  22  26
ATOM     25  O   UNL     1      -3.931 -17.103  -3.627  0.00  0.00    +0.000 OA
ATOM     26  C   UNL     1      -3.229 -16.385  -2.917  0.00  0.00    +0.000 C 
BRANCH  26  27
ATOM     27  C   UNL     1      -2.690 -15.076  -3.430  0.00  0.00    +0.000 C 
ATOM     28  H   UNL     1      -1.917 -15.276  -4.177  0.00  0.00    +0.000 HD
ATOM     29  H   UNL     1      -3.472 -14.481  -3.909  0.00  0.00    +0.000 HD
ATOM     30  H   UNL     1      -2.267 -14.510  -2.597  0.00  0.00    +0.000 HD
ENDBRANCH  26  27
ENDBRANCH  22  26
ENDBRANCH   4  21
BRANCH   6  31
ATOM     31  C   UNL     1      -0.325 -18.358  -0.164  0.00  0.00    +0.000 C 
ATOM     32  H   UNL     1      -1.079 -18.578  -0.925  0.00  0.00    +0.000 HD
ATOM     33  H   UNL     1       0.026 -19.285   0.296  0.00  0.00    +0.000 HD
ATOM     34  H   UNL     1       0.554 -17.949  -0.679  0.00  0.00    +0.000 HD
ENDBRANCH   6  31
TORSDOF 6
ENDMDL
MODEL 3
REMARK VINA RESULT:    -5.421     31.398     32.589
REMARK INTER + INTRA:          -6.819
REMARK INTER:                  -6.583
REMARK INTRA:                  -0.236
REMARK UNBOUND:                -0.130
REMARK  Name = 638014
REMARK  6 active torsions:
REMARK  status: ('A' for Active; 'I' for Inactive)
REMARK    1  A    between atoms: C_2  and  C_8
REMARK    2  A    between atoms: C_2  and  C_9
REMARK    3  A    between atoms: C_5  and  C_10
REMARK    4  A    between atoms: C_7  and  C_11
REMARK    5  A    between atoms: C_12  and  C_13
REMARK    6  A    between atoms: C_13  and  C_14
REMARK                            x       y       z     vdW  Elec       q    Type
REMARK                         _______ _______ _______ _____ _____    ______ ____
ROOT
ATOM      1  C   UNL     1       1.950   5.963 -20.097  0.00  0.00    +0.000 C 
ATOM      2  C   UNL     1       3.169   6.474 -19.280  0.00  0.00    +0.000 C 
ATOM      3  C   UNL     1       4.483   5.922 -19.801  0.00  0.00    +0.000 C 
ATOM      4  C   UNL     1       2.051   4.447 -20.381  0.00  0.00    +0.000 C 
ATOM      5  C   UNL     1       4.480   4.404 -19.716  0.00  0.00    +0.000 C 
ATOM      6  C   UNL     1       3.196   3.747 -20.180  0.00  0.00    +0.000 C 
ATOM      7  H   UNL     1       3.061   6.181 -18.226  0.00  0.00    +0.000 HD
ATOM      8  H   UNL     1       3.205   7.571 -19.290  0.00  0.00    +0.000 HD
ATOM      9  H   UNL     1       5.317   6.321 -19.213  0.00  0.00    +0.000 HD
ATOM     10  H   UNL     1       4.651   6.242 -20.837  0.00  0.00    +0.000 HD
ATOM     11  H   UNL     1       4.665   4.101 -18.678  0.00  0.00    +0.000 HD
ATOM     12  H   UNL     1       5.323   4.029 -20.312  0.00  0.00    +0.000 HD
ENDROOT
BRANCH   1  13
ATOM     13  C   UNL     1       1.883   6.737 -21.435  0.00  0.00    +0.000 C 
ATOM     14  H   UNL     1       1.587   7.781 -21.287  0.00  0.00    +0.000 HD
ATOM     15  H   UNL     1       2.854   6.742 -21.943  0.00  0.00    +0.000 HD
ATOM     16  H   UNL     1       1.161   6.279 -22.121  0.00  0.00    +0.000 HD
ENDBRANCH   1  13
BRANCH   1  17
ATOM     17  C   UNL     1       0.697   6.317 -19.261  0.00  0.00    +0.000 C 
ATOM     18  H   UNL     1       0.882   6.154 -18.191  0.00  0.00    +0.000 HD
ATOM     19  H   UNL     1       0.408   7.368 -19.367  0.00  0.00    +0.000 HD
ATOM     20  H   UNL     1      -0.162   5.697 -19.546  0.00  0.00    +0.000 HD
ENDBRANCH   1  17
BRANCH   4  21
ATOM     21  C   UNL     1       0.846   3.822 -20.904  0.00  0.00    +0.000 C 
ATOM     22  C   UNL     1       0.614   3.703 -22.207  0.00  0.00    +0.000 C 
ATOM     23  H   UNL     1       0.144   3.417 -20.184  0.00  0.00    +0.000 HD
ATOM     24  H   UNL     1       1.259   4.118 -22.972  0.00  0.00    +0.000 HD
BRANCH  22  26
ATOM     25  O   UNL     1      -1.111   3.273 -23.793  0.00  0.00    +0.000 OA
ATOM     26  C   UNL     1      -0.640   3.053 -22.680  0.00  0.00    +0.000 C 
BRANCH  26  27
ATOM     27  C   UNL     1      -1.323   2.116 -21.719  0.00  0.00    +0.000 C 
ATOM     28  H   UNL     1      -2.356   1.960 -22.045  0.00  0.00    +0.000 HD
ATOM     29  H   UNL     1      -0.830   1.141 -21.691  0.00  0.00    +0.000 HD
ATOM     30  H   UNL     1      -1.310   2.554 -20.718  0.00  0.00    +0.000 HD
ENDBRANCH  26  27
ENDBRANCH  22  26
ENDBRANCH   4  21
BRANCH   6  31
ATOM     31  C   UNL     1       3.369   2.258 -20.380  0.00  0.00    +0.000 C 
ATOM     32  H   UNL     1       4.111   2.056 -21.157  0.00  0.00    +0.000 HD
ATOM     33  H   UNL     1       2.435   1.736 -20.608  0.00  0.00    +0.000 HD
ATOM     34  H   UNL     1       3.728   1.798 -19.451  0.00  0.00    +0.000 HD
ENDBRANCH   6  31
TORSDOF 6
ENDMDL
MODEL 4
REMARK VINA RESULT:    -5.250      2.315      5.881
REMARK INTER + INTRA:          -6.608
REMARK INTER:                  -6.421
REMARK INTRA:                  -0.186
REMARK UNBOUND:                -0.130
REMARK  Name = 638014
REMARK  6 active torsions:
REMARK  status: ('A' for Active; 'I' for Inactive)
REMARK    1  A    between atoms: C_2  and  C_8
REMARK    2  A    between atoms: C_2  and  C_9
REMARK    3  A    between atoms: C_5  and  C_10
REMARK    4  A    between atoms: C_7  and  C_11
REMARK    5  A    between atoms: C_12  and  C_13
REMARK    6  A    between atoms: C_13  and  C_14
REMARK                            x       y       z     vdW  Elec       q    Type
REMARK                         _______ _______ _______ _____ _____    ______ ____
ROOT
ATOM      1  C   UNL     1      -2.314 -15.491   1.657  0.00  0.00    +0.000 C 
ATOM      2  C   UNL     1      -1.641 -16.195   0.446  0.00  0.00    +0.000 C 
ATOM      3  C   UNL     1      -2.198 -15.712  -0.881  0.00  0.00    +0.000 C 
ATOM      4  C   UNL     1      -3.849 -15.410   1.487  0.00  0.00    +0.000 C 
ATOM      5  C   UNL     1      -3.689 -16.000  -0.957  0.00  0.00    +0.000 C 
ATOM      6  C   UNL     1      -4.461 -15.669   0.304  0.00  0.00    +0.000 C 
ATOM      7  H   UNL     1      -1.793 -17.281   0.513  0.00  0.00    +0.000 HD
ATOM      8  H   UNL     1      -0.555 -16.036   0.465  0.00  0.00    +0.000 HD
ATOM      9  H   UNL     1      -1.684 -16.215  -1.708  0.00  0.00    +0.000 HD
ATOM     10  H   UNL     1      -2.013 -14.638  -1.008  0.00  0.00    +0.000 HD
ATOM     11  H   UNL     1      -3.839 -17.063  -1.181  0.00  0.00    +0.000 HD
ATOM     12  H   UNL     1      -4.101 -15.434  -1.802  0.00  0.00    +0.000 HD
ENDROOT
BRANCH   1  13
ATOM     13  C   UNL     1      -1.733 -14.064   1.795  0.00  0.00    +0.000 C 
ATOM     14  H   UNL     1      -1.170 -13.941   2.727  0.00  0.00    +0.000 HD
ATOM     15  H   UNL     1      -1.051 -13.828   0.970  0.00  0.00    +0.000 HD
ATOM     16  H   UNL     1      -2.528 -13.310   1.783  0.00  0.00    +0.000 HD
ENDBRANCH   1  13
BRANCH   1  17
ATOM     17  C   UNL     1      -1.908 -16.310   2.906  0.00  0.00    +0.000 C 
ATOM     18  H   UNL     1      -1.436 -15.666   3.660  0.00  0.00    +0.000 HD
ATOM     19  H   UNL     1      -2.770 -16.777   3.396  0.00  0.00    +0.000 HD
ATOM     20  H   UNL     1      -1.192 -17.100   2.650  0.00  0.00    +0.000 HD
ENDBRANCH   1  17
BRANCH   4  21
ATOM     21  C   UNL     1      -4.593 -15.013   2.672  0.00  0.00    +0.000 C 
ATOM     22  C   UNL     1      -5.198 -13.834   2.770  0.00  0.00    +0.000 C 
ATOM     23  H   UNL     1      -4.672 -15.737   3.475  0.00  0.00    +0.000 HD
ATOM     24  H   UNL     1      -5.127 -13.058   2.018  0.00  0.00    +0.000 HD
BRANCH  22  26
ATOM     25  O   UNL     1      -5.380 -13.317   5.089  0.00  0.00    +0.000 OA
ATOM     26  C   UNL     1      -5.945 -13.486   4.010  0.00  0.00    +0.000 C 
BRANCH  26  27
ATOM     27  C   UNL     1      -7.442 -13.366   3.891  0.00  0.00    +0.000 C 
ATOM     28  H   UNL     1      -7.707 -12.313   3.763  0.00  0.00    +0.000 HD
ATOM     29  H   UNL     1      -7.820 -13.915   3.025  0.00  0.00    +0.000 HD
ATOM     30  H   UNL     1      -7.908 -13.761   4.797  0.00  0.00    +0.000 HD
ENDBRANCH  26  27
ENDBRANCH  22  26
ENDBRANCH   4  21
BRANCH   6  31
ATOM     31  C   UNL     1      -5.954 -15.665   0.062  0.00  0.00    +0.000 C 
ATOM     32  H   UNL     1      -6.453 -14.961   0.735  0.00  0.00    +0.000 HD
ATOM     33  H   UNL     1      -6.413 -16.653   0.145  0.00  0.00    +0.000 HD
ATOM     34  H   UNL     1      -6.162 -15.343  -0.966  0.00  0.00    +0.000 HD
ENDBRANCH   6  31
TORSDOF 6
ENDMDL
MODEL 5
REMARK VINA RESULT:    -5.247     31.447     32.735
REMARK INTER + INTRA:          -6.604
REMARK INTER:                  -6.388
REMARK INTRA:                  -0.216
REMARK UNBOUND:                -0.130
REMARK  Name = 638014
REMARK  6 active torsions:
REMARK  status: ('A' for Active; 'I' for Inactive)
REMARK    1  A    between atoms: C_2  and  C_8
REMARK    2  A    between atoms: C_2  and  C_9
REMARK    3  A    between atoms: C_5  and  C_10
REMARK    4  A    between atoms: C_7  and  C_11
REMARK    5  A    between atoms: C_12  and  C_13
REMARK    6  A    between atoms: C_13  and  C_14
REMARK                            x       y       z     vdW  Elec       q    Type
REMARK                         _______ _______ _______ _____ _____    ______ ____
ROOT
ATOM      1  C   UNL     1       3.587   3.852 -21.122  0.00  0.00    +0.000 C 
ATOM      2  C   UNL     1       4.787   4.636 -20.522  0.00  0.00    +0.000 C 
ATOM      3  C   UNL     1       4.436   5.306 -19.207  0.00  0.00    +0.000 C 
ATOM      4  C   UNL     1       2.276   4.666 -21.037  0.00  0.00    +0.000 C 
ATOM      5  C   UNL     1       3.301   6.296 -19.412  0.00  0.00    +0.000 C 
ATOM      6  C   UNL     1       2.167   5.787 -20.279  0.00  0.00    +0.000 C 
ATOM      7  H   UNL     1       5.119   5.409 -21.229  0.00  0.00    +0.000 HD
ATOM      8  H   UNL     1       5.646   3.969 -20.374  0.00  0.00    +0.000 HD
ATOM      9  H   UNL     1       5.312   5.829 -18.807  0.00  0.00    +0.000 HD
ATOM     10  H   UNL     1       4.153   4.557 -18.457  0.00  0.00    +0.000 HD
ATOM     11  H   UNL     1       3.699   7.210 -19.871  0.00  0.00    +0.000 HD
ATOM     12  H   UNL     1       2.913   6.578 -18.425  0.00  0.00    +0.000 HD
ENDROOT
BRANCH   1  13
ATOM     13  C   UNL     1       3.421   2.522 -20.351  0.00  0.00    +0.000 C 
ATOM     14  H   UNL     1       2.367   2.241 -20.244  0.00  0.00    +0.000 HD
ATOM     15  H   UNL     1       3.927   1.695 -20.864  0.00  0.00    +0.000 HD
ATOM     16  H   UNL     1       3.853   2.590 -19.346  0.00  0.00    +0.000 HD
ENDBRANCH   1  13
BRANCH   1  17
ATOM     17  C   UNL     1       3.977   3.527 -22.584  0.00  0.00    +0.000 C 
ATOM     18  H   UNL     1       3.673   2.507 -22.853  0.00  0.00    +0.000 HD
ATOM     19  H   UNL     1       3.488   4.194 -23.303  0.00  0.00    +0.000 HD
ATOM     20  H   UNL     1       5.061   3.600 -22.734  0.00  0.00    +0.000 HD
ENDBRANCH   1  17
BRANCH   4  21
ATOM     21  C   UNL     1       1.156   4.140 -21.801  0.00  0.00    +0.000 C 
ATOM     22  C   UNL     1       0.312   3.243 -21.301  0.00  0.00    +0.000 C 
ATOM     23  H   UNL     1       1.007   4.534 -22.800  0.00  0.00    +0.000 HD
ATOM     24  H   UNL     1       0.429   2.787 -20.325  0.00  0.00    +0.000 HD
BRANCH  22  26
ATOM     25  O   UNL     1      -1.754   2.110 -21.655  0.00  0.00    +0.000 OA
ATOM     26  C   UNL     1      -0.816   2.743 -22.135  0.00  0.00    +0.000 C 
BRANCH  26  27
ATOM     27  C   UNL     1      -0.751   3.033 -23.611  0.00  0.00    +0.000 C 
ATOM     28  H   UNL     1       0.130   2.541 -24.034  0.00  0.00    +0.000 HD
ATOM     29  H   UNL     1      -1.631   2.649 -24.134  0.00  0.00    +0.000 HD
ATOM     30  H   UNL     1      -0.685   4.113 -23.764  0.00  0.00    +0.000 HD
ENDBRANCH  26  27
ENDBRANCH  22  26
ENDBRANCH   4  21
BRANCH   6  31
ATOM     31  C   UNL     1       0.944   6.671 -20.178  0.00  0.00    +0.000 C 
ATOM     32  H   UNL     1       1.217   7.671 -19.829  0.00  0.00    +0.000 HD
ATOM     33  H   UNL     1       0.155   6.255 -19.547  0.00  0.00    +0.000 HD
ATOM     34  H   UNL     1       0.484   6.781 -21.168  0.00  0.00    +0.000 HD
ENDBRANCH   6  31
TORSDOF 6
ENDMDL
MODEL 6
REMARK VINA RESULT:    -5.146     31.985     32.885
REMARK INTER + INTRA:          -6.480
REMARK INTER:                  -6.291
REMARK INTRA:                  -0.189
REMARK UNBOUND:                -0.130
REMARK  Name = 638014
REMARK  6 active torsions:
REMARK  status: ('A' for Active; 'I' for Inactive)
REMARK    1  A    between atoms: C_2  and  C_8
REMARK    2  A    between atoms: C_2  and  C_9
REMARK    3  A    between atoms: C_5  and  C_10
REMARK    4  A    between atoms: C_7  and  C_11
REMARK    5  A    between atoms: C_12  and  C_13
REMARK    6  A    between atoms: C_13  and  C_14
REMARK                            x       y       z     vdW  Elec       q    Type
REMARK                         _______ _______ _______ _____ _____    ______ ____
ROOT
ATOM      1  C   UNL     1       5.227   4.586 -20.133  0.00  0.00    +0.000 C 
ATOM      2  C   UNL     1       6.650   4.142 -19.691  0.00  0.00    +0.000 C 
ATOM      3  C   UNL     1       6.749   3.942 -18.190  0.00  0.00    +0.000 C 
ATOM      4  C   UNL     1       4.661   5.685 -19.204  0.00  0.00    +0.000 C 
ATOM      5  C   UNL     1       6.433   5.243 -17.469  0.00  0.00    +0.000 C 
ATOM      6  C   UNL     1       5.233   5.991 -18.011  0.00  0.00    +0.000 C 
ATOM      7  H   UNL     1       7.388   4.899 -19.992  0.00  0.00    +0.000 HD
ATOM      8  H   UNL     1       6.937   3.214 -20.202  0.00  0.00    +0.000 HD
ATOM      9  H   UNL     1       7.759   3.610 -17.923  0.00  0.00    +0.000 HD
ATOM     10  H   UNL     1       6.064   3.152 -17.861  0.00  0.00    +0.000 HD
ATOM     11  H   UNL     1       7.305   5.907 -17.526  0.00  0.00    +0.000 HD
ATOM     12  H   UNL     1       6.277   5.014 -16.407  0.00  0.00    +0.000 HD
ENDROOT
BRANCH   1  13
ATOM     13  C   UNL     1       4.289   3.358 -20.113  0.00  0.00    +0.000 C 
ATOM     14  H   UNL     1       4.800   2.448 -20.446  0.00  0.00    +0.000 HD
ATOM     15  H   UNL     1       3.905   3.163 -19.104  0.00  0.00    +0.000 HD
ATOM     16  H   UNL     1       3.421   3.512 -20.764  0.00  0.00    +0.000 HD
ENDBRANCH   1  13
BRANCH   1  17
ATOM     17  C   UNL     1       5.367   5.075 -21.595  0.00  0.00    +0.000 C 
ATOM     18  H   UNL     1       5.724   4.265 -22.245  0.00  0.00    +0.000 HD
ATOM     19  H   UNL     1       4.413   5.410 -22.015  0.00  0.00    +0.000 HD
ATOM     20  H   UNL     1       6.084   5.901 -21.673  0.00  0.00    +0.000 HD
ENDBRANCH   1  17
BRANCH   4  21
ATOM     21  C   UNL     1       3.460   6.353 -19.679  0.00  0.00    +0.000 C 
ATOM     22  C   UNL     1       2.240   5.938 -19.355  0.00  0.00    +0.000 C 
ATOM     23  H   UNL     1       3.593   7.240 -20.289  0.00  0.00    +0.000 HD
ATOM     24  H   UNL     1       2.043   5.042 -18.780  0.00  0.00    +0.000 HD
BRANCH  22  26
ATOM     25  O   UNL     1       0.916   6.939 -21.065  0.00  0.00    +0.000 OA
ATOM     26  C   UNL     1       1.048   6.666 -19.874  0.00  0.00    +0.000 C 
BRANCH  26  27
ATOM     27  C   UNL     1       0.007   7.073 -18.865  0.00  0.00    +0.000 C 
ATOM     28  H   UNL     1      -0.575   7.907 -19.267  0.00  0.00    +0.000 HD
ATOM     29  H   UNL     1      -0.685   6.254 -18.651  0.00  0.00    +0.000 HD
ATOM     30  H   UNL     1       0.502   7.375 -17.938  0.00  0.00    +0.000 HD
ENDBRANCH  26  27
ENDBRANCH  22  26
ENDBRANCH   4  21
BRANCH   6  31
ATOM     31  C   UNL     1       4.778   7.082 -17.068  0.00  0.00    +0.000 C 
ATOM     32  H   UNL     1       5.325   7.028 -16.123  0.00  0.00    +0.000 HD
ATOM     33  H   UNL     1       3.701   7.077 -16.881  0.00  0.00    +0.000 HD
ATOM     34  H   UNL     1       4.982   8.064 -17.512  0.00  0.00    +0.000 HD
ENDBRANCH   6  31
TORSDOF 6
ENDMDL
MODEL 7
REMARK VINA RESULT:    -5.139      2.650      5.320
REMARK INTER + INTRA:          -6.471
REMARK INTER:                  -6.241
REMARK INTRA:                  -0.230
REMARK UNBOUND:                -0.130
REMARK  Name = 638014
REMARK  6 active torsions:
REMARK  status: ('A' for Active; 'I' for Inactive)
REMARK    1  A    between atoms: C_2  and  C_8
REMARK    2  A    between atoms: C_2  and  C_9
REMARK    3  A    between atoms: C_5  and  C_10
REMARK    4  A    between atoms: C_7  and  C_11
REMARK    5  A    between atoms: C_12  and  C_13
REMARK    6  A    between atoms: C_13  and  C_14
REMARK                            x       y       z     vdW  Elec       q    Type
REMARK                         _______ _______ _______ _____ _____    ______ ____
ROOT
ATOM      1  C   UNL     1      -1.833 -15.262   1.979  0.00  0.00    +0.000 C 
ATOM      2  C   UNL     1      -0.615 -15.897   2.706  0.00  0.00    +0.000 C 
ATOM      3  C   UNL     1      -0.965 -17.217   3.368  0.00  0.00    +0.000 C 
ATOM      4  C   UNL     1      -3.113 -15.335   2.844  0.00  0.00    +0.000 C 
ATOM      5  C   UNL     1      -2.056 -17.005   4.406  0.00  0.00    +0.000 C 
ATOM      6  C   UNL     1      -3.192 -16.109   3.957  0.00  0.00    +0.000 C 
ATOM      7  H   UNL     1      -0.238 -15.209   3.476  0.00  0.00    +0.000 HD
ATOM      8  H   UNL     1       0.213 -16.051   2.002  0.00  0.00    +0.000 HD
ATOM      9  H   UNL     1      -0.077 -17.641   3.850  0.00  0.00    +0.000 HD
ATOM     10  H   UNL     1      -1.293 -17.948   2.620  0.00  0.00    +0.000 HD
ATOM     11  H   UNL     1      -1.613 -16.569   5.311  0.00  0.00    +0.000 HD
ATOM     12  H   UNL     1      -2.452 -17.989   4.689  0.00  0.00    +0.000 HD
ENDROOT
BRANCH   1  13
ATOM     13  C   UNL     1      -2.067 -16.008   0.645  0.00  0.00    +0.000 C 
ATOM     14  H   UNL     1      -2.663 -15.413  -0.056  0.00  0.00    +0.000 HD
ATOM     15  H   UNL     1      -1.119 -16.245   0.147  0.00  0.00    +0.000 HD
ATOM     16  H   UNL     1      -2.591 -16.956   0.809  0.00  0.00    +0.000 HD
ENDBRANCH   1  13
BRANCH   1  17
ATOM     17  C   UNL     1      -1.427 -13.802   1.662  0.00  0.00    +0.000 C 
ATOM     18  H   UNL     1      -1.291 -13.660   0.582  0.00  0.00    +0.000 HD
ATOM     19  H   UNL     1      -2.190 -13.081   1.974  0.00  0.00    +0.000 HD
ATOM     20  H   UNL     1      -0.484 -13.534   2.152  0.00  0.00    +0.000 HD
ENDBRANCH   1  17
BRANCH   4  21
ATOM     21  C   UNL     1      -4.237 -14.541   2.374  0.00  0.00    +0.000 C 
ATOM     22  C   UNL     1      -5.292 -15.085   1.777  0.00  0.00    +0.000 C 
ATOM     23  H   UNL     1      -4.203 -13.473   2.561  0.00  0.00    +0.000 HD
ATOM     24  H   UNL     1      -5.368 -16.137   1.533  0.00  0.00    +0.000 HD
BRANCH  22  26
ATOM     25  O   UNL     1      -6.593 -13.955   0.131  0.00  0.00    +0.000 OA
ATOM     26  C   UNL     1      -6.412 -14.217   1.319  0.00  0.00    +0.000 C 
BRANCH  26  27
ATOM     27  C   UNL     1      -7.315 -13.652   2.384  0.00  0.00    +0.000 C 
ATOM     28  H   UNL     1      -6.823 -13.746   3.356  0.00  0.00    +0.000 HD
ATOM     29  H   UNL     1      -7.521 -12.592   2.214  0.00  0.00    +0.000 HD
ATOM     30  H   UNL     1      -8.257 -14.205   2.387  0.00  0.00    +0.000 HD
ENDBRANCH  26  27
ENDBRANCH  22  26
ENDBRANCH   4  21
BRANCH   6  31
ATOM     31  C   UNL     1      -4.380 -16.200   4.886  0.00  0.00    +0.000 C 
ATOM     32  H   UNL     1      -4.751 -15.203   5.140  0.00  0.00    +0.000 HD
ATOM     33  H   UNL     1      -4.180 -16.769   5.798  0.00  0.00    +0.000 HD
ATOM     34  H   UNL     1      -5.197 -16.740   4.392  0.00  0.00    +0.000 HD
ENDBRANCH   6  31
TORSDOF 6
ENDMDL
MODEL 8
REMARK VINA RESULT:    -5.066     24.889     27.348
REMARK INTER + INTRA:          -6.381
REMARK INTER:                  -6.304
REMARK INTRA:                  -0.078
REMARK UNBOUND:                -0.130
REMARK  Name = 638014
REMARK  6 active torsions:
REMARK  status: ('A' for Active; 'I' for Inactive)
REMARK    1  A    between atoms: C_2  and  C_8
REMARK    2  A    between atoms: C_2  and  C_9
REMARK    3  A    between atoms: C_5  and  C_10
REMARK    4  A    between atoms: C_7  and  C_11
REMARK    5  A    between atoms: C_12  and  C_13
REMARK    6  A    between atoms: C_13  and  C_14
REMARK                            x       y       z     vdW  Elec       q    Type
REMARK                         _______ _______ _______ _____ _____    ______ ____
ROOT
ATOM      1  C   UNL     1      19.490  -5.167  -3.095  0.00  0.00    +0.000 C 
ATOM      2  C   UNL     1      19.161  -6.470  -3.877  0.00  0.00    +0.000 C 
ATOM      3  C   UNL     1      17.828  -6.387  -4.597  0.00  0.00    +0.000 C 
ATOM      4  C   UNL     1      18.260  -4.648  -2.314  0.00  0.00    +0.000 C 
ATOM      5  C   UNL     1      16.707  -6.161  -3.595  0.00  0.00    +0.000 C 
ATOM      6  C   UNL     1      17.009  -5.126  -2.532  0.00  0.00    +0.000 C 
ATOM      7  H   UNL     1      19.131  -7.323  -3.185  0.00  0.00    +0.000 HD
ATOM      8  H   UNL     1      19.955  -6.692  -4.602  0.00  0.00    +0.000 HD
ATOM      9  H   UNL     1      17.644  -7.314  -5.152  0.00  0.00    +0.000 HD
ATOM     10  H   UNL     1      17.841  -5.579  -5.338  0.00  0.00    +0.000 HD
ATOM     11  H   UNL     1      16.476  -7.110  -3.094  0.00  0.00    +0.000 HD
ATOM     12  H   UNL     1      15.808  -5.868  -4.152  0.00  0.00    +0.000 HD
ENDROOT
BRANCH   1  13
ATOM     13  C   UNL     1      19.961  -4.086  -4.096  0.00  0.00    +0.000 C 
ATOM     14  H   UNL     1      19.941  -3.084  -3.654  0.00  0.00    +0.000 HD
ATOM     15  H   UNL     1      20.988  -4.273  -4.432  0.00  0.00    +0.000 HD
ATOM     16  H   UNL     1      19.326  -4.071  -4.989  0.00  0.00    +0.000 HD
ENDBRANCH   1  13
BRANCH   1  17
ATOM     17  C   UNL     1      20.670  -5.518  -2.158  0.00  0.00    +0.000 C 
ATOM     18  H   UNL     1      20.651  -6.581  -1.886  0.00  0.00    +0.000 HD
ATOM     19  H   UNL     1      21.643  -5.337  -2.627  0.00  0.00    +0.000 HD
ATOM     20  H   UNL     1      20.628  -4.938  -1.228  0.00  0.00    +0.000 HD
ENDBRANCH   1  17
BRANCH   4  21
ATOM     21  C   UNL     1      18.528  -3.594  -1.347  0.00  0.00    +0.000 C 
ATOM     22  C   UNL     1      18.737  -3.847  -0.060  0.00  0.00    +0.000 C 
ATOM     23  H   UNL     1      18.587  -2.579  -1.723  0.00  0.00    +0.000 HD
ATOM     24  H   UNL     1      18.657  -4.834   0.380  0.00  0.00    +0.000 HD
BRANCH  22  26
ATOM     25  O   UNL     1      19.485  -1.656   0.504  0.00  0.00    +0.000 OA
ATOM     26  C   UNL     1      19.007  -2.724   0.881  0.00  0.00    +0.000 C 
BRANCH  26  27
ATOM     27  C   UNL     1      18.679  -2.959   2.332  0.00  0.00    +0.000 C 
ATOM     28  H   UNL     1      17.656  -2.624   2.527  0.00  0.00    +0.000 HD
ATOM     29  H   UNL     1      18.740  -4.019   2.589  0.00  0.00    +0.000 HD
ATOM     30  H   UNL     1      19.380  -2.398   2.955  0.00  0.00    +0.000 HD
ENDBRANCH  26  27
ENDBRANCH  22  26
ENDBRANCH   4  21
BRANCH   6  31
ATOM     31  C   UNL     1      15.763  -4.714  -1.780  0.00  0.00    +0.000 C 
ATOM     32  H   UNL     1      15.977  -3.884  -1.101  0.00  0.00    +0.000 HD
ATOM     33  H   UNL     1      15.291  -5.535  -1.234  0.00  0.00    +0.000 HD
ATOM     34  H   UNL     1      14.999  -4.372  -2.489  0.00  0.00    +0.000 HD
ENDBRANCH   6  31
TORSDOF 6
ENDMDL
MODEL 9
REMARK VINA RESULT:    -4.920     30.723     32.984
REMARK INTER + INTRA:          -6.201
REMARK INTER:                  -6.113
REMARK INTRA:                  -0.087
REMARK UNBOUND:                -0.130
REMARK  Name = 638014
REMARK  6 active torsions:
REMARK  status: ('A' for Active; 'I' for Inactive)
REMARK    1  A    between atoms: C_2  and  C_8
REMARK    2  A    between atoms: C_2  and  C_9
REMARK    3  A    between atoms: C_5  and  C_10
REMARK    4  A    between atoms: C_7  and  C_11
REMARK    5  A    between atoms: C_12  and  C_13
REMARK    6  A    between atoms: C_13  and  C_14
REMARK                            x       y       z     vdW  Elec       q    Type
REMARK                         _______ _______ _______ _____ _____    ______ ____
ROOT
ATOM      1  C   UNL     1       0.786   3.734 -20.783  0.00  0.00    +0.000 C 
ATOM      2  C   UNL     1      -0.611   3.727 -21.463  0.00  0.00    +0.000 C 
ATOM      3  C   UNL     1      -0.534   4.078 -22.938  0.00  0.00    +0.000 C 
ATOM      4  C   UNL     1       1.618   4.967 -21.205  0.00  0.00    +0.000 C 
ATOM      5  C   UNL     1       0.052   5.470 -23.112  0.00  0.00    +0.000 C 
ATOM      6  C   UNL     1       1.260   5.761 -22.246  0.00  0.00    +0.000 C 
ATOM      7  H   UNL     1      -1.272   4.451 -20.966  0.00  0.00    +0.000 HD
ATOM      8  H   UNL     1      -1.089   2.746 -21.346  0.00  0.00    +0.000 HD
ATOM      9  H   UNL     1      -1.534   4.042 -23.384  0.00  0.00    +0.000 HD
ATOM     10  H   UNL     1       0.074   3.342 -23.477  0.00  0.00    +0.000 HD
ATOM     11  H   UNL     1      -0.720   6.217 -22.886  0.00  0.00    +0.000 HD
ATOM     12  H   UNL     1       0.316   5.597 -24.170  0.00  0.00    +0.000 HD
ENDROOT
BRANCH   1  13
ATOM     13  C   UNL     1       1.542   2.443 -21.174  0.00  0.00    +0.000 C 
ATOM     14  H   UNL     1       1.413   1.652 -20.427  0.00  0.00    +0.000 HD
ATOM     15  H   UNL     1       1.186   2.045 -22.132  0.00  0.00    +0.000 HD
ATOM     16  H   UNL     1       2.616   2.630 -21.282  0.00  0.00    +0.000 HD
ENDBRANCH   1  13
BRANCH   1  17
ATOM     17  C   UNL     1       0.519   3.705 -19.259  0.00  0.00    +0.000 C 
ATOM     18  H   UNL     1      -0.356   4.316 -19.003  0.00  0.00    +0.000 HD
ATOM     19  H   UNL     1       0.307   2.695 -18.892  0.00  0.00    +0.000 HD
ATOM     20  H   UNL     1       1.374   4.100 -18.696  0.00  0.00    +0.000 HD
ENDBRANCH   1  17
BRANCH   4  21
ATOM     21  C   UNL     1       2.825   5.208 -20.429  0.00  0.00    +0.000 C 
ATOM     22  C   UNL     1       2.931   6.220 -19.575  0.00  0.00    +0.000 C 
ATOM     23  H   UNL     1       3.639   4.502 -20.546  0.00  0.00    +0.000 HD
ATOM     24  H   UNL     1       2.167   6.976 -19.440  0.00  0.00    +0.000 HD
BRANCH  22  26
ATOM     25  O   UNL     1       5.242   5.853 -19.126  0.00  0.00    +0.000 OA
ATOM     26  C   UNL     1       4.194   6.413 -18.809  0.00  0.00    +0.000 C 
BRANCH  26  27
ATOM     27  C   UNL     1       4.131   7.320 -17.609  0.00  0.00    +0.000 C 
ATOM     28  H   UNL     1       5.077   7.259 -17.064  0.00  0.00    +0.000 HD
ATOM     29  H   UNL     1       3.979   8.362 -17.902  0.00  0.00    +0.000 HD
ATOM     30  H   UNL     1       3.307   7.005 -16.963  0.00  0.00    +0.000 HD
ENDBRANCH  26  27
ENDBRANCH  22  26
ENDBRANCH   4  21
BRANCH   6  31
ATOM     31  C   UNL     1       1.982   7.012 -22.692  0.00  0.00    +0.000 C 
ATOM     32  H   UNL     1       2.937   6.760 -23.163  0.00  0.00    +0.000 HD
ATOM     33  H   UNL     1       2.139   7.737 -21.889  0.00  0.00    +0.000 HD
ATOM     34  H   UNL     1       1.377   7.544 -23.437  0.00  0.00    +0.000 HD
ENDBRANCH   6  31
TORSDOF 6
ENDMDL
MODEL 10
REMARK VINA RESULT:    -4.813     30.792     32.652
REMARK INTER + INTRA:          -6.069
REMARK INTER:                  -5.939
REMARK INTRA:                  -0.130
REMARK UNBOUND:                -0.130
REMARK  Name = 638014
REMARK  6 active torsions:
REMARK  status: ('A' for Active; 'I' for Inactive)
REMARK    1  A    between atoms: C_2  and  C_8
REMARK    2  A    between atoms: C_2  and  C_9
REMARK    3  A    between atoms: C_5  and  C_10
REMARK    4  A    between atoms: C_7  and  C_11
REMARK    5  A    between atoms: C_12  and  C_13
REMARK    6  A    between atoms: C_13  and  C_14
REMARK                            x       y       z     vdW  Elec       q    Type
REMARK                         _______ _______ _______ _____ _____    ______ ____
ROOT
ATOM      1  C   UNL     1       1.189   4.655 -20.449  0.00  0.00    +0.000 C 
ATOM      2  C   UNL     1       0.183   5.064 -21.561  0.00  0.00    +0.000 C 
ATOM      3  C   UNL     1       0.100   4.030 -22.669  0.00  0.00    +0.000 C 
ATOM      4  C   UNL     1       2.506   4.108 -21.046  0.00  0.00    +0.000 C 
ATOM      5  C   UNL     1       1.462   3.859 -23.325  0.00  0.00    +0.000 C 
ATOM      6  C   UNL     1       2.624   3.775 -22.357  0.00  0.00    +0.000 C 
ATOM      7  H   UNL     1       0.484   6.025 -22.003  0.00  0.00    +0.000 HD
ATOM      8  H   UNL     1      -0.816   5.223 -21.135  0.00  0.00    +0.000 HD
ATOM      9  H   UNL     1      -0.633   4.345 -23.421  0.00  0.00    +0.000 HD
ATOM     10  H   UNL     1      -0.252   3.070 -22.274  0.00  0.00    +0.000 HD
ATOM     11  H   UNL     1       1.642   4.700 -24.005  0.00  0.00    +0.000 HD
ATOM     12  H   UNL     1       1.429   2.952 -23.942  0.00  0.00    +0.000 HD
ENDROOT
BRANCH   1  13
ATOM     13  C   UNL     1       0.537   3.574 -19.556  0.00  0.00    +0.000 C 
ATOM     14  H   UNL     1       0.610   2.577 -20.003  0.00  0.00    +0.000 HD
ATOM     15  H   UNL     1       1.017   3.525 -18.571  0.00  0.00    +0.000 HD
ATOM     16  H   UNL     1      -0.524   3.788 -19.387  0.00  0.00    +0.000 HD
ENDBRANCH   1  13
BRANCH   1  17
ATOM     17  C   UNL     1       1.420   5.925 -19.595  0.00  0.00    +0.000 C 
ATOM     18  H   UNL     1       2.257   5.781 -18.899  0.00  0.00    +0.000 HD
ATOM     19  H   UNL     1       1.675   6.798 -20.207  0.00  0.00    +0.000 HD
ATOM     20  H   UNL     1       0.534   6.173 -18.999  0.00  0.00    +0.000 HD
ENDBRANCH   1  17
BRANCH   4  21
ATOM     21  C   UNL     1       3.604   3.947 -20.107  0.00  0.00    +0.000 C 
ATOM     22  C   UNL     1       4.602   4.821 -20.022  0.00  0.00    +0.000 C 
ATOM     23  H   UNL     1       3.566   3.093 -19.439  0.00  0.00    +0.000 HD
ATOM     24  H   UNL     1       4.713   5.671 -20.683  0.00  0.00    +0.000 HD
BRANCH  22  26
ATOM     25  O   UNL     1       6.588   3.773 -19.226  0.00  0.00    +0.000 OA
ATOM     26  C   UNL     1       5.698   4.600 -19.038  0.00  0.00    +0.000 C 
BRANCH  26  27
ATOM     27  C   UNL     1       5.661   5.429 -17.782  0.00  0.00    +0.000 C 
ATOM     28  H   UNL     1       4.762   5.177 -17.213  0.00  0.00    +0.000 HD
ATOM     29  H   UNL     1       6.527   5.229 -17.145  0.00  0.00    +0.000 HD
ATOM     30  H   UNL     1       5.649   6.488 -18.049  0.00  0.00    +0.000 HD
ENDBRANCH  26  27
ENDBRANCH  22  26
ENDBRANCH   4  21
BRANCH   6  31
ATOM     31  C   UNL     1       3.883   3.284 -23.034  0.00  0.00    +0.000 C 
ATOM     32  H   UNL     1       4.715   3.969 -22.848  0.00  0.00    +0.000 HD
ATOM     33  H   UNL     1       3.767   3.118 -24.108  0.00  0.00    +0.000 HD
ATOM     34  H   UNL     1       4.165   2.305 -22.626  0.00  0.00    +0.000 HD
ENDBRANCH   6  31
TORSDOF 6
ENDMDL
