MODEL 1
REMARK VINA RESULT:    -3.643      0.000      0.000
REMARK INTER + INTRA:          -4.195
REMARK INTER:                  -4.163
REMARK INTRA:                  -0.032
REMARK UNBOUND:                -0.020
REMARK  Name = 261
REMARK  3 active torsions:
REMARK  status: ('A' for Active; 'I' for Inactive)
REMARK    1  A    between atoms: C_2  and  C_3
REMARK    2  A    between atoms: C_2  and  C_4
REMARK    3  A    between atoms: C_3  and  C_5
REMARK                            x       y       z     vdW  Elec       q    Type
REMARK                         _______ _______ _______ _____ _____    ______ ____
ROOT
ATOM      1  C   UNL     1       6.723  -6.679  -9.505  0.00  0.00    +0.000 C 
ATOM      2  H   UNL     1       6.254  -7.643  -9.273  0.00  0.00    +0.000 HD
ATOM      3  H   UNL     1       7.527  -6.883 -10.222  0.00  0.00    +0.000 HD
ENDROOT
BRANCH   1   4
ATOM      4  C   UNL     1       7.320  -6.092  -8.238  0.00  0.00    +0.000 C 
ATOM      5  H   UNL     1       7.878  -6.849  -7.679  0.00  0.00    +0.000 HD
ATOM      6  H   UNL     1       8.009  -5.277  -8.485  0.00  0.00    +0.000 HD
ATOM      7  H   UNL     1       6.538  -5.689  -7.585  0.00  0.00    +0.000 HD
ENDBRANCH   1   4
BRANCH   1   8
ATOM      8  C   UNL     1       5.696  -5.739 -10.127  0.00  0.00    +0.000 C 
ATOM      9  H   UNL     1       5.776  -4.739  -9.690  0.00  0.00    +0.000 HD
ATOM     10  H   UNL     1       5.861  -5.654 -11.207  0.00  0.00    +0.000 HD
BRANCH   8  12
ATOM     11  O   UNL     1       3.965  -7.315  -9.486  0.00  0.00    +0.000 OA
ATOM     12  C   UNL     1       4.277  -6.214  -9.925  0.00  0.00    +0.000 C 
ATOM     13  H   UNL     1       3.499  -5.482 -10.200  0.00  0.00    +0.000 HD
ENDBRANCH   8  12
ENDBRANCH   1   8
TORSDOF 3
ENDMDL
MODEL 2
REMARK VINA RESULT:    -3.120      6.048      6.905
REMARK INTER + INTRA:          -3.596
REMARK INTER:                  -3.566
REMARK INTRA:                  -0.030
REMARK UNBOUND:                -0.020
REMARK  Name = 261
REMARK  3 active torsions:
REMARK  status: ('A' for Active; 'I' for Inactive)
REMARK    1  A    between atoms: C_2  and  C_3
REMARK    2  A    between atoms: C_2  and  C_4
REMARK    3  A    between atoms: C_3  and  C_5
REMARK                            x       y       z     vdW  Elec       q    Type
REMARK                         _______ _______ _______ _____ _____    ______ ____
ROOT
ATOM      1  C   UNL     1       1.320  -5.344  -6.836  0.00  0.00    +0.000 C 
ATOM      2  H   UNL     1       1.666  -4.341  -7.110  0.00  0.00    +0.000 HD
ATOM      3  H   UNL     1       2.155  -6.029  -7.028  0.00  0.00    +0.000 HD
ENDROOT
BRANCH   1   4
ATOM      4  C   UNL     1       0.144  -5.730  -7.716  0.00  0.00    +0.000 C 
ATOM      5  H   UNL     1      -0.806  -5.565  -7.197  0.00  0.00    +0.000 HD
ATOM      6  H   UNL     1       0.139  -5.125  -8.629  0.00  0.00    +0.000 HD
ATOM      7  H   UNL     1       0.199  -6.784  -8.007  0.00  0.00    +0.000 HD
ENDBRANCH   1   4
BRANCH   1   8
ATOM      8  C   UNL     1       0.947  -5.379  -5.358  0.00  0.00    +0.000 C 
ATOM      9  H   UNL     1       1.578  -6.092  -4.818  0.00  0.00    +0.000 HD
ATOM     10  H   UNL     1       1.086  -4.389  -4.906  0.00  0.00    +0.000 HD
BRANCH   8  12
ATOM     11  O   UNL     1      -1.335  -5.075  -4.589  0.00  0.00    +0.000 OA
ATOM     12  C   UNL     1      -0.491  -5.779  -5.132  0.00  0.00    +0.000 C 
ATOM     13  H   UNL     1      -0.757  -6.783  -5.504  0.00  0.00    +0.000 HD
ENDBRANCH   8  12
ENDBRANCH   1   8
TORSDOF 3
ENDMDL
MODEL 3
REMARK VINA RESULT:    -3.110      1.876      2.353
REMARK INTER + INTRA:          -3.585
REMARK INTER:                  -3.558
REMARK INTRA:                  -0.027
REMARK UNBOUND:                -0.020
REMARK  Name = 261
REMARK  3 active torsions:
REMARK  status: ('A' for Active; 'I' for Inactive)
REMARK    1  A    between atoms: C_2  and  C_3
REMARK    2  A    between atoms: C_2  and  C_4
REMARK    3  A    between atoms: C_3  and  C_5
REMARK                            x       y       z     vdW  Elec       q    Type
REMARK                         _______ _______ _______ _____ _____    ______ ____
ROOT
ATOM      1  C   UNL     1       5.741  -7.626  -9.129  0.00  0.00    +0.000 C 
ATOM      2  H   UNL     1       5.856  -8.479  -9.808  0.00  0.00    +0.000 HD
ATOM      3  H   UNL     1       6.316  -7.862  -8.225  0.00  0.00    +0.000 HD
ENDROOT
BRANCH   1   4
ATOM      4  C   UNL     1       4.275  -7.469  -8.762  0.00  0.00    +0.000 C 
ATOM      5  H   UNL     1       3.946  -8.280  -8.105  0.00  0.00    +0.000 HD
ATOM      6  H   UNL     1       4.115  -6.521  -8.238  0.00  0.00    +0.000 HD
ATOM      7  H   UNL     1       3.644  -7.474  -9.657  0.00  0.00    +0.000 HD
ENDBRANCH   1   4
BRANCH   1   8
ATOM      8  C   UNL     1       6.292  -6.364  -9.783  0.00  0.00    +0.000 C 
ATOM      9  H   UNL     1       6.864  -5.774  -9.060  0.00  0.00    +0.000 HD
ATOM     10  H   UNL     1       6.958  -6.625 -10.614  0.00  0.00    +0.000 HD
BRANCH   8  12
ATOM     11  O   UNL     1       5.326  -4.753 -11.320  0.00  0.00    +0.000 OA
ATOM     12  C   UNL     1       5.205  -5.477 -10.339  0.00  0.00    +0.000 C 
ATOM     13  H   UNL     1       4.246  -5.520  -9.793  0.00  0.00    +0.000 HD
ENDBRANCH   8  12
ENDBRANCH   1   8
TORSDOF 3
ENDMDL
MODEL 4
REMARK VINA RESULT:    -3.054     13.126     13.468
REMARK INTER + INTRA:          -3.520
REMARK INTER:                  -3.508
REMARK INTRA:                  -0.013
REMARK UNBOUND:                -0.020
REMARK  Name = 261
REMARK  3 active torsions:
REMARK  status: ('A' for Active; 'I' for Inactive)
REMARK    1  A    between atoms: C_2  and  C_3
REMARK    2  A    between atoms: C_2  and  C_4
REMARK    3  A    between atoms: C_3  and  C_5
REMARK                            x       y       z     vdW  Elec       q    Type
REMARK                         _______ _______ _______ _____ _____    ______ ____
ROOT
ATOM      1  C   UNL     1      17.982  -6.209  -4.091  0.00  0.00    +0.000 C 
ATOM      2  H   UNL     1      18.535  -5.282  -4.286  0.00  0.00    +0.000 HD
ATOM      3  H   UNL     1      18.670  -6.883  -3.567  0.00  0.00    +0.000 HD
ENDROOT
BRANCH   1   4
ATOM      4  C   UNL     1      17.572  -6.838  -5.412  0.00  0.00    +0.000 C 
ATOM      5  H   UNL     1      17.574  -6.097  -6.217  0.00  0.00    +0.000 HD
ATOM      6  H   UNL     1      18.271  -7.637  -5.684  0.00  0.00    +0.000 HD
ATOM      7  H   UNL     1      16.569  -7.273  -5.345  0.00  0.00    +0.000 HD
ENDBRANCH   1   4
BRANCH   1   8
ATOM      8  C   UNL     1      16.771  -5.915  -3.212  0.00  0.00    +0.000 C 
ATOM      9  H   UNL     1      15.850  -5.941  -3.805  0.00  0.00    +0.000 HD
ATOM     10  H   UNL     1      16.686  -6.664  -2.417  0.00  0.00    +0.000 HD
BRANCH   8  12
ATOM     11  O   UNL     1      17.813  -3.806  -2.614  0.00  0.00    +0.000 OA
ATOM     12  C   UNL     1      16.850  -4.561  -2.549  0.00  0.00    +0.000 C 
ATOM     13  H   UNL     1      15.950  -4.269  -1.981  0.00  0.00    +0.000 HD
ENDBRANCH   8  12
ENDBRANCH   1   8
TORSDOF 3
ENDMDL
MODEL 5
REMARK VINA RESULT:    -2.894     20.517     21.132
REMARK INTER + INTRA:          -3.338
REMARK INTER:                  -3.329
REMARK INTRA:                  -0.008
REMARK UNBOUND:                -0.020
REMARK  Name = 261
REMARK  3 active torsions:
REMARK  status: ('A' for Active; 'I' for Inactive)
REMARK    1  A    between atoms: C_2  and  C_3
REMARK    2  A    between atoms: C_2  and  C_4
REMARK    3  A    between atoms: C_3  and  C_5
REMARK                            x       y       z     vdW  Elec       q    Type
REMARK                         _______ _______ _______ _____ _____    ______ ____
ROOT
ATOM      1  C   UNL     1      -7.778 -13.553   6.612  0.00  0.00    +0.000 C 
ATOM      2  H   UNL     1      -6.704 -13.405   6.772  0.00  0.00    +0.000 HD
ATOM      3  H   UNL     1      -8.296 -12.961   7.377  0.00  0.00    +0.000 HD
ENDROOT
BRANCH   1   4
ATOM      4  C   UNL     1      -8.118 -15.022   6.801  0.00  0.00    +0.000 C 
ATOM      5  H   UNL     1      -8.814 -15.366   6.029  0.00  0.00    +0.000 HD
ATOM      6  H   UNL     1      -7.211 -15.632   6.736  0.00  0.00    +0.000 HD
ATOM      7  H   UNL     1      -8.575 -15.197   7.780  0.00  0.00    +0.000 HD
ENDBRANCH   1   4
BRANCH   1   8
ATOM      8  C   UNL     1      -8.168 -13.064   5.222  0.00  0.00    +0.000 C 
ATOM      9  H   UNL     1      -9.031 -13.622   4.845  0.00  0.00    +0.000 HD
ATOM     10  H   UNL     1      -8.435 -12.001   5.253  0.00  0.00    +0.000 HD
BRANCH   8  12
ATOM     11  O   UNL     1      -6.098 -12.454   4.110  0.00  0.00    +0.000 OA
ATOM     12  C   UNL     1      -7.051 -13.218   4.218  0.00  0.00    +0.000 C 
ATOM     13  H   UNL     1      -7.137 -14.099   3.559  0.00  0.00    +0.000 HD
ENDBRANCH   8  12
ENDBRANCH   1   8
TORSDOF 3
ENDMDL
MODEL 6
REMARK VINA RESULT:    -2.871     13.424     14.683
REMARK INTER + INTRA:          -3.311
REMARK INTER:                  -3.296
REMARK INTRA:                  -0.015
REMARK UNBOUND:                -0.020
REMARK  Name = 261
REMARK  3 active torsions:
REMARK  status: ('A' for Active; 'I' for Inactive)
REMARK    1  A    between atoms: C_2  and  C_3
REMARK    2  A    between atoms: C_2  and  C_4
REMARK    3  A    between atoms: C_3  and  C_5
REMARK                            x       y       z     vdW  Elec       q    Type
REMARK                         _______ _______ _______ _____ _____    ______ ____
ROOT
ATOM      1  C   UNL     1      17.914  -6.077  -4.178  0.00  0.00    +0.000 C 
ATOM      2  H   UNL     1      17.295  -6.414  -3.339  0.00  0.00    +0.000 HD
ATOM      3  H   UNL     1      17.690  -5.014  -4.329  0.00  0.00    +0.000 HD
ENDROOT
BRANCH   1   4
ATOM      4  C   UNL     1      17.533  -6.851  -5.428  0.00  0.00    +0.000 C 
ATOM      5  H   UNL     1      17.976  -7.852  -5.421  0.00  0.00    +0.000 HD
ATOM      6  H   UNL     1      16.445  -6.963  -5.489  0.00  0.00    +0.000 HD
ATOM      7  H   UNL     1      17.871  -6.331  -6.331  0.00  0.00    +0.000 HD
ENDBRANCH   1   4
BRANCH   1   8
ATOM      8  C   UNL     1      19.390  -6.255  -3.839  0.00  0.00    +0.000 C 
ATOM      9  H   UNL     1      19.513  -6.515  -2.783  0.00  0.00    +0.000 HD
ATOM     10  H   UNL     1      19.825  -7.059  -4.442  0.00  0.00    +0.000 HD
BRANCH   8  12
ATOM     11  O   UNL     1      19.821  -3.866  -3.863  0.00  0.00    +0.000 OA
ATOM     12  C   UNL     1      20.200  -5.008  -4.099  0.00  0.00    +0.000 C 
ATOM     13  H   UNL     1      21.201  -5.185  -4.528  0.00  0.00    +0.000 HD
ENDBRANCH   8  12
ENDBRANCH   1   8
TORSDOF 3
ENDMDL
MODEL 7
REMARK VINA RESULT:    -2.706     25.414     25.726
REMARK INTER + INTRA:          -3.121
REMARK INTER:                  -3.119
REMARK INTRA:                  -0.002
REMARK UNBOUND:                -0.020
REMARK  Name = 261
REMARK  3 active torsions:
REMARK  status: ('A' for Active; 'I' for Inactive)
REMARK    1  A    between atoms: C_2  and  C_3
REMARK    2  A    between atoms: C_2  and  C_4
REMARK    3  A    between atoms: C_3  and  C_5
REMARK                            x       y       z     vdW  Elec       q    Type
REMARK                         _______ _______ _______ _____ _____    ______ ____
ROOT
ATOM      1  C   UNL     1      12.907  17.709 -10.940  0.00  0.00    +0.000 C 
ATOM      2  H   UNL     1      13.873  18.211 -11.070  0.00  0.00    +0.000 HD
ATOM      3  H   UNL     1      12.832  17.436  -9.880  0.00  0.00    +0.000 HD
ENDROOT
BRANCH   1   4
ATOM      4  C   UNL     1      12.878  16.446 -11.785  0.00  0.00    +0.000 C 
ATOM      5  H   UNL     1      13.311  16.626 -12.774  0.00  0.00    +0.000 HD
ATOM      6  H   UNL     1      13.458  15.653 -11.301  0.00  0.00    +0.000 HD
ATOM      7  H   UNL     1      11.853  16.085 -11.917  0.00  0.00    +0.000 HD
ENDBRANCH   1   4
BRANCH   1   8
ATOM      8  C   UNL     1      11.774  18.658 -11.315  0.00  0.00    +0.000 C 
ATOM      9  H   UNL     1      12.064  19.286 -12.164  0.00  0.00    +0.000 HD
ATOM     10  H   UNL     1      10.880  18.091 -11.600  0.00  0.00    +0.000 HD
BRANCH   8  12
ATOM     11  O   UNL     1      10.233  19.780  -9.813  0.00  0.00    +0.000 OA
ATOM     12  C   UNL     1      11.384  19.573 -10.180  0.00  0.00    +0.000 C 
ATOM     13  H   UNL     1      12.230  20.065  -9.669  0.00  0.00    +0.000 HD
ENDBRANCH   8  12
ENDBRANCH   1   8
TORSDOF 3
ENDMDL
MODEL 8
REMARK VINA RESULT:    -2.666     17.934     18.833
REMARK INTER + INTRA:          -3.075
REMARK INTER:                  -3.055
REMARK INTRA:                  -0.020
REMARK UNBOUND:                -0.020
REMARK  Name = 261
REMARK  3 active torsions:
REMARK  status: ('A' for Active; 'I' for Inactive)
REMARK    1  A    between atoms: C_2  and  C_3
REMARK    2  A    between atoms: C_2  and  C_4
REMARK    3  A    between atoms: C_3  and  C_5
REMARK                            x       y       z     vdW  Elec       q    Type
REMARK                         _______ _______ _______ _____ _____    ______ ____
ROOT
ATOM      1  C   UNL     1      17.010   8.050  -2.438  0.00  0.00    +0.000 C 
ATOM      2  H   UNL     1      17.177   8.343  -1.395  0.00  0.00    +0.000 HD
ATOM      3  H   UNL     1      16.981   6.953  -2.458  0.00  0.00    +0.000 HD
ENDROOT
BRANCH   1   4
ATOM      4  C   UNL     1      18.172   8.535  -3.289  0.00  0.00    +0.000 C 
ATOM      5  H   UNL     1      18.400   9.585  -3.080  0.00  0.00    +0.000 HD
ATOM      6  H   UNL     1      19.069   7.945  -3.078  0.00  0.00    +0.000 HD
ATOM      7  H   UNL     1      17.945   8.437  -4.356  0.00  0.00    +0.000 HD
ENDBRANCH   1   4
BRANCH   1   8
ATOM      8  C   UNL     1      15.683   8.615  -2.930  0.00  0.00    +0.000 C 
ATOM      9  H   UNL     1      15.201   9.205  -2.143  0.00  0.00    +0.000 HD
ATOM     10  H   UNL     1      15.843   9.268  -3.796  0.00  0.00    +0.000 HD
BRANCH   8  12
ATOM     11  O   UNL     1      14.844   6.344  -3.103  0.00  0.00    +0.000 OA
ATOM     12  C   UNL     1      14.713   7.538  -3.351  0.00  0.00    +0.000 C 
ATOM     13  H   UNL     1      13.836   7.897  -3.916  0.00  0.00    +0.000 HD
ENDBRANCH   8  12
ENDBRANCH   1   8
TORSDOF 3
ENDMDL
MODEL 9
REMARK VINA RESULT:    -2.649     12.974     13.845
REMARK INTER + INTRA:          -3.056
REMARK INTER:                  -3.040
REMARK INTRA:                  -0.016
REMARK UNBOUND:                -0.020
REMARK  Name = 261
REMARK  3 active torsions:
REMARK  status: ('A' for Active; 'I' for Inactive)
REMARK    1  A    between atoms: C_2  and  C_3
REMARK    2  A    between atoms: C_2  and  C_4
REMARK    3  A    between atoms: C_3  and  C_5
REMARK                            x       y       z     vdW  Elec       q    Type
REMARK                         _______ _______ _______ _____ _____    ______ ____
ROOT
ATOM      1  C   UNL     1      15.757  -4.881  -2.372  0.00  0.00    +0.000 C 
ATOM      2  H   UNL     1      14.896  -4.248  -2.129  0.00  0.00    +0.000 HD
ATOM      3  H   UNL     1      15.964  -4.737  -3.440  0.00  0.00    +0.000 HD
ENDROOT
BRANCH   1   4
ATOM      4  C   UNL     1      15.399  -6.336  -2.123  0.00  0.00    +0.000 C 
ATOM      5  H   UNL     1      14.456  -6.420  -1.574  0.00  0.00    +0.000 HD
ATOM      6  H   UNL     1      15.286  -6.867  -3.074  0.00  0.00    +0.000 HD
ATOM      7  H   UNL     1      16.181  -6.840  -1.544  0.00  0.00    +0.000 HD
ENDBRANCH   1   4
BRANCH   1   8
ATOM      8  C   UNL     1      16.965  -4.453  -1.546  0.00  0.00    +0.000 C 
ATOM      9  H   UNL     1      16.660  -3.781  -0.737  0.00  0.00    +0.000 HD
ATOM     10  H   UNL     1      17.449  -5.328  -1.097  0.00  0.00    +0.000 HD
BRANCH   8  12
ATOM     11  O   UNL     1      18.708  -4.263  -3.224  0.00  0.00    +0.000 OA
ATOM     12  C   UNL     1      18.007  -3.735  -2.369  0.00  0.00    +0.000 C 
ATOM     13  H   UNL     1      18.104  -2.657  -2.156  0.00  0.00    +0.000 HD
ENDBRANCH   8  12
ENDBRANCH   1   8
TORSDOF 3
ENDMDL
MODEL 10
REMARK VINA RESULT:    -2.615     11.744     12.959
REMARK INTER + INTRA:          -3.017
REMARK INTER:                  -2.982
REMARK INTRA:                  -0.035
REMARK UNBOUND:                -0.020
REMARK  Name = 261
REMARK  3 active torsions:
REMARK  status: ('A' for Active; 'I' for Inactive)
REMARK    1  A    between atoms: C_2  and  C_3
REMARK    2  A    between atoms: C_2  and  C_4
REMARK    3  A    between atoms: C_3  and  C_5
REMARK                            x       y       z     vdW  Elec       q    Type
REMARK                         _______ _______ _______ _____ _____    ______ ____
ROOT
ATOM      1  C   UNL     1      -6.317  -8.477 -11.703  0.00  0.00    +0.000 C 
ATOM      2  H   UNL     1      -7.207  -7.946 -11.345  0.00  0.00    +0.000 HD
ATOM      3  H   UNL     1      -6.147  -9.311 -11.012  0.00  0.00    +0.000 HD
ENDROOT
BRANCH   1   4
ATOM      4  C   UNL     1      -5.122  -7.539 -11.661  0.00  0.00    +0.000 C 
ATOM      5  H   UNL     1      -5.438  -6.496 -11.761  0.00  0.00    +0.000 HD
ATOM      6  H   UNL     1      -4.592  -7.643 -10.708  0.00  0.00    +0.000 HD
ATOM      7  H   UNL     1      -4.417  -7.765 -12.467  0.00  0.00    +0.000 HD
ENDBRANCH   1   4
BRANCH   1   8
ATOM      8  C   UNL     1      -6.560  -9.008 -13.111  0.00  0.00    +0.000 C 
ATOM      9  H   UNL     1      -5.677  -8.853 -13.739  0.00  0.00    +0.000 HD
ATOM     10  H   UNL     1      -6.773 -10.083 -13.081  0.00  0.00    +0.000 HD
BRANCH   8  12
ATOM     11  O   UNL     1      -7.875  -7.123 -13.892  0.00  0.00    +0.000 OA
ATOM     12  C   UNL     1      -7.728  -8.336 -13.792  0.00  0.00    +0.000 C 
ATOM     13  H   UNL     1      -8.475  -9.026 -14.220  0.00  0.00    +0.000 HD
ENDBRANCH   8  12
ENDBRANCH   1   8
TORSDOF 3
ENDMDL
