MODEL 1
REMARK VINA RESULT:    -4.876      0.000      0.000
REMARK INTER + INTRA:          -7.074
REMARK INTER:                  -6.958
REMARK INTRA:                  -0.116
REMARK UNBOUND:                -0.203
REMARK  Name = 7983
REMARK  8 active torsions:
REMARK  status: ('A' for Active; 'I' for Inactive)
REMARK    1  A    between atoms: O_1  and  C_5
REMARK    2  A    between atoms: O_1  and  C_9
REMARK    3  A    between atoms: C_3  and  C_4
REMARK    4  A    between atoms: C_3  and  C_5
REMARK    5  A    between atoms: C_4  and  C_8
REMARK    6  A    between atoms: C_6  and  C_7
REMARK    7  A    between atoms: C_6  and  C_9
REMARK    8  A    between atoms: C_7  and  C_10
REMARK                            x       y       z     vdW  Elec       q    Type
REMARK                         _______ _______ _______ _____ _____    ______ ____
ROOT
ATOM      1  O   UNL     1       2.734  -6.054  -8.424  0.00  0.00    +0.000 OA
ENDROOT
BRANCH   1   2
ATOM      2  C   UNL     1       3.934  -6.797  -8.192  0.00  0.00    +0.000 C 
ATOM      3  H   UNL     1       3.678  -7.767  -7.748  0.00  0.00    +0.000 HD
ATOM      4  H   UNL     1       4.576  -6.242  -7.498  0.00  0.00    +0.000 HD
BRANCH   2   5
ATOM      5  C   UNL     1       4.650  -7.003  -9.519  0.00  0.00    +0.000 C 
ATOM      6  H   UNL     1       3.922  -6.944 -10.338  0.00  0.00    +0.000 HD
ATOM      7  H   UNL     1       5.059  -8.021  -9.554  0.00  0.00    +0.000 HD
BRANCH   5   8
ATOM      8  C   UNL     1       5.762  -5.979  -9.724  0.00  0.00    +0.000 C 
ATOM      9  H   UNL     1       5.354  -4.964  -9.646  0.00  0.00    +0.000 HD
ATOM     10  H   UNL     1       6.184  -6.082 -10.730  0.00  0.00    +0.000 HD
BRANCH   8  11
ATOM     11  C   UNL     1       6.871  -6.148  -8.697  0.00  0.00    +0.000 C 
ATOM     12  H   UNL     1       7.095  -5.198  -8.202  0.00  0.00    +0.000 HD
ATOM     13  H   UNL     1       6.589  -6.876  -7.932  0.00  0.00    +0.000 HD
ATOM     14  H   UNL     1       7.786  -6.502  -9.182  0.00  0.00    +0.000 HD
ENDBRANCH   8  11
ENDBRANCH   5   8
ENDBRANCH   2   5
ENDBRANCH   1   2
BRANCH   1  16
ATOM     15  O   UNL     1       2.380  -5.872  -6.151  0.00  0.00    +0.000 OA
ATOM     16  C   UNL     1       2.005  -5.751  -7.309  0.00  0.00    +0.000 C 
BRANCH  16  17
ATOM     17  C   UNL     1       0.648  -5.238  -7.737  0.00  0.00    +0.000 C 
ATOM     18  H   UNL     1       0.574  -4.185  -7.443  0.00  0.00    +0.000 HD
ATOM     19  H   UNL     1       0.583  -5.310  -8.828  0.00  0.00    +0.000 HD
BRANCH  17  20
ATOM     20  C   UNL     1      -0.490  -6.032  -7.101  0.00  0.00    +0.000 C 
ATOM     21  H   UNL     1      -1.309  -6.154  -7.821  0.00  0.00    +0.000 HD
ATOM     22  H   UNL     1      -0.145  -7.040  -6.841  0.00  0.00    +0.000 HD
BRANCH  20  23
ATOM     23  C   UNL     1      -1.017  -5.346  -5.851  0.00  0.00    +0.000 C 
ATOM     24  H   UNL     1      -0.447  -4.433  -5.649  0.00  0.00    +0.000 HD
ATOM     25  H   UNL     1      -2.070  -5.068  -5.971  0.00  0.00    +0.000 HD
ATOM     26  H   UNL     1      -0.931  -5.999  -4.978  0.00  0.00    +0.000 HD
ENDBRANCH  20  23
ENDBRANCH  17  20
ENDBRANCH  16  17
ENDBRANCH   1  16
TORSDOF 8
ENDMDL
MODEL 2
REMARK VINA RESULT:    -4.723      4.518      6.496
REMARK INTER + INTRA:          -6.858
REMARK INTER:                  -6.731
REMARK INTRA:                  -0.127
REMARK UNBOUND:                -0.203
REMARK  Name = 7983
REMARK  8 active torsions:
REMARK  status: ('A' for Active; 'I' for Inactive)
REMARK    1  A    between atoms: O_1  and  C_5
REMARK    2  A    between atoms: O_1  and  C_9
REMARK    3  A    between atoms: C_3  and  C_4
REMARK    4  A    between atoms: C_3  and  C_5
REMARK    5  A    between atoms: C_4  and  C_8
REMARK    6  A    between atoms: C_6  and  C_7
REMARK    7  A    between atoms: C_6  and  C_9
REMARK    8  A    between atoms: C_7  and  C_10
REMARK                            x       y       z     vdW  Elec       q    Type
REMARK                         _______ _______ _______ _____ _____    ______ ____
ROOT
ATOM      1  O   UNL     1       3.421  -5.242 -12.341  0.00  0.00    +0.000 OA
ENDROOT
BRANCH   1   2
ATOM      2  C   UNL     1       3.214  -4.621 -13.613  0.00  0.00    +0.000 C 
ATOM      3  H   UNL     1       4.093  -4.015 -13.866  0.00  0.00    +0.000 HD
ATOM      4  H   UNL     1       2.332  -3.973 -13.561  0.00  0.00    +0.000 HD
BRANCH   2   5
ATOM      5  C   UNL     1       3.006  -5.705 -14.662  0.00  0.00    +0.000 C 
ATOM      6  H   UNL     1       3.143  -6.690 -14.199  0.00  0.00    +0.000 HD
ATOM      7  H   UNL     1       3.789  -5.622 -15.427  0.00  0.00    +0.000 HD
BRANCH   5   8
ATOM      8  C   UNL     1       1.626  -5.608 -15.306  0.00  0.00    +0.000 C 
ATOM      9  H   UNL     1       0.884  -6.110 -14.674  0.00  0.00    +0.000 HD
ATOM     10  H   UNL     1       1.629  -6.123 -16.273  0.00  0.00    +0.000 HD
BRANCH   8  11
ATOM     11  C   UNL     1       1.207  -4.161 -15.511  0.00  0.00    +0.000 C 
ATOM     12  H   UNL     1       1.473  -3.814 -16.514  0.00  0.00    +0.000 HD
ATOM     13  H   UNL     1       0.128  -4.043 -15.381  0.00  0.00    +0.000 HD
ATOM     14  H   UNL     1       1.710  -3.514 -14.784  0.00  0.00    +0.000 HD
ENDBRANCH   8  11
ENDBRANCH   5   8
ENDBRANCH   2   5
ENDBRANCH   1   2
BRANCH   1  16
ATOM     15  O   UNL     1       5.275  -3.916 -11.988  0.00  0.00    +0.000 OA
ATOM     16  C   UNL     1       4.524  -4.822 -11.654  0.00  0.00    +0.000 C 
BRANCH  16  17
ATOM     17  C   UNL     1       4.670  -5.659 -10.404  0.00  0.00    +0.000 C 
ATOM     18  H   UNL     1       3.966  -5.279  -9.654  0.00  0.00    +0.000 HD
ATOM     19  H   UNL     1       4.404  -6.693 -10.651  0.00  0.00    +0.000 HD
BRANCH  17  20
ATOM     20  C   UNL     1       6.090  -5.613  -9.847  0.00  0.00    +0.000 C 
ATOM     21  H   UNL     1       6.809  -5.879 -10.632  0.00  0.00    +0.000 HD
ATOM     22  H   UNL     1       6.335  -4.593  -9.528  0.00  0.00    +0.000 HD
BRANCH  20  23
ATOM     23  C   UNL     1       6.259  -6.560  -8.669  0.00  0.00    +0.000 C 
ATOM     24  H   UNL     1       7.041  -7.296  -8.883  0.00  0.00    +0.000 HD
ATOM     25  H   UNL     1       6.546  -6.013  -7.765  0.00  0.00    +0.000 HD
ATOM     26  H   UNL     1       5.330  -7.101  -8.464  0.00  0.00    +0.000 HD
ENDBRANCH  20  23
ENDBRANCH  17  20
ENDBRANCH  16  17
ENDBRANCH   1  16
TORSDOF 8
ENDMDL
MODEL 3
REMARK VINA RESULT:    -4.427      2.683      5.226
REMARK INTER + INTRA:          -6.441
REMARK INTER:                  -6.114
REMARK INTRA:                  -0.328
REMARK UNBOUND:                -0.203
REMARK  Name = 7983
REMARK  8 active torsions:
REMARK  status: ('A' for Active; 'I' for Inactive)
REMARK    1  A    between atoms: O_1  and  C_5
REMARK    2  A    between atoms: O_1  and  C_9
REMARK    3  A    between atoms: C_3  and  C_4
REMARK    4  A    between atoms: C_3  and  C_5
REMARK    5  A    between atoms: C_4  and  C_8
REMARK    6  A    between atoms: C_6  and  C_7
REMARK    7  A    between atoms: C_6  and  C_9
REMARK    8  A    between atoms: C_7  and  C_10
REMARK                            x       y       z     vdW  Elec       q    Type
REMARK                         _______ _______ _______ _____ _____    ______ ____
ROOT
ATOM      1  O   UNL     1      -0.369  -4.917  -7.163  0.00  0.00    +0.000 OA
ENDROOT
BRANCH   1   2
ATOM      2  C   UNL     1      -0.820  -3.560  -7.220  0.00  0.00    +0.000 C 
ATOM      3  H   UNL     1      -0.702  -3.099  -6.231  0.00  0.00    +0.000 HD
ATOM      4  H   UNL     1      -1.879  -3.542  -7.502  0.00  0.00    +0.000 HD
BRANCH   2   5
ATOM      5  C   UNL     1       0.010  -2.808  -8.250  0.00  0.00    +0.000 C 
ATOM      6  H   UNL     1      -0.613  -2.583  -9.126  0.00  0.00    +0.000 HD
ATOM      7  H   UNL     1       0.813  -3.462  -8.614  0.00  0.00    +0.000 HD
BRANCH   5   8
ATOM      8  C   UNL     1       0.596  -1.523  -7.673  0.00  0.00    +0.000 C 
ATOM      9  H   UNL     1       1.487  -1.230  -8.240  0.00  0.00    +0.000 HD
ATOM     10  H   UNL     1       0.912  -1.690  -6.637  0.00  0.00    +0.000 HD
BRANCH   8  11
ATOM     11  C   UNL     1      -0.413  -0.386  -7.711  0.00  0.00    +0.000 C 
ATOM     12  H   UNL     1      -1.218  -0.599  -8.421  0.00  0.00    +0.000 HD
ATOM     13  H   UNL     1      -0.858  -0.223  -6.725  0.00  0.00    +0.000 HD
ATOM     14  H   UNL     1       0.076   0.544  -8.021  0.00  0.00    +0.000 HD
ENDBRANCH   8  11
ENDBRANCH   5   8
ENDBRANCH   2   5
ENDBRANCH   1   2
BRANCH   1  16
ATOM     15  O   UNL     1      -0.261  -5.427  -4.916  0.00  0.00    +0.000 OA
ATOM     16  C   UNL     1       0.267  -5.277  -6.009  0.00  0.00    +0.000 C 
BRANCH  16  17
ATOM     17  C   UNL     1       1.739  -5.465  -6.300  0.00  0.00    +0.000 C 
ATOM     18  H   UNL     1       2.234  -4.493  -6.192  0.00  0.00    +0.000 HD
ATOM     19  H   UNL     1       2.149  -6.158  -5.558  0.00  0.00    +0.000 HD
BRANCH  17  20
ATOM     20  C   UNL     1       1.980  -6.013  -7.704  0.00  0.00    +0.000 C 
ATOM     21  H   UNL     1       1.163  -6.688  -7.987  0.00  0.00    +0.000 HD
ATOM     22  H   UNL     1       1.977  -5.193  -8.432  0.00  0.00    +0.000 HD
BRANCH  20  23
ATOM     23  C   UNL     1       3.302  -6.757  -7.793  0.00  0.00    +0.000 C 
ATOM     24  H   UNL     1       3.128  -7.813  -8.024  0.00  0.00    +0.000 HD
ATOM     25  H   UNL     1       3.936  -6.338  -8.581  0.00  0.00    +0.000 HD
ATOM     26  H   UNL     1       3.848  -6.702  -6.847  0.00  0.00    +0.000 HD
ENDBRANCH  20  23
ENDBRANCH  17  20
ENDBRANCH  16  17
ENDBRANCH   1  16
TORSDOF 8
ENDMDL
MODEL 4
REMARK VINA RESULT:    -4.112     15.067     17.964
REMARK INTER + INTRA:          -5.998
REMARK INTER:                  -5.752
REMARK INTRA:                  -0.246
REMARK UNBOUND:                -0.203
REMARK  Name = 7983
REMARK  8 active torsions:
REMARK  status: ('A' for Active; 'I' for Inactive)
REMARK    1  A    between atoms: O_1  and  C_5
REMARK    2  A    between atoms: O_1  and  C_9
REMARK    3  A    between atoms: C_3  and  C_4
REMARK    4  A    between atoms: C_3  and  C_5
REMARK    5  A    between atoms: C_4  and  C_8
REMARK    6  A    between atoms: C_6  and  C_7
REMARK    7  A    between atoms: C_6  and  C_9
REMARK    8  A    between atoms: C_7  and  C_10
REMARK                            x       y       z     vdW  Elec       q    Type
REMARK                         _______ _______ _______ _____ _____    ______ ____
ROOT
ATOM      1  O   UNL     1      -7.320 -12.837   4.064  0.00  0.00    +0.000 OA
ENDROOT
BRANCH   1   2
ATOM      2  C   UNL     1      -7.381 -13.166   5.454  0.00  0.00    +0.000 C 
ATOM      3  H   UNL     1      -7.800 -12.317   6.009  0.00  0.00    +0.000 HD
ATOM      4  H   UNL     1      -6.370 -13.374   5.823  0.00  0.00    +0.000 HD
BRANCH   2   5
ATOM      5  C   UNL     1      -8.266 -14.393   5.631  0.00  0.00    +0.000 C 
ATOM      6  H   UNL     1      -8.026 -15.129   4.853  0.00  0.00    +0.000 HD
ATOM      7  H   UNL     1      -9.312 -14.110   5.464  0.00  0.00    +0.000 HD
BRANCH   5   8
ATOM      8  C   UNL     1      -8.100 -15.012   7.015  0.00  0.00    +0.000 C 
ATOM      9  H   UNL     1      -8.641 -14.416   7.759  0.00  0.00    +0.000 HD
ATOM     10  H   UNL     1      -7.042 -15.006   7.302  0.00  0.00    +0.000 HD
BRANCH   8  11
ATOM     11  C   UNL     1      -8.619 -16.441   7.052  0.00  0.00    +0.000 C 
ATOM     12  H   UNL     1      -9.703 -16.468   6.906  0.00  0.00    +0.000 HD
ATOM     13  H   UNL     1      -8.151 -17.048   6.271  0.00  0.00    +0.000 HD
ATOM     14  H   UNL     1      -8.395 -16.901   8.020  0.00  0.00    +0.000 HD
ENDBRANCH   8  11
ENDBRANCH   5   8
ENDBRANCH   2   5
ENDBRANCH   1   2
BRANCH   1  16
ATOM     15  O   UNL     1      -5.149 -12.081   3.871  0.00  0.00    +0.000 OA
ATOM     16  C   UNL     1      -6.067 -12.810   3.521  0.00  0.00    +0.000 C 
BRANCH  16  17
ATOM     17  C   UNL     1      -5.993 -13.833   2.410  0.00  0.00    +0.000 C 
ATOM     18  H   UNL     1      -5.156 -13.565   1.755  0.00  0.00    +0.000 HD
ATOM     19  H   UNL     1      -5.796 -14.812   2.859  0.00  0.00    +0.000 HD
BRANCH  17  20
ATOM     20  C   UNL     1      -7.284 -13.890   1.598  0.00  0.00    +0.000 C 
ATOM     21  H   UNL     1      -7.671 -14.916   1.583  0.00  0.00    +0.000 HD
ATOM     22  H   UNL     1      -8.054 -13.270   2.073  0.00  0.00    +0.000 HD
BRANCH  20  23
ATOM     23  C   UNL     1      -7.068 -13.413   0.171  0.00  0.00    +0.000 C 
ATOM     24  H   UNL     1      -7.974 -12.931  -0.209  0.00  0.00    +0.000 HD
ATOM     25  H   UNL     1      -6.251 -12.686   0.121  0.00  0.00    +0.000 HD
ATOM     26  H   UNL     1      -6.825 -14.249  -0.490  0.00  0.00    +0.000 HD
ENDBRANCH  20  23
ENDBRANCH  17  20
ENDBRANCH  16  17
ENDBRANCH   1  16
TORSDOF 8
ENDMDL
MODEL 5
REMARK VINA RESULT:    -4.048      6.109      7.805
REMARK INTER + INTRA:          -5.907
REMARK INTER:                  -5.694
REMARK INTRA:                  -0.214
REMARK UNBOUND:                -0.203
REMARK  Name = 7983
REMARK  8 active torsions:
REMARK  status: ('A' for Active; 'I' for Inactive)
REMARK    1  A    between atoms: O_1  and  C_5
REMARK    2  A    between atoms: O_1  and  C_9
REMARK    3  A    between atoms: C_3  and  C_4
REMARK    4  A    between atoms: C_3  and  C_5
REMARK    5  A    between atoms: C_4  and  C_8
REMARK    6  A    between atoms: C_6  and  C_7
REMARK    7  A    between atoms: C_6  and  C_9
REMARK    8  A    between atoms: C_7  and  C_10
REMARK                            x       y       z     vdW  Elec       q    Type
REMARK                         _______ _______ _______ _____ _____    ______ ____
ROOT
ATOM      1  O   UNL     1       2.484  -5.760 -14.042  0.00  0.00    +0.000 OA
ENDROOT
BRANCH   1   2
ATOM      2  C   UNL     1       1.284  -4.996 -14.189  0.00  0.00    +0.000 C 
ATOM      3  H   UNL     1       1.406  -4.031 -13.681  0.00  0.00    +0.000 HD
ATOM      4  H   UNL     1       0.449  -5.541 -13.732  0.00  0.00    +0.000 HD
BRANCH   2   5
ATOM      5  C   UNL     1       1.018  -4.777 -15.672  0.00  0.00    +0.000 C 
ATOM      6  H   UNL     1       0.248  -5.482 -16.011  0.00  0.00    +0.000 HD
ATOM      7  H   UNL     1       1.923  -5.024 -16.241  0.00  0.00    +0.000 HD
BRANCH   5   8
ATOM      8  C   UNL     1       0.587  -3.343 -15.961  0.00  0.00    +0.000 C 
ATOM      9  H   UNL     1       1.406  -2.796 -16.442  0.00  0.00    +0.000 HD
ATOM     10  H   UNL     1       0.359  -2.825 -15.022  0.00  0.00    +0.000 HD
BRANCH   8  11
ATOM     11  C   UNL     1      -0.636  -3.300 -16.864  0.00  0.00    +0.000 C 
ATOM     12  H   UNL     1      -1.158  -2.342 -16.773  0.00  0.00    +0.000 HD
ATOM     13  H   UNL     1      -0.354  -3.440 -17.912  0.00  0.00    +0.000 HD
ATOM     14  H   UNL     1      -1.337  -4.096 -16.591  0.00  0.00    +0.000 HD
ENDBRANCH   8  11
ENDBRANCH   5   8
ENDBRANCH   2   5
ENDBRANCH   1   2
BRANCH   1  16
ATOM     15  O   UNL     1       4.516  -4.828 -14.610  0.00  0.00    +0.000 OA
ATOM     16  C   UNL     1       3.618  -5.035 -13.807  0.00  0.00    +0.000 C 
BRANCH  16  17
ATOM     17  C   UNL     1       3.585  -4.523 -12.384  0.00  0.00    +0.000 C 
ATOM     18  H   UNL     1       3.049  -3.567 -12.378  0.00  0.00    +0.000 HD
ATOM     19  H   UNL     1       3.034  -5.246 -11.773  0.00  0.00    +0.000 HD
BRANCH  17  20
ATOM     20  C   UNL     1       4.988  -4.331 -11.813  0.00  0.00    +0.000 C 
ATOM     21  H   UNL     1       5.735  -4.454 -12.607  0.00  0.00    +0.000 HD
ATOM     22  H   UNL     1       5.100  -3.309 -11.430  0.00  0.00    +0.000 HD
BRANCH  20  23
ATOM     23  C   UNL     1       5.275  -5.319 -10.695  0.00  0.00    +0.000 C 
ATOM     24  H   UNL     1       5.616  -4.790  -9.799  0.00  0.00    +0.000 HD
ATOM     25  H   UNL     1       4.376  -5.886 -10.432  0.00  0.00    +0.000 HD
ATOM     26  H   UNL     1       6.055  -6.028 -10.987  0.00  0.00    +0.000 HD
ENDBRANCH  20  23
ENDBRANCH  17  20
ENDBRANCH  16  17
ENDBRANCH   1  16
TORSDOF 8
ENDMDL
MODEL 6
REMARK VINA RESULT:    -3.958     16.233     17.192
REMARK INTER + INTRA:          -5.780
REMARK INTER:                  -5.091
REMARK INTRA:                  -0.689
REMARK UNBOUND:                -0.203
REMARK  Name = 7983
REMARK  8 active torsions:
REMARK  status: ('A' for Active; 'I' for Inactive)
REMARK    1  A    between atoms: O_1  and  C_5
REMARK    2  A    between atoms: O_1  and  C_9
REMARK    3  A    between atoms: C_3  and  C_4
REMARK    4  A    between atoms: C_3  and  C_5
REMARK    5  A    between atoms: C_4  and  C_8
REMARK    6  A    between atoms: C_6  and  C_7
REMARK    7  A    between atoms: C_6  and  C_9
REMARK    8  A    between atoms: C_7  and  C_10
REMARK                            x       y       z     vdW  Elec       q    Type
REMARK                         _______ _______ _______ _____ _____    ______ ____
ROOT
ATOM      1  O   UNL     1      -0.925   3.134 -21.114  0.00  0.00    +0.000 OA
ENDROOT
BRANCH   1   2
ATOM      2  C   UNL     1      -0.013   3.013 -20.020  0.00  0.00    +0.000 C 
ATOM      3  H   UNL     1       0.567   2.088 -20.134  0.00  0.00    +0.000 HD
ATOM      4  H   UNL     1      -0.577   2.971 -19.080  0.00  0.00    +0.000 HD
BRANCH   2   5
ATOM      5  C   UNL     1       0.918   4.217 -20.019  0.00  0.00    +0.000 C 
ATOM      6  H   UNL     1       0.957   4.645 -19.009  0.00  0.00    +0.000 HD
ATOM      7  H   UNL     1       0.495   5.001 -20.660  0.00  0.00    +0.000 HD
BRANCH   5   8
ATOM      8  C   UNL     1       2.320   3.846 -20.491  0.00  0.00    +0.000 C 
ATOM      9  H   UNL     1       3.066   4.438 -19.950  0.00  0.00    +0.000 HD
ATOM     10  H   UNL     1       2.430   4.082 -21.556  0.00  0.00    +0.000 HD
BRANCH   8  11
ATOM     11  C   UNL     1       2.608   2.368 -20.275  0.00  0.00    +0.000 C 
ATOM     12  H   UNL     1       1.725   1.850 -19.886  0.00  0.00    +0.000 HD
ATOM     13  H   UNL     1       2.905   1.886 -21.211  0.00  0.00    +0.000 HD
ATOM     14  H   UNL     1       3.421   2.242 -19.554  0.00  0.00    +0.000 HD
ENDBRANCH   8  11
ENDBRANCH   5   8
ENDBRANCH   2   5
ENDBRANCH   1   2
BRANCH   1  16
ATOM     15  O   UNL     1      -0.169   1.251 -22.211  0.00  0.00    +0.000 OA
ATOM     16  C   UNL     1      -0.625   2.386 -22.217  0.00  0.00    +0.000 C 
BRANCH  16  17
ATOM     17  C   UNL     1      -0.948   3.189 -23.456  0.00  0.00    +0.000 C 
ATOM     18  H   UNL     1      -0.687   2.584 -24.332  0.00  0.00    +0.000 HD
ATOM     19  H   UNL     1      -2.026   3.385 -23.466  0.00  0.00    +0.000 HD
BRANCH  17  20
ATOM     20  C   UNL     1      -0.186   4.510 -23.497  0.00  0.00    +0.000 C 
ATOM     21  H   UNL     1      -0.776   5.266 -24.031  0.00  0.00    +0.000 HD
ATOM     22  H   UNL     1      -0.036   4.888 -22.479  0.00  0.00    +0.000 HD
BRANCH  20  23
ATOM     23  C   UNL     1       1.165   4.354 -24.177  0.00  0.00    +0.000 C 
ATOM     24  H   UNL     1       1.970   4.390 -23.435  0.00  0.00    +0.000 HD
ATOM     25  H   UNL     1       1.231   3.396 -24.702  0.00  0.00    +0.000 HD
ATOM     26  H   UNL     1       1.335   5.156 -24.901  0.00  0.00    +0.000 HD
ENDBRANCH  20  23
ENDBRANCH  17  20
ENDBRANCH  16  17
ENDBRANCH   1  16
TORSDOF 8
ENDMDL
MODEL 7
REMARK VINA RESULT:    -3.932     15.695     16.766
REMARK INTER + INTRA:          -5.743
REMARK INTER:                  -5.106
REMARK INTRA:                  -0.637
REMARK UNBOUND:                -0.203
REMARK  Name = 7983
REMARK  8 active torsions:
REMARK  status: ('A' for Active; 'I' for Inactive)
REMARK    1  A    between atoms: O_1  and  C_5
REMARK    2  A    between atoms: O_1  and  C_9
REMARK    3  A    between atoms: C_3  and  C_4
REMARK    4  A    between atoms: C_3  and  C_5
REMARK    5  A    between atoms: C_4  and  C_8
REMARK    6  A    between atoms: C_6  and  C_7
REMARK    7  A    between atoms: C_6  and  C_9
REMARK    8  A    between atoms: C_7  and  C_10
REMARK                            x       y       z     vdW  Elec       q    Type
REMARK                         _______ _______ _______ _____ _____    ______ ____
ROOT
ATOM      1  O   UNL     1       0.167   4.500 -20.396  0.00  0.00    +0.000 OA
ENDROOT
BRANCH   1   2
ATOM      2  C   UNL     1       0.551   5.428 -21.414  0.00  0.00    +0.000 C 
ATOM      3  H   UNL     1      -0.349   5.831 -21.894  0.00  0.00    +0.000 HD
ATOM      4  H   UNL     1       1.160   4.911 -22.165  0.00  0.00    +0.000 HD
BRANCH   2   5
ATOM      5  C   UNL     1       1.352   6.555 -20.775  0.00  0.00    +0.000 C 
ATOM      6  H   UNL     1       0.702   7.428 -20.634  0.00  0.00    +0.000 HD
ATOM      7  H   UNL     1       2.139   6.876 -21.469  0.00  0.00    +0.000 HD
BRANCH   5   8
ATOM      8  C   UNL     1       1.962   6.128 -19.444  0.00  0.00    +0.000 C 
ATOM      9  H   UNL     1       1.709   5.082 -19.235  0.00  0.00    +0.000 HD
ATOM     10  H   UNL     1       1.543   6.731 -18.631  0.00  0.00    +0.000 HD
BRANCH   8  11
ATOM     11  C   UNL     1       3.475   6.281 -19.451  0.00  0.00    +0.000 C 
ATOM     12  H   UNL     1       3.807   6.858 -20.320  0.00  0.00    +0.000 HD
ATOM     13  H   UNL     1       3.822   6.790 -18.547  0.00  0.00    +0.000 HD
ATOM     14  H   UNL     1       3.956   5.298 -19.493  0.00  0.00    +0.000 HD
ENDBRANCH   8  11
ENDBRANCH   5   8
ENDBRANCH   2   5
ENDBRANCH   1   2
BRANCH   1  16
ATOM     15  O   UNL     1      -1.328   2.816 -20.898  0.00  0.00    +0.000 OA
ATOM     16  C   UNL     1      -0.189   3.257 -20.838  0.00  0.00    +0.000 C 
BRANCH  16  17
ATOM     17  C   UNL     1       1.059   2.507 -21.244  0.00  0.00    +0.000 C 
ATOM     18  H   UNL     1       0.754   1.551 -21.685  0.00  0.00    +0.000 HD
ATOM     19  H   UNL     1       1.584   3.099 -22.002  0.00  0.00    +0.000 HD
BRANCH  17  20
ATOM     20  C   UNL     1       1.986   2.254 -20.058  0.00  0.00    +0.000 C 
ATOM     21  H   UNL     1       1.654   2.839 -19.192  0.00  0.00    +0.000 HD
ATOM     22  H   UNL     1       1.938   1.199 -19.763  0.00  0.00    +0.000 HD
BRANCH  20  23
ATOM     23  C   UNL     1       3.425   2.616 -20.388  0.00  0.00    +0.000 C 
ATOM     24  H   UNL     1       3.853   1.880 -21.077  0.00  0.00    +0.000 HD
ATOM     25  H   UNL     1       3.483   3.600 -20.865  0.00  0.00    +0.000 HD
ATOM     26  H   UNL     1       4.042   2.634 -19.485  0.00  0.00    +0.000 HD
ENDBRANCH  20  23
ENDBRANCH  17  20
ENDBRANCH  16  17
ENDBRANCH   1  16
TORSDOF 8
ENDMDL
MODEL 8
REMARK VINA RESULT:    -3.854     14.926     16.644
REMARK INTER + INTRA:          -5.634
REMARK INTER:                  -5.111
REMARK INTRA:                  -0.523
REMARK UNBOUND:                -0.203
REMARK  Name = 7983
REMARK  8 active torsions:
REMARK  status: ('A' for Active; 'I' for Inactive)
REMARK    1  A    between atoms: O_1  and  C_5
REMARK    2  A    between atoms: O_1  and  C_9
REMARK    3  A    between atoms: C_3  and  C_4
REMARK    4  A    between atoms: C_3  and  C_5
REMARK    5  A    between atoms: C_4  and  C_8
REMARK    6  A    between atoms: C_6  and  C_7
REMARK    7  A    between atoms: C_6  and  C_9
REMARK    8  A    between atoms: C_7  and  C_10
REMARK                            x       y       z     vdW  Elec       q    Type
REMARK                         _______ _______ _______ _____ _____    ______ ____
ROOT
ATOM      1  O   UNL     1      -4.877 -14.275   2.712  0.00  0.00    +0.000 OA
ENDROOT
BRANCH   1   2
ATOM      2  C   UNL     1      -5.439 -15.249   1.828  0.00  0.00    +0.000 C 
ATOM      3  H   UNL     1      -5.268 -16.252   2.239  0.00  0.00    +0.000 HD
ATOM      4  H   UNL     1      -4.954 -15.173   0.848  0.00  0.00    +0.000 HD
BRANCH   2   5
ATOM      5  C   UNL     1      -6.933 -14.988   1.695  0.00  0.00    +0.000 C 
ATOM      6  H   UNL     1      -7.437 -15.272   2.628  0.00  0.00    +0.000 HD
ATOM      7  H   UNL     1      -7.347 -15.645   0.919  0.00  0.00    +0.000 HD
BRANCH   5   8
ATOM      8  C   UNL     1      -7.222 -13.528   1.360  0.00  0.00    +0.000 C 
ATOM      9  H   UNL     1      -6.516 -12.877   1.888  0.00  0.00    +0.000 HD
ATOM     10  H   UNL     1      -8.228 -13.259   1.702  0.00  0.00    +0.000 HD
BRANCH   8  11
ATOM     11  C   UNL     1      -7.116 -13.268  -0.134  0.00  0.00    +0.000 C 
ATOM     12  H   UNL     1      -7.547 -14.095  -0.708  0.00  0.00    +0.000 HD
ATOM     13  H   UNL     1      -7.640 -12.348  -0.410  0.00  0.00    +0.000 HD
ATOM     14  H   UNL     1      -6.067 -13.163  -0.427  0.00  0.00    +0.000 HD
ENDBRANCH   8  11
ENDBRANCH   5   8
ENDBRANCH   2   5
ENDBRANCH   1   2
BRANCH   1  16
ATOM     15  O   UNL     1      -4.413 -15.586   4.553  0.00  0.00    +0.000 OA
ATOM     16  C   UNL     1      -4.914 -14.595   4.040  0.00  0.00    +0.000 C 
BRANCH  16  17
ATOM     17  C   UNL     1      -5.676 -13.520   4.780  0.00  0.00    +0.000 C 
ATOM     18  H   UNL     1      -5.034 -13.137   5.582  0.00  0.00    +0.000 HD
ATOM     19  H   UNL     1      -5.893 -12.707   4.078  0.00  0.00    +0.000 HD
BRANCH  17  20
ATOM     20  C   UNL     1      -6.980 -14.048   5.373  0.00  0.00    +0.000 C 
ATOM     21  H   UNL     1      -7.262 -14.986   4.879  0.00  0.00    +0.000 HD
ATOM     22  H   UNL     1      -6.842 -14.280   6.436  0.00  0.00    +0.000 HD
BRANCH  20  23
ATOM     23  C   UNL     1      -8.109 -13.041   5.224  0.00  0.00    +0.000 C 
ATOM     24  H   UNL     1      -8.815 -13.374   4.456  0.00  0.00    +0.000 HD
ATOM     25  H   UNL     1      -8.659 -12.927   6.163  0.00  0.00    +0.000 HD
ATOM     26  H   UNL     1      -7.724 -12.061   4.929  0.00  0.00    +0.000 HD
ENDBRANCH  20  23
ENDBRANCH  17  20
ENDBRANCH  16  17
ENDBRANCH   1  16
TORSDOF 8
ENDMDL
MODEL 9
REMARK VINA RESULT:    -3.847     15.762     18.181
REMARK INTER + INTRA:          -5.624
REMARK INTER:                  -5.422
REMARK INTRA:                  -0.203
REMARK UNBOUND:                -0.203
REMARK  Name = 7983
REMARK  8 active torsions:
REMARK  status: ('A' for Active; 'I' for Inactive)
REMARK    1  A    between atoms: O_1  and  C_5
REMARK    2  A    between atoms: O_1  and  C_9
REMARK    3  A    between atoms: C_3  and  C_4
REMARK    4  A    between atoms: C_3  and  C_5
REMARK    5  A    between atoms: C_4  and  C_8
REMARK    6  A    between atoms: C_6  and  C_7
REMARK    7  A    between atoms: C_6  and  C_9
REMARK    8  A    between atoms: C_7  and  C_10
REMARK                            x       y       z     vdW  Elec       q    Type
REMARK                         _______ _______ _______ _____ _____    ______ ____
ROOT
ATOM      1  O   UNL     1      -7.565 -14.606   4.067  0.00  0.00    +0.000 OA
ENDROOT
BRANCH   1   2
ATOM      2  C   UNL     1      -6.180 -14.678   3.718  0.00  0.00    +0.000 C 
ATOM      3  H   UNL     1      -5.912 -15.723   3.517  0.00  0.00    +0.000 HD
ATOM      4  H   UNL     1      -5.575 -14.305   4.552  0.00  0.00    +0.000 HD
BRANCH   2   5
ATOM      5  C   UNL     1      -5.940 -13.830   2.476  0.00  0.00    +0.000 C 
ATOM      6  H   UNL     1      -5.182 -14.313   1.846  0.00  0.00    +0.000 HD
ATOM      7  H   UNL     1      -5.511 -12.866   2.775  0.00  0.00    +0.000 HD
BRANCH   5   8
ATOM      8  C   UNL     1      -7.227 -13.613   1.685  0.00  0.00    +0.000 C 
ATOM      9  H   UNL     1      -7.599 -12.595   1.848  0.00  0.00    +0.000 HD
ATOM     10  H   UNL     1      -8.003 -14.302   2.040  0.00  0.00    +0.000 HD
BRANCH   8  11
ATOM     11  C   UNL     1      -7.008 -13.830   0.196  0.00  0.00    +0.000 C 
ATOM     12  H   UNL     1      -6.245 -13.147  -0.191  0.00  0.00    +0.000 HD
ATOM     13  H   UNL     1      -6.687 -14.855  -0.008  0.00  0.00    +0.000 HD
ATOM     14  H   UNL     1      -7.937 -13.648  -0.354  0.00  0.00    +0.000 HD
ENDBRANCH   8  11
ENDBRANCH   5   8
ENDBRANCH   2   5
ENDBRANCH   1   2
BRANCH   1  16
ATOM     15  O   UNL     1      -8.086 -12.628   5.134  0.00  0.00    +0.000 OA
ATOM     16  C   UNL     1      -7.858 -13.829   5.152  0.00  0.00    +0.000 C 
BRANCH  16  17
ATOM     17  C   UNL     1      -7.857 -14.698   6.390  0.00  0.00    +0.000 C 
ATOM     18  H   UNL     1      -6.840 -15.080   6.537  0.00  0.00    +0.000 HD
ATOM     19  H   UNL     1      -8.131 -14.073   7.247  0.00  0.00    +0.000 HD
BRANCH  17  20
ATOM     20  C   UNL     1      -8.834 -15.864   6.271  0.00  0.00    +0.000 C 
ATOM     21  H   UNL     1      -9.865 -15.491   6.281  0.00  0.00    +0.000 HD
ATOM     22  H   UNL     1      -8.692 -16.375   5.311  0.00  0.00    +0.000 HD
BRANCH  20  23
ATOM     23  C   UNL     1      -8.649 -16.863   7.402  0.00  0.00    +0.000 C 
ATOM     24  H   UNL     1      -8.606 -16.344   8.364  0.00  0.00    +0.000 HD
ATOM     25  H   UNL     1      -9.482 -17.573   7.437  0.00  0.00    +0.000 HD
ATOM     26  H   UNL     1      -7.721 -17.428   7.279  0.00  0.00    +0.000 HD
ENDBRANCH  20  23
ENDBRANCH  17  20
ENDBRANCH  16  17
ENDBRANCH   1  16
TORSDOF 8
ENDMDL
MODEL 10
REMARK VINA RESULT:    -3.768     15.569     16.324
REMARK INTER + INTRA:          -5.512
REMARK INTER:                  -4.931
REMARK INTRA:                  -0.581
REMARK UNBOUND:                -0.203
REMARK  Name = 7983
REMARK  8 active torsions:
REMARK  status: ('A' for Active; 'I' for Inactive)
REMARK    1  A    between atoms: O_1  and  C_5
REMARK    2  A    between atoms: O_1  and  C_9
REMARK    3  A    between atoms: C_3  and  C_4
REMARK    4  A    between atoms: C_3  and  C_5
REMARK    5  A    between atoms: C_4  and  C_8
REMARK    6  A    between atoms: C_6  and  C_7
REMARK    7  A    between atoms: C_6  and  C_9
REMARK    8  A    between atoms: C_7  and  C_10
REMARK                            x       y       z     vdW  Elec       q    Type
REMARK                         _______ _______ _______ _____ _____    ______ ____
ROOT
ATOM      1  O   UNL     1       0.880   3.667 -21.701  0.00  0.00    +0.000 OA
ENDROOT
BRANCH   1   2
ATOM      2  C   UNL     1       1.649   2.507 -22.028  0.00  0.00    +0.000 C 
ATOM      3  H   UNL     1       1.460   2.232 -23.074  0.00  0.00    +0.000 HD
ATOM      4  H   UNL     1       1.348   1.677 -21.378  0.00  0.00    +0.000 HD
BRANCH   2   5
ATOM      5  C   UNL     1       3.125   2.821 -21.829  0.00  0.00    +0.000 C 
ATOM      6  H   UNL     1       3.324   3.851 -22.152  0.00  0.00    +0.000 HD
ATOM      7  H   UNL     1       3.723   2.180 -22.487  0.00  0.00    +0.000 HD
BRANCH   5   8
ATOM      8  C   UNL     1       3.550   2.631 -20.376  0.00  0.00    +0.000 C 
ATOM      9  H   UNL     1       4.005   1.642 -20.247  0.00  0.00    +0.000 HD
ATOM     10  H   UNL     1       2.671   2.671 -19.722  0.00  0.00    +0.000 HD
BRANCH   8  11
ATOM     11  C   UNL     1       4.545   3.695 -19.943  0.00  0.00    +0.000 C 
ATOM     12  H   UNL     1       4.843   4.322 -20.790  0.00  0.00    +0.000 HD
ATOM     13  H   UNL     1       4.117   4.341 -19.170  0.00  0.00    +0.000 HD
ATOM     14  H   UNL     1       5.447   3.228 -19.534  0.00  0.00    +0.000 HD
ENDBRANCH   8  11
ENDBRANCH   5   8
ENDBRANCH   2   5
ENDBRANCH   1   2
BRANCH   1  16
ATOM     15  O   UNL     1      -0.955   2.810 -20.595  0.00  0.00    +0.000 OA
ATOM     16  C   UNL     1       0.033   3.531 -20.638  0.00  0.00    +0.000 C 
BRANCH  16  17
ATOM     17  C   UNL     1       0.514   4.417 -19.512  0.00  0.00    +0.000 C 
ATOM     18  H   UNL     1      -0.263   4.439 -18.739  0.00  0.00    +0.000 HD
ATOM     19  H   UNL     1       1.423   3.974 -19.091  0.00  0.00    +0.000 HD
BRANCH  17  20
ATOM     20  C   UNL     1       0.807   5.838 -19.987  0.00  0.00    +0.000 C 
ATOM     21  H   UNL     1       0.788   5.876 -21.083  0.00  0.00    +0.000 HD
ATOM     22  H   UNL     1       0.025   6.520 -19.634  0.00  0.00    +0.000 HD
BRANCH  20  23
ATOM     23  C   UNL     1       2.158   6.325 -19.490  0.00  0.00    +0.000 C 
ATOM     24  H   UNL     1       2.028   7.160 -18.794  0.00  0.00    +0.000 HD
ATOM     25  H   UNL     1       2.694   5.527 -18.964  0.00  0.00    +0.000 HD
ATOM     26  H   UNL     1       2.782   6.669 -20.320  0.00  0.00    +0.000 HD
ENDBRANCH  20  23
ENDBRANCH  17  20
ENDBRANCH  16  17
ENDBRANCH   1  16
TORSDOF 8
ENDMDL
