MODEL 1
REMARK VINA RESULT:    -5.271      0.000      0.000
REMARK INTER + INTRA:          -6.242
REMARK INTER:                  -6.042
REMARK INTRA:                  -0.200
REMARK UNBOUND:                -0.201
REMARK  Name = 10106
REMARK  4 active torsions:
REMARK  status: ('A' for Active; 'I' for Inactive)
REMARK    1  A    between atoms: C_2  and  C_8
REMARK    2  A    between atoms: C_3  and  C_9
REMARK    3  A    between atoms: C_8  and  C_10
REMARK    4  A    between atoms: C_8  and  C_11
REMARK                            x       y       z     vdW  Elec       q    Type
REMARK                         _______ _______ _______ _____ _____    ______ ____
ROOT
ATOM      1  O   UNL     1      17.745  -6.415  -1.801  0.00  0.00    +0.000 OA
ATOM      2  C   UNL     1      17.288  -5.720  -2.986  0.00  0.00    +0.000 C 
ATOM      3  C   UNL     1      16.690  -5.965  -0.917  0.00  0.00    +0.000 C 
ATOM      4  C   UNL     1      17.252  -4.269  -2.491  0.00  0.00    +0.000 C 
ATOM      5  C   UNL     1      15.863  -6.268  -3.129  0.00  0.00    +0.000 C 
ATOM      6  C   UNL     1      16.829  -4.443  -1.030  0.00  0.00    +0.000 C 
ATOM      7  C   UNL     1      15.442  -6.442  -1.669  0.00  0.00    +0.000 C 
ATOM      8  H   UNL     1      16.547  -3.646  -3.051  0.00  0.00    +0.000 HD
ATOM      9  H   UNL     1      18.226  -3.773  -2.510  0.00  0.00    +0.000 HD
ATOM     10  H   UNL     1      15.855  -7.245  -3.626  0.00  0.00    +0.000 HD
ATOM     11  H   UNL     1      15.197  -5.598  -3.679  0.00  0.00    +0.000 HD
ATOM     12  H   UNL     1      17.623  -4.065  -0.375  0.00  0.00    +0.000 HD
ATOM     13  H   UNL     1      15.904  -3.910  -0.788  0.00  0.00    +0.000 HD
ATOM     14  H   UNL     1      14.545  -5.868  -1.414  0.00  0.00    +0.000 HD
ATOM     15  H   UNL     1      15.237  -7.501  -1.474  0.00  0.00    +0.000 HD
ENDROOT
BRANCH   3  16
ATOM     16  C   UNL     1      16.834  -6.513   0.484  0.00  0.00    +0.000 C 
ATOM     17  H   UNL     1      17.127  -7.568   0.471  0.00  0.00    +0.000 HD
ATOM     18  H   UNL     1      17.583  -5.948   1.048  0.00  0.00    +0.000 HD
ATOM     19  H   UNL     1      15.895  -6.417   1.038  0.00  0.00    +0.000 HD
ENDBRANCH   3  16
BRANCH   2  20
ATOM     20  C   UNL     1      18.182  -5.959  -4.180  0.00  0.00    +0.000 C 
ATOM     21  H   UNL     1      18.432  -4.993  -4.637  0.00  0.00    +0.000 HD
BRANCH  20  22
ATOM     22  C   UNL     1      19.482  -6.659  -3.767  0.00  0.00    +0.000 C 
ATOM     23  H   UNL     1      19.890  -6.251  -2.837  0.00  0.00    +0.000 HD
ATOM     24  H   UNL     1      19.302  -7.728  -3.606  0.00  0.00    +0.000 HD
ATOM     25  H   UNL     1      20.246  -6.571  -4.546  0.00  0.00    +0.000 HD
ENDBRANCH  20  22
BRANCH  20  26
ATOM     26  C   UNL     1      17.462  -6.783  -5.255  0.00  0.00    +0.000 C 
ATOM     27  H   UNL     1      18.002  -6.799  -6.206  0.00  0.00    +0.000 HD
ATOM     28  H   UNL     1      16.478  -6.347  -5.458  0.00  0.00    +0.000 HD
ATOM     29  H   UNL     1      17.296  -7.815  -4.932  0.00  0.00    +0.000 HD
ENDBRANCH  20  26
ENDBRANCH   2  20
TORSDOF 4
ENDMDL
MODEL 2
REMARK VINA RESULT:    -5.187      1.224      3.582
REMARK INTER + INTRA:          -6.146
REMARK INTER:                  -5.947
REMARK INTRA:                  -0.199
REMARK UNBOUND:                -0.201
REMARK  Name = 10106
REMARK  4 active torsions:
REMARK  status: ('A' for Active; 'I' for Inactive)
REMARK    1  A    between atoms: C_2  and  C_8
REMARK    2  A    between atoms: C_3  and  C_9
REMARK    3  A    between atoms: C_8  and  C_10
REMARK    4  A    between atoms: C_8  and  C_11
REMARK                            x       y       z     vdW  Elec       q    Type
REMARK                         _______ _______ _______ _____ _____    ______ ____
ROOT
ATOM      1  O   UNL     1      18.025  -6.267  -2.078  0.00  0.00    +0.000 OA
ATOM      2  C   UNL     1      17.256  -5.372  -2.917  0.00  0.00    +0.000 C 
ATOM      3  C   UNL     1      19.280  -6.136  -2.789  0.00  0.00    +0.000 C 
ATOM      4  C   UNL     1      17.441  -6.015  -4.296  0.00  0.00    +0.000 C 
ATOM      5  C   UNL     1      18.078  -4.082  -2.818  0.00  0.00    +0.000 C 
ATOM      6  C   UNL     1      18.871  -6.554  -4.206  0.00  0.00    +0.000 C 
ATOM      7  C   UNL     1      19.506  -4.621  -2.726  0.00  0.00    +0.000 C 
ATOM      8  H   UNL     1      17.323  -5.301  -5.118  0.00  0.00    +0.000 HD
ATOM      9  H   UNL     1      16.768  -6.856  -4.484  0.00  0.00    +0.000 HD
ATOM     10  H   UNL     1      17.844  -3.523  -1.904  0.00  0.00    +0.000 HD
ATOM     11  H   UNL     1      17.938  -3.414  -3.673  0.00  0.00    +0.000 HD
ATOM     12  H   UNL     1      18.854  -7.645  -4.310  0.00  0.00    +0.000 HD
ATOM     13  H   UNL     1      19.530  -6.147  -4.979  0.00  0.00    +0.000 HD
ATOM     14  H   UNL     1      20.152  -4.253  -3.529  0.00  0.00    +0.000 HD
ATOM     15  H   UNL     1      19.947  -4.321  -1.768  0.00  0.00    +0.000 HD
ENDROOT
BRANCH   3  16
ATOM     16  C   UNL     1      20.382  -6.968  -2.175  0.00  0.00    +0.000 C 
ATOM     17  H   UNL     1      20.047  -7.991  -1.977  0.00  0.00    +0.000 HD
ATOM     18  H   UNL     1      21.255  -7.006  -2.835  0.00  0.00    +0.000 HD
ATOM     19  H   UNL     1      20.727  -6.524  -1.235  0.00  0.00    +0.000 HD
ENDBRANCH   3  16
BRANCH   2  20
ATOM     20  C   UNL     1      15.820  -5.244  -2.466  0.00  0.00    +0.000 C 
ATOM     21  H   UNL     1      15.301  -4.533  -3.122  0.00  0.00    +0.000 HD
BRANCH  20  22
ATOM     22  C   UNL     1      15.096  -6.595  -2.533  0.00  0.00    +0.000 C 
ATOM     23  H   UNL     1      15.453  -7.290  -1.767  0.00  0.00    +0.000 HD
ATOM     24  H   UNL     1      14.020  -6.456  -2.377  0.00  0.00    +0.000 HD
ATOM     25  H   UNL     1      15.226  -7.067  -3.512  0.00  0.00    +0.000 HD
ENDBRANCH  20  22
BRANCH  20  26
ATOM     26  C   UNL     1      15.734  -4.676  -1.044  0.00  0.00    +0.000 C 
ATOM     27  H   UNL     1      14.856  -5.035  -0.498  0.00  0.00    +0.000 HD
ATOM     28  H   UNL     1      15.653  -3.584  -1.087  0.00  0.00    +0.000 HD
ATOM     29  H   UNL     1      16.628  -4.909  -0.458  0.00  0.00    +0.000 HD
ENDBRANCH  20  26
ENDBRANCH   2  20
TORSDOF 4
ENDMDL
MODEL 3
REMARK VINA RESULT:    -5.132      1.555      3.670
REMARK INTER + INTRA:          -6.083
REMARK INTER:                  -5.911
REMARK INTRA:                  -0.172
REMARK UNBOUND:                -0.201
REMARK  Name = 10106
REMARK  4 active torsions:
REMARK  status: ('A' for Active; 'I' for Inactive)
REMARK    1  A    between atoms: C_2  and  C_8
REMARK    2  A    between atoms: C_3  and  C_9
REMARK    3  A    between atoms: C_8  and  C_10
REMARK    4  A    between atoms: C_8  and  C_11
REMARK                            x       y       z     vdW  Elec       q    Type
REMARK                         _______ _______ _______ _____ _____    ______ ____
ROOT
ATOM      1  O   UNL     1      17.923  -4.463  -3.074  0.00  0.00    +0.000 OA
ATOM      2  C   UNL     1      17.195  -5.695  -2.851  0.00  0.00    +0.000 C 
ATOM      3  C   UNL     1      19.208  -5.068  -3.354  0.00  0.00    +0.000 C 
ATOM      4  C   UNL     1      18.017  -6.333  -1.725  0.00  0.00    +0.000 C 
ATOM      5  C   UNL     1      17.439  -6.434  -4.172  0.00  0.00    +0.000 C 
ATOM      6  C   UNL     1      19.439  -5.891  -2.081  0.00  0.00    +0.000 C 
ATOM      7  C   UNL     1      18.859  -5.991  -4.527  0.00  0.00    +0.000 C 
ATOM      8  H   UNL     1      17.922  -7.424  -1.695  0.00  0.00    +0.000 HD
ATOM      9  H   UNL     1      17.776  -5.948  -0.732  0.00  0.00    +0.000 HD
ATOM     10  H   UNL     1      16.749  -6.099  -4.955  0.00  0.00    +0.000 HD
ATOM     11  H   UNL     1      17.350  -7.521  -4.081  0.00  0.00    +0.000 HD
ATOM     12  H   UNL     1      19.838  -5.269  -1.272  0.00  0.00    +0.000 HD
ATOM     13  H   UNL     1      20.121  -6.733  -2.234  0.00  0.00    +0.000 HD
ATOM     14  H   UNL     1      19.553  -6.831  -4.630  0.00  0.00    +0.000 HD
ATOM     15  H   UNL     1      18.842  -5.443  -5.476  0.00  0.00    +0.000 HD
ENDROOT
BRANCH   3  16
ATOM     16  C   UNL     1      20.279  -4.044  -3.650  0.00  0.00    +0.000 C 
ATOM     17  H   UNL     1      21.106  -4.114  -2.937  0.00  0.00    +0.000 HD
ATOM     18  H   UNL     1      20.675  -4.175  -4.662  0.00  0.00    +0.000 HD
ATOM     19  H   UNL     1      19.868  -3.029  -3.610  0.00  0.00    +0.000 HD
ENDBRANCH   3  16
BRANCH   2  20
ATOM     20  C   UNL     1      15.741  -5.457  -2.516  0.00  0.00    +0.000 C 
ATOM     21  H   UNL     1      15.310  -4.775  -3.261  0.00  0.00    +0.000 HD
BRANCH  20  22
ATOM     22  C   UNL     1      14.947  -6.769  -2.533  0.00  0.00    +0.000 C 
ATOM     23  H   UNL     1      14.769  -7.153  -1.524  0.00  0.00    +0.000 HD
ATOM     24  H   UNL     1      13.970  -6.615  -3.004  0.00  0.00    +0.000 HD
ATOM     25  H   UNL     1      15.468  -7.542  -3.107  0.00  0.00    +0.000 HD
ENDBRANCH  20  22
BRANCH  20  26
ATOM     26  C   UNL     1      15.591  -4.773  -1.152  0.00  0.00    +0.000 C 
ATOM     27  H   UNL     1      16.479  -4.199  -0.868  0.00  0.00    +0.000 HD
ATOM     28  H   UNL     1      15.442  -5.529  -0.373  0.00  0.00    +0.000 HD
ATOM     29  H   UNL     1      14.724  -4.106  -1.125  0.00  0.00    +0.000 HD
ENDBRANCH  20  26
ENDBRANCH   2  20
TORSDOF 4
ENDMDL
MODEL 4
REMARK VINA RESULT:    -4.622     24.997     26.465
REMARK INTER + INTRA:          -5.498
REMARK INTER:                  -5.303
REMARK INTRA:                  -0.195
REMARK UNBOUND:                -0.201
REMARK  Name = 10106
REMARK  4 active torsions:
REMARK  status: ('A' for Active; 'I' for Inactive)
REMARK    1  A    between atoms: C_2  and  C_8
REMARK    2  A    between atoms: C_3  and  C_9
REMARK    3  A    between atoms: C_8  and  C_10
REMARK    4  A    between atoms: C_8  and  C_11
REMARK                            x       y       z     vdW  Elec       q    Type
REMARK                         _______ _______ _______ _____ _____    ______ ____
ROOT
ATOM      1  O   UNL     1      13.349  18.440 -10.486  0.00  0.00    +0.000 OA
ATOM      2  C   UNL     1      12.413  18.366 -11.589  0.00  0.00    +0.000 C 
ATOM      3  C   UNL     1      14.450  17.771 -11.148  0.00  0.00    +0.000 C 
ATOM      4  C   UNL     1      12.366  16.855 -11.845  0.00  0.00    +0.000 C 
ATOM      5  C   UNL     1      13.198  19.070 -12.701  0.00  0.00    +0.000 C 
ATOM      6  C   UNL     1      13.805  16.436 -11.535  0.00  0.00    +0.000 C 
ATOM      7  C   UNL     1      14.636  18.651 -12.390  0.00  0.00    +0.000 C 
ATOM      8  H   UNL     1      12.079  16.607 -12.872  0.00  0.00    +0.000 HD
ATOM      9  H   UNL     1      11.698  16.314 -11.170  0.00  0.00    +0.000 HD
ATOM     10  H   UNL     1      13.115  20.160 -12.626  0.00  0.00    +0.000 HD
ATOM     11  H   UNL     1      12.884  18.771 -13.706  0.00  0.00    +0.000 HD
ATOM     12  H   UNL     1      13.805  15.735 -10.692  0.00  0.00    +0.000 HD
ATOM     13  H   UNL     1      14.300  15.951 -12.382  0.00  0.00    +0.000 HD
ATOM     14  H   UNL     1      15.114  18.122 -13.220  0.00  0.00    +0.000 HD
ATOM     15  H   UNL     1      15.233  19.542 -12.164  0.00  0.00    +0.000 HD
ENDROOT
BRANCH   3  16
ATOM     16  C   UNL     1      15.671  17.655 -10.266  0.00  0.00    +0.000 C 
ATOM     17  H   UNL     1      15.537  18.198  -9.325  0.00  0.00    +0.000 HD
ATOM     18  H   UNL     1      15.888  16.606 -10.037  0.00  0.00    +0.000 HD
ATOM     19  H   UNL     1      16.558  18.049 -10.774  0.00  0.00    +0.000 HD
ENDBRANCH   3  16
BRANCH   2  20
ATOM     20  C   UNL     1      11.079  18.994 -11.260  0.00  0.00    +0.000 C 
ATOM     21  H   UNL     1      10.331  18.199 -11.137  0.00  0.00    +0.000 HD
BRANCH  20  22
ATOM     22  C   UNL     1      11.153  19.803  -9.960  0.00  0.00    +0.000 C 
ATOM     23  H   UNL     1      11.205  20.880 -10.150  0.00  0.00    +0.000 HD
ATOM     24  H   UNL     1      10.263  19.620  -9.347  0.00  0.00    +0.000 HD
ATOM     25  H   UNL     1      12.024  19.518  -9.362  0.00  0.00    +0.000 HD
ENDBRANCH  20  22
BRANCH  20  26
ATOM     26  C   UNL     1      10.589  19.887 -12.405  0.00  0.00    +0.000 C 
ATOM     27  H   UNL     1      10.070  20.783 -12.051  0.00  0.00    +0.000 HD
ATOM     28  H   UNL     1       9.875  19.334 -13.027  0.00  0.00    +0.000 HD
ATOM     29  H   UNL     1      11.411  20.197 -13.059  0.00  0.00    +0.000 HD
ENDBRANCH  20  26
ENDBRANCH   2  20
TORSDOF 4
ENDMDL
MODEL 5
REMARK VINA RESULT:    -4.578     25.317     27.165
REMARK INTER + INTRA:          -5.448
REMARK INTER:                  -5.276
REMARK INTRA:                  -0.171
REMARK UNBOUND:                -0.201
REMARK  Name = 10106
REMARK  4 active torsions:
REMARK  status: ('A' for Active; 'I' for Inactive)
REMARK    1  A    between atoms: C_2  and  C_8
REMARK    2  A    between atoms: C_3  and  C_9
REMARK    3  A    between atoms: C_8  and  C_10
REMARK    4  A    between atoms: C_8  and  C_11
REMARK                            x       y       z     vdW  Elec       q    Type
REMARK                         _______ _______ _______ _____ _____    ______ ____
ROOT
ATOM      1  O   UNL     1      -7.637 -15.213   3.949  0.00  0.00    +0.000 OA
ATOM      2  C   UNL     1      -7.162 -15.214   5.317  0.00  0.00    +0.000 C 
ATOM      3  C   UNL     1      -7.077 -13.931   3.572  0.00  0.00    +0.000 C 
ATOM      4  C   UNL     1      -7.770 -13.910   5.849  0.00  0.00    +0.000 C 
ATOM      5  C   UNL     1      -5.652 -15.051   5.114  0.00  0.00    +0.000 C 
ATOM      6  C   UNL     1      -7.709 -13.005   4.617  0.00  0.00    +0.000 C 
ATOM      7  C   UNL     1      -5.592 -14.148   3.881  0.00  0.00    +0.000 C 
ATOM      8  H   UNL     1      -7.210 -13.494   6.693  0.00  0.00    +0.000 HD
ATOM      9  H   UNL     1      -8.815 -14.005   6.155  0.00  0.00    +0.000 HD
ATOM     10  H   UNL     1      -5.170 -16.009   4.884  0.00  0.00    +0.000 HD
ATOM     11  H   UNL     1      -5.145 -14.613   5.979  0.00  0.00    +0.000 HD
ATOM     12  H   UNL     1      -8.726 -12.715   4.329  0.00  0.00    +0.000 HD
ATOM     13  H   UNL     1      -7.129 -12.093   4.786  0.00  0.00    +0.000 HD
ATOM     14  H   UNL     1      -5.054 -13.212   4.066  0.00  0.00    +0.000 HD
ATOM     15  H   UNL     1      -5.085 -14.677   3.067  0.00  0.00    +0.000 HD
ENDROOT
BRANCH   3  16
ATOM     16  C   UNL     1      -7.379 -13.568   2.136  0.00  0.00    +0.000 C 
ATOM     17  H   UNL     1      -6.557 -13.002   1.687  0.00  0.00    +0.000 HD
ATOM     18  H   UNL     1      -7.556 -14.466   1.536  0.00  0.00    +0.000 HD
ATOM     19  H   UNL     1      -8.294 -12.969   2.070  0.00  0.00    +0.000 HD
ENDBRANCH   3  16
BRANCH   2  20
ATOM     20  C   UNL     1      -7.571 -16.457   6.072  0.00  0.00    +0.000 C 
ATOM     21  H   UNL     1      -8.136 -17.114   5.398  0.00  0.00    +0.000 HD
BRANCH  20  22
ATOM     22  C   UNL     1      -6.345 -17.220   6.588  0.00  0.00    +0.000 C 
ATOM     23  H   UNL     1      -6.139 -18.115   5.994  0.00  0.00    +0.000 HD
ATOM     24  H   UNL     1      -5.454 -16.582   6.542  0.00  0.00    +0.000 HD
ATOM     25  H   UNL     1      -6.475 -17.522   7.632  0.00  0.00    +0.000 HD
ENDBRANCH  20  22
BRANCH  20  26
ATOM     26  C   UNL     1      -8.504 -16.115   7.240  0.00  0.00    +0.000 C 
ATOM     27  H   UNL     1      -9.223 -15.329   6.989  0.00  0.00    +0.000 HD
ATOM     28  H   UNL     1      -7.915 -15.745   8.087  0.00  0.00    +0.000 HD
ATOM     29  H   UNL     1      -9.055 -16.992   7.590  0.00  0.00    +0.000 HD
ENDBRANCH  20  26
ENDBRANCH   2  20
TORSDOF 4
ENDMDL
MODEL 6
REMARK VINA RESULT:    -4.574     25.758     26.992
REMARK INTER + INTRA:          -5.443
REMARK INTER:                  -5.271
REMARK INTRA:                  -0.172
REMARK UNBOUND:                -0.201
REMARK  Name = 10106
REMARK  4 active torsions:
REMARK  status: ('A' for Active; 'I' for Inactive)
REMARK    1  A    between atoms: C_2  and  C_8
REMARK    2  A    between atoms: C_3  and  C_9
REMARK    3  A    between atoms: C_8  and  C_10
REMARK    4  A    between atoms: C_8  and  C_11
REMARK                            x       y       z     vdW  Elec       q    Type
REMARK                         _______ _______ _______ _____ _____    ______ ____
ROOT
ATOM      1  O   UNL     1       0.073   4.981 -21.577  0.00  0.00    +0.000 OA
ATOM      2  C   UNL     1       1.079   4.892 -20.539  0.00  0.00    +0.000 C 
ATOM      3  C   UNL     1       0.056   3.575 -21.924  0.00  0.00    +0.000 C 
ATOM      4  C   UNL     1       2.250   4.264 -21.305  0.00  0.00    +0.000 C 
ATOM      5  C   UNL     1       0.450   3.862 -19.594  0.00  0.00    +0.000 C 
ATOM      6  C   UNL     1       1.527   3.333 -22.282  0.00  0.00    +0.000 C 
ATOM      7  C   UNL     1      -0.273   2.933 -20.571  0.00  0.00    +0.000 C 
ATOM      8  H   UNL     1       2.941   3.719 -20.654  0.00  0.00    +0.000 HD
ATOM      9  H   UNL     1       2.833   4.984 -21.885  0.00  0.00    +0.000 HD
ATOM     10  H   UNL     1      -0.284   4.325 -18.925  0.00  0.00    +0.000 HD
ATOM     11  H   UNL     1       1.186   3.333 -18.981  0.00  0.00    +0.000 HD
ATOM     12  H   UNL     1       1.743   3.648 -23.310  0.00  0.00    +0.000 HD
ATOM     13  H   UNL     1       1.827   2.286 -22.175  0.00  0.00    +0.000 HD
ATOM     14  H   UNL     1       0.064   1.895 -20.498  0.00  0.00    +0.000 HD
ATOM     15  H   UNL     1      -1.349   2.958 -20.367  0.00  0.00    +0.000 HD
ENDROOT
BRANCH   3  16
ATOM     16  C   UNL     1      -0.926   3.263 -23.029  0.00  0.00    +0.000 C 
ATOM     17  H   UNL     1      -0.775   2.253 -23.423  0.00  0.00    +0.000 HD
ATOM     18  H   UNL     1      -1.956   3.348 -22.670  0.00  0.00    +0.000 HD
ATOM     19  H   UNL     1      -0.827   3.979 -23.851  0.00  0.00    +0.000 HD
ENDBRANCH   3  16
BRANCH   2  20
ATOM     20  C   UNL     1       1.382   6.231 -19.908  0.00  0.00    +0.000 C 
ATOM     21  H   UNL     1       1.219   7.021 -20.653  0.00  0.00    +0.000 HD
BRANCH  20  22
ATOM     22  C   UNL     1       0.470   6.494 -18.703  0.00  0.00    +0.000 C 
ATOM     23  H   UNL     1       0.453   7.553 -18.426  0.00  0.00    +0.000 HD
ATOM     24  H   UNL     1      -0.559   6.197 -18.935  0.00  0.00    +0.000 HD
ATOM     25  H   UNL     1       0.788   5.916 -17.830  0.00  0.00    +0.000 HD
ENDBRANCH  20  22
BRANCH  20  26
ATOM     26  C   UNL     1       2.852   6.323 -19.482  0.00  0.00    +0.000 C 
ATOM     27  H   UNL     1       3.544   6.186 -20.318  0.00  0.00    +0.000 HD
ATOM     28  H   UNL     1       3.077   5.534 -18.755  0.00  0.00    +0.000 HD
ATOM     29  H   UNL     1       3.075   7.279 -18.998  0.00  0.00    +0.000 HD
ENDBRANCH  20  26
ENDBRANCH   2  20
TORSDOF 4
ENDMDL
MODEL 7
REMARK VINA RESULT:    -4.569     30.761     32.180
REMARK INTER + INTRA:          -5.438
REMARK INTER:                  -5.243
REMARK INTRA:                  -0.194
REMARK UNBOUND:                -0.201
REMARK  Name = 10106
REMARK  4 active torsions:
REMARK  status: ('A' for Active; 'I' for Inactive)
REMARK    1  A    between atoms: C_2  and  C_8
REMARK    2  A    between atoms: C_3  and  C_9
REMARK    3  A    between atoms: C_8  and  C_10
REMARK    4  A    between atoms: C_8  and  C_11
REMARK                            x       y       z     vdW  Elec       q    Type
REMARK                         _______ _______ _______ _____ _____    ______ ____
ROOT
ATOM      1  O   UNL     1     -14.799  -5.614  -3.309  0.00  0.00    +0.000 OA
ATOM      2  C   UNL     1     -14.511  -4.868  -4.515  0.00  0.00    +0.000 C 
ATOM      3  C   UNL     1     -16.242  -5.516  -3.384  0.00  0.00    +0.000 C 
ATOM      4  C   UNL     1     -15.218  -3.538  -4.225  0.00  0.00    +0.000 C 
ATOM      5  C   UNL     1     -15.294  -5.668  -5.562  0.00  0.00    +0.000 C 
ATOM      6  C   UNL     1     -16.440  -3.997  -3.427  0.00  0.00    +0.000 C 
ATOM      7  C   UNL     1     -16.515  -6.127  -4.763  0.00  0.00    +0.000 C 
ATOM      8  H   UNL     1     -15.500  -2.999  -5.135  0.00  0.00    +0.000 HD
ATOM      9  H   UNL     1     -14.635  -2.857  -3.599  0.00  0.00    +0.000 HD
ATOM     10  H   UNL     1     -14.733  -6.547  -5.901  0.00  0.00    +0.000 HD
ATOM     11  H   UNL     1     -15.567  -5.077  -6.441  0.00  0.00    +0.000 HD
ATOM     12  H   UNL     1     -16.402  -3.561  -2.422  0.00  0.00    +0.000 HD
ATOM     13  H   UNL     1     -17.387  -3.702  -3.890  0.00  0.00    +0.000 HD
ATOM     14  H   UNL     1     -17.460  -5.788  -5.200  0.00  0.00    +0.000 HD
ATOM     15  H   UNL     1     -16.531  -7.222  -4.721  0.00  0.00    +0.000 HD
ENDROOT
BRANCH   3  16
ATOM     16  C   UNL     1     -16.931  -6.214  -2.234  0.00  0.00    +0.000 C 
ATOM     17  H   UNL     1     -17.766  -6.830  -2.584  0.00  0.00    +0.000 HD
ATOM     18  H   UNL     1     -16.229  -6.852  -1.689  0.00  0.00    +0.000 HD
ATOM     19  H   UNL     1     -17.312  -5.487  -1.509  0.00  0.00    +0.000 HD
ENDBRANCH   3  16
BRANCH   2  20
ATOM     20  C   UNL     1     -13.029  -4.751  -4.785  0.00  0.00    +0.000 C 
ATOM     21  H   UNL     1     -12.701  -3.732  -4.539  0.00  0.00    +0.000 HD
BRANCH  20  22
ATOM     22  C   UNL     1     -12.231  -5.744  -3.932  0.00  0.00    +0.000 C 
ATOM     23  H   UNL     1     -11.770  -5.261  -3.064  0.00  0.00    +0.000 HD
ATOM     24  H   UNL     1     -12.888  -6.536  -3.557  0.00  0.00    +0.000 HD
ATOM     25  H   UNL     1     -11.441  -6.226  -4.516  0.00  0.00    +0.000 HD
ENDBRANCH  20  22
BRANCH  20  26
ATOM     26  C   UNL     1     -12.717  -4.969  -6.270  0.00  0.00    +0.000 C 
ATOM     27  H   UNL     1     -13.046  -4.135  -6.897  0.00  0.00    +0.000 HD
ATOM     28  H   UNL     1     -13.240  -5.861  -6.631  0.00  0.00    +0.000 HD
ATOM     29  H   UNL     1     -11.648  -5.131  -6.441  0.00  0.00    +0.000 HD
ENDBRANCH  20  26
ENDBRANCH   2  20
TORSDOF 4
ENDMDL
MODEL 8
REMARK VINA RESULT:    -4.549     24.273     26.199
REMARK INTER + INTRA:          -5.415
REMARK INTER:                  -5.243
REMARK INTRA:                  -0.171
REMARK UNBOUND:                -0.201
REMARK  Name = 10106
REMARK  4 active torsions:
REMARK  status: ('A' for Active; 'I' for Inactive)
REMARK    1  A    between atoms: C_2  and  C_8
REMARK    2  A    between atoms: C_3  and  C_9
REMARK    3  A    between atoms: C_8  and  C_10
REMARK    4  A    between atoms: C_8  and  C_11
REMARK                            x       y       z     vdW  Elec       q    Type
REMARK                         _______ _______ _______ _____ _____    ______ ____
ROOT
ATOM      1  O   UNL     1      -5.497 -14.844   4.288  0.00  0.00    +0.000 OA
ATOM      2  C   UNL     1      -6.817 -14.281   4.485  0.00  0.00    +0.000 C 
ATOM      3  C   UNL     1      -5.248 -14.255   2.989  0.00  0.00    +0.000 C 
ATOM      4  C   UNL     1      -7.553 -14.795   3.242  0.00  0.00    +0.000 C 
ATOM      5  C   UNL     1      -6.530 -12.781   4.350  0.00  0.00    +0.000 C 
ATOM      6  C   UNL     1      -6.446 -14.776   2.186  0.00  0.00    +0.000 C 
ATOM      7  C   UNL     1      -5.422 -12.763   3.295  0.00  0.00    +0.000 C 
ATOM      8  H   UNL     1      -8.402 -14.163   2.959  0.00  0.00    +0.000 HD
ATOM      9  H   UNL     1      -7.918 -15.821   3.339  0.00  0.00    +0.000 HD
ATOM     10  H   UNL     1      -6.145 -12.359   5.285  0.00  0.00    +0.000 HD
ATOM     11  H   UNL     1      -7.406 -12.200   4.046  0.00  0.00    +0.000 HD
ATOM     12  H   UNL     1      -6.270 -15.796   1.825  0.00  0.00    +0.000 HD
ATOM     13  H   UNL     1      -6.689 -14.146   1.324  0.00  0.00    +0.000 HD
ATOM     14  H   UNL     1      -5.687 -12.174   2.411  0.00  0.00    +0.000 HD
ATOM     15  H   UNL     1      -4.512 -12.335   3.731  0.00  0.00    +0.000 HD
ENDROOT
BRANCH   3  16
ATOM     16  C   UNL     1      -3.897 -14.634   2.430  0.00  0.00    +0.000 C 
ATOM     17  H   UNL     1      -3.590 -15.629   2.769  0.00  0.00    +0.000 HD
ATOM     18  H   UNL     1      -3.910 -14.626   1.336  0.00  0.00    +0.000 HD
ATOM     19  H   UNL     1      -3.133 -13.910   2.733  0.00  0.00    +0.000 HD
ENDBRANCH   3  16
BRANCH   2  20
ATOM     20  C   UNL     1      -7.433 -14.693   5.801  0.00  0.00    +0.000 C 
ATOM     21  H   UNL     1      -6.701 -15.282   6.369  0.00  0.00    +0.000 HD
BRANCH  20  22
ATOM     22  C   UNL     1      -7.831 -13.469   6.633  0.00  0.00    +0.000 C 
ATOM     23  H   UNL     1      -8.724 -12.976   6.236  0.00  0.00    +0.000 HD
ATOM     24  H   UNL     1      -8.051 -13.767   7.665  0.00  0.00    +0.000 HD
ATOM     25  H   UNL     1      -7.022 -12.733   6.672  0.00  0.00    +0.000 HD
ENDBRANCH  20  22
BRANCH  20  26
ATOM     26  C   UNL     1      -8.652 -15.597   5.583  0.00  0.00    +0.000 C 
ATOM     27  H   UNL     1      -9.476 -15.081   5.080  0.00  0.00    +0.000 HD
ATOM     28  H   UNL     1      -9.038 -15.938   6.551  0.00  0.00    +0.000 HD
ATOM     29  H   UNL     1      -8.398 -16.491   5.006  0.00  0.00    +0.000 HD
ENDBRANCH  20  26
ENDBRANCH   2  20
TORSDOF 4
ENDMDL
MODEL 9
REMARK VINA RESULT:    -4.528     25.831     27.006
REMARK INTER + INTRA:          -5.391
REMARK INTER:                  -5.190
REMARK INTRA:                  -0.201
REMARK UNBOUND:                -0.201
REMARK  Name = 10106
REMARK  4 active torsions:
REMARK  status: ('A' for Active; 'I' for Inactive)
REMARK    1  A    between atoms: C_2  and  C_8
REMARK    2  A    between atoms: C_3  and  C_9
REMARK    3  A    between atoms: C_8  and  C_10
REMARK    4  A    between atoms: C_8  and  C_11
REMARK                            x       y       z     vdW  Elec       q    Type
REMARK                         _______ _______ _______ _____ _____    ______ ____
ROOT
ATOM      1  O   UNL     1       1.635   3.552 -21.881  0.00  0.00    +0.000 OA
ATOM      2  C   UNL     1       0.383   4.231 -21.617  0.00  0.00    +0.000 C 
ATOM      3  C   UNL     1       2.089   3.485 -20.506  0.00  0.00    +0.000 C 
ATOM      4  C   UNL     1       0.870   5.493 -20.895  0.00  0.00    +0.000 C 
ATOM      5  C   UNL     1      -0.279   3.271 -20.623  0.00  0.00    +0.000 C 
ATOM      6  C   UNL     1       2.073   4.965 -20.110  0.00  0.00    +0.000 C 
ATOM      7  C   UNL     1       0.924   2.744 -19.840  0.00  0.00    +0.000 C 
ATOM      8  H   UNL     1       0.109   5.927 -20.237  0.00  0.00    +0.000 HD
ATOM      9  H   UNL     1       1.217   6.280 -21.569  0.00  0.00    +0.000 HD
ATOM     10  H   UNL     1      -0.771   2.436 -21.135  0.00  0.00    +0.000 HD
ATOM     11  H   UNL     1      -1.016   3.759 -19.978  0.00  0.00    +0.000 HD
ATOM     12  H   UNL     1       2.980   5.478 -20.449  0.00  0.00    +0.000 HD
ATOM     13  H   UNL     1       1.978   5.118 -19.030  0.00  0.00    +0.000 HD
ATOM     14  H   UNL     1       0.852   2.942 -18.766  0.00  0.00    +0.000 HD
ATOM     15  H   UNL     1       1.004   1.660 -19.983  0.00  0.00    +0.000 HD
ENDROOT
BRANCH   3  16
ATOM     16  C   UNL     1       3.432   2.806 -20.373  0.00  0.00    +0.000 C 
ATOM     17  H   UNL     1       3.320   1.733 -20.188  0.00  0.00    +0.000 HD
ATOM     18  H   UNL     1       4.031   2.945 -21.279  0.00  0.00    +0.000 HD
ATOM     19  H   UNL     1       4.010   3.244 -19.552  0.00  0.00    +0.000 HD
ENDBRANCH   3  16
BRANCH   2  20
ATOM     20  C   UNL     1      -0.412   4.489 -22.875  0.00  0.00    +0.000 C 
ATOM     21  H   UNL     1      -1.296   5.089 -22.622  0.00  0.00    +0.000 HD
BRANCH  20  22
ATOM     22  C   UNL     1       0.422   5.254 -23.911  0.00  0.00    +0.000 C 
ATOM     23  H   UNL     1       1.391   4.778 -24.088  0.00  0.00    +0.000 HD
ATOM     24  H   UNL     1      -0.107   5.291 -24.870  0.00  0.00    +0.000 HD
ATOM     25  H   UNL     1       0.598   6.287 -23.595  0.00  0.00    +0.000 HD
ENDBRANCH  20  22
BRANCH  20  26
ATOM     26  C   UNL     1      -0.928   3.179 -23.483  0.00  0.00    +0.000 C 
ATOM     27  H   UNL     1      -1.533   3.340 -24.381  0.00  0.00    +0.000 HD
ATOM     28  H   UNL     1      -1.568   2.662 -22.760  0.00  0.00    +0.000 HD
ATOM     29  H   UNL     1      -0.109   2.497 -23.733  0.00  0.00    +0.000 HD
ENDBRANCH  20  26
ENDBRANCH   2  20
TORSDOF 4
ENDMDL
MODEL 10
REMARK VINA RESULT:    -4.492     25.863     27.108
REMARK INTER + INTRA:          -5.349
REMARK INTER:                  -5.149
REMARK INTRA:                  -0.200
REMARK UNBOUND:                -0.201
REMARK  Name = 10106
REMARK  4 active torsions:
REMARK  status: ('A' for Active; 'I' for Inactive)
REMARK    1  A    between atoms: C_2  and  C_8
REMARK    2  A    between atoms: C_3  and  C_9
REMARK    3  A    between atoms: C_8  and  C_10
REMARK    4  A    between atoms: C_8  and  C_11
REMARK                            x       y       z     vdW  Elec       q    Type
REMARK                         _______ _______ _______ _____ _____    ______ ____
ROOT
ATOM      1  O   UNL     1       1.113   3.548 -22.106  0.00  0.00    +0.000 OA
ATOM      2  C   UNL     1       1.125   4.207 -20.817  0.00  0.00    +0.000 C 
ATOM      3  C   UNL     1      -0.311   3.660 -22.346  0.00  0.00    +0.000 C 
ATOM      4  C   UNL     1       0.131   3.345 -20.028  0.00  0.00    +0.000 C 
ATOM      5  C   UNL     1       0.495   5.561 -21.162  0.00  0.00    +0.000 C 
ATOM      6  C   UNL     1      -0.882   2.960 -21.108  0.00  0.00    +0.000 C 
ATOM      7  C   UNL     1      -0.517   5.176 -22.242  0.00  0.00    +0.000 C 
ATOM      8  H   UNL     1      -0.337   3.886 -19.199  0.00  0.00    +0.000 HD
ATOM      9  H   UNL     1       0.568   2.428 -19.624  0.00  0.00    +0.000 HD
ATOM     10  H   UNL     1       1.232   6.252 -21.587  0.00  0.00    +0.000 HD
ATOM     11  H   UNL     1       0.025   6.049 -20.303  0.00  0.00    +0.000 HD
ATOM     12  H   UNL     1      -0.884   1.871 -21.232  0.00  0.00    +0.000 HD
ATOM     13  H   UNL     1      -1.902   3.279 -20.869  0.00  0.00    +0.000 HD
ATOM     14  H   UNL     1      -1.543   5.449 -21.980  0.00  0.00    +0.000 HD
ATOM     15  H   UNL     1      -0.258   5.681 -23.180  0.00  0.00    +0.000 HD
ENDROOT
BRANCH   3  16
ATOM     16  C   UNL     1      -0.725   3.053 -23.666  0.00  0.00    +0.000 C 
ATOM     17  H   UNL     1      -1.420   2.220 -23.522  0.00  0.00    +0.000 HD
ATOM     18  H   UNL     1      -1.203   3.801 -24.306  0.00  0.00    +0.000 HD
ATOM     19  H   UNL     1       0.148   2.689 -24.219  0.00  0.00    +0.000 HD
ENDBRANCH   3  16
BRANCH   2  20
ATOM     20  C   UNL     1       2.509   4.285 -20.218  0.00  0.00    +0.000 C 
ATOM     21  H   UNL     1       2.465   3.951 -19.173  0.00  0.00    +0.000 HD
BRANCH  20  22
ATOM     22  C   UNL     1       3.494   3.390 -20.980  0.00  0.00    +0.000 C 
ATOM     23  H   UNL     1       2.979   2.649 -21.599  0.00  0.00    +0.000 HD
ATOM     24  H   UNL     1       4.121   3.996 -21.644  0.00  0.00    +0.000 HD
ATOM     25  H   UNL     1       4.163   2.860 -20.294  0.00  0.00    +0.000 HD
ENDBRANCH  20  22
BRANCH  20  26
ATOM     26  C   UNL     1       3.023   5.730 -20.197  0.00  0.00    +0.000 C 
ATOM     27  H   UNL     1       2.326   6.419 -19.712  0.00  0.00    +0.000 HD
ATOM     28  H   UNL     1       3.158   6.089 -21.224  0.00  0.00    +0.000 HD
ATOM     29  H   UNL     1       3.994   5.809 -19.699  0.00  0.00    +0.000 HD
ENDBRANCH  20  26
ENDBRANCH   2  20
TORSDOF 4
ENDMDL
