MODEL 1
REMARK VINA RESULT:    -4.831      0.000      0.000
REMARK INTER + INTRA:          -6.847
REMARK INTER:                  -6.398
REMARK INTRA:                  -0.450
REMARK UNBOUND:                -0.463
REMARK  Name = 1551246
REMARK  7 active torsions:
REMARK  status: ('A' for Active; 'I' for Inactive)
REMARK    1  A    between atoms: C_2  and  C_3
REMARK    2  A    between atoms: C_2  and  C_4
REMARK    3  A    between atoms: C_3  and  C_5
REMARK    4  A    between atoms: C_4  and  C_7
REMARK    5  A    between atoms: C_6  and  C_8
REMARK    6  A    between atoms: C_6  and  C_9
REMARK    7  A    between atoms: C_10  and  C_11
REMARK                            x       y       z     vdW  Elec       q    Type
REMARK                         _______ _______ _______ _____ _____    ______ ____
ROOT
ATOM      1  C   UNL     1      -8.209 -13.601   5.758  0.00  0.00    +0.000 C 
ATOM      2  H   UNL     1      -8.715 -12.727   6.188  0.00  0.00    +0.000 HD
ATOM      3  H   UNL     1      -8.803 -13.862   4.874  0.00  0.00    +0.000 HD
ENDROOT
BRANCH   1   4
ATOM      4  C   UNL     1      -6.782 -13.235   5.328  0.00  0.00    +0.000 C 
ATOM      5  H   UNL     1      -6.088 -13.988   5.723  0.00  0.00    +0.000 HD
ATOM      6  H   UNL     1      -6.490 -12.286   5.792  0.00  0.00    +0.000 HD
BRANCH   4   7
ATOM      7  C   UNL     1      -6.598 -13.150   3.825  0.00  0.00    +0.000 C 
ATOM      8  C   UNL     1      -7.438 -13.689   2.921  0.00  0.00    +0.000 C 
ATOM      9  H   UNL     1      -8.306 -14.244   3.268  0.00  0.00    +0.000 HD
BRANCH   7  10
ATOM     10  C   UNL     1      -5.396 -12.367   3.364  0.00  0.00    +0.000 C 
ATOM     11  H   UNL     1      -4.462 -12.629   3.868  0.00  0.00    +0.000 HD
ATOM     12  H   UNL     1      -5.225 -12.540   2.295  0.00  0.00    +0.000 HD
ATOM     13  H   UNL     1      -5.561 -11.295   3.513  0.00  0.00    +0.000 HD
ENDBRANCH   7  10
BRANCH   8  15
ATOM     14  N   UNL     1      -7.141 -13.474   0.365  0.00  0.00    +0.000 NA
ATOM     15  C   UNL     1      -7.274 -13.576   1.514  0.00  0.00    +0.000 C 
ENDBRANCH   8  15
ENDBRANCH   4   7
ENDBRANCH   1   4
BRANCH   1  16
ATOM     16  C   UNL     1      -8.239 -14.714   6.768  0.00  0.00    +0.000 C 
ATOM     17  C   UNL     1      -8.610 -15.995   6.583  0.00  0.00    +0.000 C 
ATOM     18  H   UNL     1      -7.912 -14.428   7.766  0.00  0.00    +0.000 HD
BRANCH  17  19
ATOM     19  C   UNL     1      -8.616 -17.061   7.643  0.00  0.00    +0.000 C 
ATOM     20  H   UNL     1      -8.560 -16.610   8.638  0.00  0.00    +0.000 HD
ATOM     21  H   UNL     1      -9.531 -17.659   7.578  0.00  0.00    +0.000 HD
ATOM     22  H   UNL     1      -7.764 -17.739   7.533  0.00  0.00    +0.000 HD
ENDBRANCH  17  19
BRANCH  17  23
ATOM     23  C   UNL     1      -9.056 -16.469   5.226  0.00  0.00    +0.000 C 
ATOM     24  H   UNL     1      -8.251 -16.319   4.498  0.00  0.00    +0.000 HD
ATOM     25  H   UNL     1      -9.938 -15.962   4.830  0.00  0.00    +0.000 HD
ATOM     26  H   UNL     1      -9.284 -17.540   5.262  0.00  0.00    +0.000 HD
ENDBRANCH  17  23
ENDBRANCH   1  16
TORSDOF 7
ENDMDL
MODEL 2
REMARK VINA RESULT:    -4.797      1.639      2.063
REMARK INTER + INTRA:          -6.803
REMARK INTER:                  -6.250
REMARK INTRA:                  -0.553
REMARK UNBOUND:                -0.463
REMARK  Name = 1551246
REMARK  7 active torsions:
REMARK  status: ('A' for Active; 'I' for Inactive)
REMARK    1  A    between atoms: C_2  and  C_3
REMARK    2  A    between atoms: C_2  and  C_4
REMARK    3  A    between atoms: C_3  and  C_5
REMARK    4  A    between atoms: C_4  and  C_7
REMARK    5  A    between atoms: C_6  and  C_8
REMARK    6  A    between atoms: C_6  and  C_9
REMARK    7  A    between atoms: C_10  and  C_11
REMARK                            x       y       z     vdW  Elec       q    Type
REMARK                         _______ _______ _______ _____ _____    ______ ____
ROOT
ATOM      1  C   UNL     1      -7.409 -13.386   6.010  0.00  0.00    +0.000 C 
ATOM      2  H   UNL     1      -6.348 -13.664   6.056  0.00  0.00    +0.000 HD
ATOM      3  H   UNL     1      -7.491 -12.489   6.634  0.00  0.00    +0.000 HD
ENDROOT
BRANCH   1   4
ATOM      4  C   UNL     1      -7.812 -13.050   4.568  0.00  0.00    +0.000 C 
ATOM      5  H   UNL     1      -7.908 -11.961   4.471  0.00  0.00    +0.000 HD
ATOM      6  H   UNL     1      -8.808 -13.459   4.360  0.00  0.00    +0.000 HD
BRANCH   4   7
ATOM      7  C   UNL     1      -6.826 -13.543   3.526  0.00  0.00    +0.000 C 
ATOM      8  C   UNL     1      -5.525 -13.796   3.765  0.00  0.00    +0.000 C 
ATOM      9  H   UNL     1      -5.126 -13.627   4.761  0.00  0.00    +0.000 HD
BRANCH   7  10
ATOM     10  C   UNL     1      -7.402 -13.784   2.155  0.00  0.00    +0.000 C 
ATOM     11  H   UNL     1      -7.400 -14.831   1.838  0.00  0.00    +0.000 HD
ATOM     12  H   UNL     1      -8.448 -13.459   2.127  0.00  0.00    +0.000 HD
ATOM     13  H   UNL     1      -6.848 -13.213   1.403  0.00  0.00    +0.000 HD
ENDBRANCH   7  10
BRANCH   8  15
ATOM     14  N   UNL     1      -3.877 -14.700   1.995  0.00  0.00    +0.000 NA
ATOM     15  C   UNL     1      -4.617 -14.290   2.789  0.00  0.00    +0.000 C 
ENDBRANCH   8  15
ENDBRANCH   4   7
ENDBRANCH   1   4
BRANCH   1  16
ATOM     16  C   UNL     1      -8.221 -14.513   6.587  0.00  0.00    +0.000 C 
ATOM     17  C   UNL     1      -7.881 -15.811   6.698  0.00  0.00    +0.000 C 
ATOM     18  H   UNL     1      -9.200 -14.220   6.960  0.00  0.00    +0.000 HD
BRANCH  17  19
ATOM     19  C   UNL     1      -8.745 -16.889   7.289  0.00  0.00    +0.000 C 
ATOM     20  H   UNL     1      -8.559 -16.981   8.363  0.00  0.00    +0.000 HD
ATOM     21  H   UNL     1      -9.804 -16.659   7.133  0.00  0.00    +0.000 HD
ATOM     22  H   UNL     1      -8.543 -17.862   6.829  0.00  0.00    +0.000 HD
ENDBRANCH  17  19
BRANCH  17  23
ATOM     23  C   UNL     1      -6.535 -16.288   6.222  0.00  0.00    +0.000 C 
ATOM     24  H   UNL     1      -5.874 -15.430   6.058  0.00  0.00    +0.000 HD
ATOM     25  H   UNL     1      -6.552 -16.855   5.289  0.00  0.00    +0.000 HD
ATOM     26  H   UNL     1      -6.077 -16.928   6.984  0.00  0.00    +0.000 HD
ENDBRANCH  17  23
ENDBRANCH   1  16
TORSDOF 7
ENDMDL
MODEL 3
REMARK VINA RESULT:    -4.413     31.045     32.873
REMARK INTER + INTRA:          -6.295
REMARK INTER:                  -5.730
REMARK INTRA:                  -0.565
REMARK UNBOUND:                -0.463
REMARK  Name = 1551246
REMARK  7 active torsions:
REMARK  status: ('A' for Active; 'I' for Inactive)
REMARK    1  A    between atoms: C_2  and  C_3
REMARK    2  A    between atoms: C_2  and  C_4
REMARK    3  A    between atoms: C_3  and  C_5
REMARK    4  A    between atoms: C_4  and  C_7
REMARK    5  A    between atoms: C_6  and  C_8
REMARK    6  A    between atoms: C_6  and  C_9
REMARK    7  A    between atoms: C_10  and  C_11
REMARK                            x       y       z     vdW  Elec       q    Type
REMARK                         _______ _______ _______ _____ _____    ______ ____
ROOT
ATOM      1  C   UNL     1       2.673   6.326 -20.147  0.00  0.00    +0.000 C 
ATOM      2  H   UNL     1       2.991   5.845 -21.081  0.00  0.00    +0.000 HD
ATOM      3  H   UNL     1       2.437   7.358 -20.429  0.00  0.00    +0.000 HD
ENDROOT
BRANCH   1   4
ATOM      4  C   UNL     1       1.413   5.643 -19.597  0.00  0.00    +0.000 C 
ATOM      5  H   UNL     1       0.565   6.330 -19.694  0.00  0.00    +0.000 HD
ATOM      6  H   UNL     1       1.532   5.463 -18.522  0.00  0.00    +0.000 HD
BRANCH   4   7
ATOM      7  C   UNL     1       1.065   4.343 -20.300  0.00  0.00    +0.000 C 
ATOM      8  C   UNL     1       1.397   4.050 -21.572  0.00  0.00    +0.000 C 
ATOM      9  H   UNL     1       1.937   4.786 -22.161  0.00  0.00    +0.000 HD
BRANCH   7  10
ATOM     10  C   UNL     1       0.329   3.332 -19.460  0.00  0.00    +0.000 C 
ATOM     11  H   UNL     1       0.687   3.249 -18.430  0.00  0.00    +0.000 HD
ATOM     12  H   UNL     1      -0.731   3.603 -19.394  0.00  0.00    +0.000 HD
ATOM     13  H   UNL     1       0.398   2.338 -19.913  0.00  0.00    +0.000 HD
ENDBRANCH   7  10
BRANCH   8  15
ATOM     14  N   UNL     1       0.846   1.814 -22.737  0.00  0.00    +0.000 NA
ATOM     15  C   UNL     1       1.095   2.817 -22.209  0.00  0.00    +0.000 C 
ENDBRANCH   8  15
ENDBRANCH   4   7
ENDBRANCH   1   4
BRANCH   1  16
ATOM     16  C   UNL     1       3.820   6.286 -19.176  0.00  0.00    +0.000 C 
ATOM     17  C   UNL     1       4.787   5.356 -19.068  0.00  0.00    +0.000 C 
ATOM     18  H   UNL     1       3.857   7.127 -18.486  0.00  0.00    +0.000 HD
BRANCH  17  19
ATOM     19  C   UNL     1       5.910   5.379 -18.070  0.00  0.00    +0.000 C 
ATOM     20  H   UNL     1       5.936   4.444 -17.503  0.00  0.00    +0.000 HD
ATOM     21  H   UNL     1       6.871   5.509 -18.578  0.00  0.00    +0.000 HD
ATOM     22  H   UNL     1       5.795   6.201 -17.356  0.00  0.00    +0.000 HD
ENDBRANCH  17  19
BRANCH  17  23
ATOM     23  C   UNL     1       4.812   4.175 -20.001  0.00  0.00    +0.000 C 
ATOM     24  H   UNL     1       4.561   4.499 -21.017  0.00  0.00    +0.000 HD
ATOM     25  H   UNL     1       4.117   3.373 -19.745  0.00  0.00    +0.000 HD
ATOM     26  H   UNL     1       5.817   3.739 -20.023  0.00  0.00    +0.000 HD
ENDBRANCH  17  23
ENDBRANCH   1  16
TORSDOF 7
ENDMDL
MODEL 4
REMARK VINA RESULT:    -4.244      1.664      2.487
REMARK INTER + INTRA:          -6.072
REMARK INTER:                  -5.953
REMARK INTRA:                  -0.119
REMARK UNBOUND:                -0.463
REMARK  Name = 1551246
REMARK  7 active torsions:
REMARK  status: ('A' for Active; 'I' for Inactive)
REMARK    1  A    between atoms: C_2  and  C_3
REMARK    2  A    between atoms: C_2  and  C_4
REMARK    3  A    between atoms: C_3  and  C_5
REMARK    4  A    between atoms: C_4  and  C_7
REMARK    5  A    between atoms: C_6  and  C_8
REMARK    6  A    between atoms: C_6  and  C_9
REMARK    7  A    between atoms: C_10  and  C_11
REMARK                            x       y       z     vdW  Elec       q    Type
REMARK                         _______ _______ _______ _____ _____    ______ ____
ROOT
ATOM      1  C   UNL     1      -7.700 -13.092   4.309  0.00  0.00    +0.000 C 
ATOM      2  H   UNL     1      -7.429 -12.311   5.031  0.00  0.00    +0.000 HD
ATOM      3  H   UNL     1      -8.576 -12.694   3.783  0.00  0.00    +0.000 HD
ENDROOT
BRANCH   1   4
ATOM      4  C   UNL     1      -6.557 -13.316   3.310  0.00  0.00    +0.000 C 
ATOM      5  H   UNL     1      -5.730 -13.821   3.824  0.00  0.00    +0.000 HD
ATOM      6  H   UNL     1      -6.160 -12.349   2.981  0.00  0.00    +0.000 HD
BRANCH   4   7
ATOM      7  C   UNL     1      -6.954 -14.146   2.103  0.00  0.00    +0.000 C 
ATOM      8  C   UNL     1      -7.142 -15.479   2.121  0.00  0.00    +0.000 C 
ATOM      9  H   UNL     1      -6.989 -16.023   3.049  0.00  0.00    +0.000 HD
BRANCH   7  10
ATOM     10  C   UNL     1      -7.173 -13.370   0.830  0.00  0.00    +0.000 C 
ATOM     11  H   UNL     1      -8.152 -12.887   0.755  0.00  0.00    +0.000 HD
ATOM     12  H   UNL     1      -6.430 -12.569   0.749  0.00  0.00    +0.000 HD
ATOM     13  H   UNL     1      -7.063 -14.026  -0.039  0.00  0.00    +0.000 HD
ENDBRANCH   7  10
BRANCH   8  15
ATOM     14  N   UNL     1      -7.884 -16.863   0.072  0.00  0.00    +0.000 NA
ATOM     15  C   UNL     1      -7.546 -16.242   0.991  0.00  0.00    +0.000 C 
ENDBRANCH   8  15
ENDBRANCH   4   7
ENDBRANCH   1   4
BRANCH   1  16
ATOM     16  C   UNL     1      -8.056 -14.341   5.068  0.00  0.00    +0.000 C 
ATOM     17  C   UNL     1      -8.064 -14.530   6.400  0.00  0.00    +0.000 C 
ATOM     18  H   UNL     1      -8.342 -15.184   4.442  0.00  0.00    +0.000 HD
BRANCH  17  19
ATOM     19  C   UNL     1      -8.432 -15.811   7.095  0.00  0.00    +0.000 C 
ATOM     20  H   UNL     1      -9.507 -15.996   7.009  0.00  0.00    +0.000 HD
ATOM     21  H   UNL     1      -7.893 -16.654   6.652  0.00  0.00    +0.000 HD
ATOM     22  H   UNL     1      -8.182 -15.775   8.160  0.00  0.00    +0.000 HD
ENDBRANCH  17  19
BRANCH  17  23
ATOM     23  C   UNL     1      -7.698 -13.404   7.330  0.00  0.00    +0.000 C 
ATOM     24  H   UNL     1      -7.701 -13.762   8.366  0.00  0.00    +0.000 HD
ATOM     25  H   UNL     1      -8.367 -12.542   7.293  0.00  0.00    +0.000 HD
ATOM     26  H   UNL     1      -6.690 -13.044   7.099  0.00  0.00    +0.000 HD
ENDBRANCH  17  23
ENDBRANCH   1  16
TORSDOF 7
ENDMDL
MODEL 5
REMARK VINA RESULT:    -4.227     31.148     32.844
REMARK INTER + INTRA:          -6.050
REMARK INTER:                  -5.487
REMARK INTRA:                  -0.563
REMARK UNBOUND:                -0.463
REMARK  Name = 1551246
REMARK  7 active torsions:
REMARK  status: ('A' for Active; 'I' for Inactive)
REMARK    1  A    between atoms: C_2  and  C_3
REMARK    2  A    between atoms: C_2  and  C_4
REMARK    3  A    between atoms: C_3  and  C_5
REMARK    4  A    between atoms: C_4  and  C_7
REMARK    5  A    between atoms: C_6  and  C_8
REMARK    6  A    between atoms: C_6  and  C_9
REMARK    7  A    between atoms: C_10  and  C_11
REMARK                            x       y       z     vdW  Elec       q    Type
REMARK                         _______ _______ _______ _____ _____    ______ ____
ROOT
ATOM      1  C   UNL     1       3.096   5.885 -20.388  0.00  0.00    +0.000 C 
ATOM      2  H   UNL     1       2.843   6.865 -20.812  0.00  0.00    +0.000 HD
ATOM      3  H   UNL     1       3.590   5.346 -21.204  0.00  0.00    +0.000 HD
ENDROOT
BRANCH   1   4
ATOM      4  C   UNL     1       4.070   6.046 -19.213  0.00  0.00    +0.000 C 
ATOM      5  H   UNL     1       3.548   5.794 -18.282  0.00  0.00    +0.000 HD
ATOM      6  H   UNL     1       4.361   7.099 -19.119  0.00  0.00    +0.000 HD
BRANCH   4   7
ATOM      7  C   UNL     1       5.310   5.178 -19.323  0.00  0.00    +0.000 C 
ATOM      8  C   UNL     1       6.018   4.723 -18.272  0.00  0.00    +0.000 C 
ATOM      9  H   UNL     1       5.711   4.997 -17.267  0.00  0.00    +0.000 HD
BRANCH   7  10
ATOM     10  C   UNL     1       5.711   4.799 -20.725  0.00  0.00    +0.000 C 
ATOM     11  H   UNL     1       4.893   4.812 -21.451  0.00  0.00    +0.000 HD
ATOM     12  H   UNL     1       6.464   5.501 -21.100  0.00  0.00    +0.000 HD
ATOM     13  H   UNL     1       6.146   3.794 -20.738  0.00  0.00    +0.000 HD
ENDBRANCH   7  10
BRANCH   8  15
ATOM     14  N   UNL     1       8.095   3.203 -18.475  0.00  0.00    +0.000 NA
ATOM     15  C   UNL     1       7.159   3.882 -18.385  0.00  0.00    +0.000 C 
ENDBRANCH   8  15
ENDBRANCH   4   7
ENDBRANCH   1   4
BRANCH   1  16
ATOM     16  C   UNL     1       1.821   5.195 -19.989  0.00  0.00    +0.000 C 
ATOM     17  C   UNL     1       1.536   3.880 -20.038  0.00  0.00    +0.000 C 
ATOM     18  H   UNL     1       1.046   5.860 -19.612  0.00  0.00    +0.000 HD
BRANCH  17  19
ATOM     19  C   UNL     1       0.235   3.255 -19.621  0.00  0.00    +0.000 C 
ATOM     20  H   UNL     1      -0.491   4.029 -19.353  0.00  0.00    +0.000 HD
ATOM     21  H   UNL     1      -0.178   2.651 -20.435  0.00  0.00    +0.000 HD
ATOM     22  H   UNL     1       0.364   2.602 -18.752  0.00  0.00    +0.000 HD
ENDBRANCH  17  19
BRANCH  17  23
ATOM     23  C   UNL     1       2.565   2.898 -20.530  0.00  0.00    +0.000 C 
ATOM     24  H   UNL     1       2.425   2.719 -21.602  0.00  0.00    +0.000 HD
ATOM     25  H   UNL     1       2.537   1.922 -20.041  0.00  0.00    +0.000 HD
ATOM     26  H   UNL     1       3.570   3.307 -20.383  0.00  0.00    +0.000 HD
ENDBRANCH  17  23
ENDBRANCH   1  16
TORSDOF 7
ENDMDL
MODEL 6
REMARK VINA RESULT:    -4.186      3.916      6.676
REMARK INTER + INTRA:          -5.995
REMARK INTER:                  -5.601
REMARK INTRA:                  -0.394
REMARK UNBOUND:                -0.463
REMARK  Name = 1551246
REMARK  7 active torsions:
REMARK  status: ('A' for Active; 'I' for Inactive)
REMARK    1  A    between atoms: C_2  and  C_3
REMARK    2  A    between atoms: C_2  and  C_4
REMARK    3  A    between atoms: C_3  and  C_5
REMARK    4  A    between atoms: C_4  and  C_7
REMARK    5  A    between atoms: C_6  and  C_8
REMARK    6  A    between atoms: C_6  and  C_9
REMARK    7  A    between atoms: C_10  and  C_11
REMARK                            x       y       z     vdW  Elec       q    Type
REMARK                         _______ _______ _______ _____ _____    ______ ____
ROOT
ATOM      1  C   UNL     1      -5.119 -16.070   0.427  0.00  0.00    +0.000 C 
ATOM      2  H   UNL     1      -4.356 -15.908   1.199  0.00  0.00    +0.000 HD
ATOM      3  H   UNL     1      -5.520 -17.069   0.635  0.00  0.00    +0.000 HD
ENDROOT
BRANCH   1   4
ATOM      4  C   UNL     1      -6.239 -15.029   0.554  0.00  0.00    +0.000 C 
ATOM      5  H   UNL     1      -7.205 -15.525   0.399  0.00  0.00    +0.000 HD
ATOM      6  H   UNL     1      -6.148 -14.290  -0.252  0.00  0.00    +0.000 HD
BRANCH   4   7
ATOM      7  C   UNL     1      -6.269 -14.323   1.897  0.00  0.00    +0.000 C 
ATOM      8  C   UNL     1      -7.380 -13.832   2.477  0.00  0.00    +0.000 C 
ATOM      9  H   UNL     1      -8.331 -13.919   1.959  0.00  0.00    +0.000 HD
BRANCH   7  10
ATOM     10  C   UNL     1      -4.942 -14.224   2.604  0.00  0.00    +0.000 C 
ATOM     11  H   UNL     1      -4.741 -15.036   3.309  0.00  0.00    +0.000 HD
ATOM     12  H   UNL     1      -4.127 -14.247   1.872  0.00  0.00    +0.000 HD
ATOM     13  H   UNL     1      -4.875 -13.283   3.159  0.00  0.00    +0.000 HD
ENDBRANCH   7  10
BRANCH   8  15
ATOM     14  N   UNL     1      -7.416 -12.694   4.794  0.00  0.00    +0.000 NA
ATOM     15  C   UNL     1      -7.402 -13.202   3.751  0.00  0.00    +0.000 C 
ENDBRANCH   8  15
ENDBRANCH   4   7
ENDBRANCH   1   4
BRANCH   1  16
ATOM     16  C   UNL     1      -4.450 -16.034  -0.920  0.00  0.00    +0.000 C 
ATOM     17  C   UNL     1      -3.154 -15.797  -1.198  0.00  0.00    +0.000 C 
ATOM     18  H   UNL     1      -5.113 -16.231  -1.760  0.00  0.00    +0.000 HD
BRANCH  17  19
ATOM     19  C   UNL     1      -2.549 -15.777  -2.573  0.00  0.00    +0.000 C 
ATOM     20  H   UNL     1      -2.308 -16.793  -2.899  0.00  0.00    +0.000 HD
ATOM     21  H   UNL     1      -3.246 -15.333  -3.291  0.00  0.00    +0.000 HD
ATOM     22  H   UNL     1      -1.625 -15.190  -2.596  0.00  0.00    +0.000 HD
ENDBRANCH  17  19
BRANCH  17  23
ATOM     23  C   UNL     1      -2.173 -15.536  -0.086  0.00  0.00    +0.000 C 
ATOM     24  H   UNL     1      -1.805 -16.487   0.314  0.00  0.00    +0.000 HD
ATOM     25  H   UNL     1      -2.576 -14.974   0.759  0.00  0.00    +0.000 HD
ATOM     26  H   UNL     1      -1.315 -14.975  -0.471  0.00  0.00    +0.000 HD
ENDBRANCH  17  23
ENDBRANCH   1  16
TORSDOF 7
ENDMDL
MODEL 7
REMARK VINA RESULT:    -4.156      6.972      8.346
REMARK INTER + INTRA:          -5.956
REMARK INTER:                  -5.634
REMARK INTRA:                  -0.322
REMARK UNBOUND:                -0.463
REMARK  Name = 1551246
REMARK  7 active torsions:
REMARK  status: ('A' for Active; 'I' for Inactive)
REMARK    1  A    between atoms: C_2  and  C_3
REMARK    2  A    between atoms: C_2  and  C_4
REMARK    3  A    between atoms: C_3  and  C_5
REMARK    4  A    between atoms: C_4  and  C_7
REMARK    5  A    between atoms: C_6  and  C_8
REMARK    6  A    between atoms: C_6  and  C_9
REMARK    7  A    between atoms: C_10  and  C_11
REMARK                            x       y       z     vdW  Elec       q    Type
REMARK                         _______ _______ _______ _____ _____    ______ ____
ROOT
ATOM      1  C   UNL     1     -16.332 -15.416   3.267  0.00  0.00    +0.000 C 
ATOM      2  H   UNL     1     -15.894 -14.439   3.028  0.00  0.00    +0.000 HD
ATOM      3  H   UNL     1     -17.152 -15.194   3.960  0.00  0.00    +0.000 HD
ENDROOT
BRANCH   1   4
ATOM      4  C   UNL     1     -16.893 -16.075   2.000  0.00  0.00    +0.000 C 
ATOM      5  H   UNL     1     -17.557 -15.363   1.494  0.00  0.00    +0.000 HD
ATOM      6  H   UNL     1     -17.523 -16.929   2.277  0.00  0.00    +0.000 HD
BRANCH   4   7
ATOM      7  C   UNL     1     -15.826 -16.521   1.018  0.00  0.00    +0.000 C 
ATOM      8  C   UNL     1     -14.804 -15.751   0.598  0.00  0.00    +0.000 C 
ATOM      9  H   UNL     1     -14.727 -14.730   0.960  0.00  0.00    +0.000 HD
BRANCH   7  10
ATOM     10  C   UNL     1     -15.944 -17.945   0.539  0.00  0.00    +0.000 C 
ATOM     11  H   UNL     1     -16.722 -18.109  -0.212  0.00  0.00    +0.000 HD
ATOM     12  H   UNL     1     -15.002 -18.262   0.077  0.00  0.00    +0.000 HD
ATOM     13  H   UNL     1     -16.152 -18.614   1.380  0.00  0.00    +0.000 HD
ENDBRANCH   7  10
BRANCH   8  15
ATOM     14  N   UNL     1     -12.960 -16.541  -1.026  0.00  0.00    +0.000 NA
ATOM     15  C   UNL     1     -13.791 -16.190  -0.296  0.00  0.00    +0.000 C 
ENDBRANCH   8  15
ENDBRANCH   4   7
ENDBRANCH   1   4
BRANCH   1  16
ATOM     16  C   UNL     1     -15.281 -16.259   3.937  0.00  0.00    +0.000 C 
ATOM     17  C   UNL     1     -14.301 -15.859   4.768  0.00  0.00    +0.000 C 
ATOM     18  H   UNL     1     -15.342 -17.322   3.710  0.00  0.00    +0.000 HD
BRANCH  17  19
ATOM     19  C   UNL     1     -13.279 -16.759   5.405  0.00  0.00    +0.000 C 
ATOM     20  H   UNL     1     -12.734 -17.320   4.640  0.00  0.00    +0.000 HD
ATOM     21  H   UNL     1     -12.563 -16.171   5.988  0.00  0.00    +0.000 HD
ATOM     22  H   UNL     1     -13.748 -17.482   6.081  0.00  0.00    +0.000 HD
ENDBRANCH  17  19
BRANCH  17  23
ATOM     23  C   UNL     1     -14.166 -14.407   5.142  0.00  0.00    +0.000 C 
ATOM     24  H   UNL     1     -13.455 -14.302   5.969  0.00  0.00    +0.000 HD
ATOM     25  H   UNL     1     -15.093 -13.928   5.461  0.00  0.00    +0.000 HD
ATOM     26  H   UNL     1     -13.782 -13.837   4.289  0.00  0.00    +0.000 HD
ENDBRANCH  17  23
ENDBRANCH   1  16
TORSDOF 7
ENDMDL
MODEL 8
REMARK VINA RESULT:    -4.085     13.664     14.875
REMARK INTER + INTRA:          -5.861
REMARK INTER:                  -5.588
REMARK INTRA:                  -0.273
REMARK UNBOUND:                -0.463
REMARK  Name = 1551246
REMARK  7 active torsions:
REMARK  status: ('A' for Active; 'I' for Inactive)
REMARK    1  A    between atoms: C_2  and  C_3
REMARK    2  A    between atoms: C_2  and  C_4
REMARK    3  A    between atoms: C_3  and  C_5
REMARK    4  A    between atoms: C_4  and  C_7
REMARK    5  A    between atoms: C_6  and  C_8
REMARK    6  A    between atoms: C_6  and  C_9
REMARK    7  A    between atoms: C_10  and  C_11
REMARK                            x       y       z     vdW  Elec       q    Type
REMARK                         _______ _______ _______ _____ _____    ______ ____
ROOT
ATOM      1  C   UNL     1     -16.864  -6.413  -2.671  0.00  0.00    +0.000 C 
ATOM      2  H   UNL     1     -17.273  -6.978  -3.518  0.00  0.00    +0.000 HD
ATOM      3  H   UNL     1     -16.463  -7.176  -1.993  0.00  0.00    +0.000 HD
ENDROOT
BRANCH   1   4
ATOM      4  C   UNL     1     -15.729  -5.493  -3.139  0.00  0.00    +0.000 C 
ATOM      5  H   UNL     1     -15.069  -5.282  -2.289  0.00  0.00    +0.000 HD
ATOM      6  H   UNL     1     -16.143  -4.525  -3.445  0.00  0.00    +0.000 HD
BRANCH   4   7
ATOM      7  C   UNL     1     -14.895  -6.075  -4.266  0.00  0.00    +0.000 C 
ATOM      8  C   UNL     1     -15.401  -6.614  -5.391  0.00  0.00    +0.000 C 
ATOM      9  H   UNL     1     -16.480  -6.663  -5.516  0.00  0.00    +0.000 HD
BRANCH   7  10
ATOM     10  C   UNL     1     -13.403  -5.984  -4.078  0.00  0.00    +0.000 C 
ATOM     11  H   UNL     1     -12.906  -6.945  -3.919  0.00  0.00    +0.000 HD
ATOM     12  H   UNL     1     -12.941  -5.546  -4.969  0.00  0.00    +0.000 HD
ATOM     13  H   UNL     1     -13.165  -5.345  -3.221  0.00  0.00    +0.000 HD
ENDBRANCH   7  10
BRANCH   8  15
ATOM     14  N   UNL     1     -13.970  -7.550  -7.324  0.00  0.00    +0.000 NA
ATOM     15  C   UNL     1     -14.610  -7.126  -6.455  0.00  0.00    +0.000 C 
ENDBRANCH   8  15
ENDBRANCH   4   7
ENDBRANCH   1   4
BRANCH   1  16
ATOM     16  C   UNL     1     -17.987  -5.656  -2.017  0.00  0.00    +0.000 C 
ATOM     17  C   UNL     1     -19.311  -5.797  -2.214  0.00  0.00    +0.000 C 
ATOM     18  H   UNL     1     -17.667  -4.908  -1.293  0.00  0.00    +0.000 HD
BRANCH  17  19
ATOM     19  C   UNL     1     -20.383  -5.003  -1.523  0.00  0.00    +0.000 C 
ATOM     20  H   UNL     1     -20.334  -5.157  -0.441  0.00  0.00    +0.000 HD
ATOM     21  H   UNL     1     -20.264  -3.935  -1.732  0.00  0.00    +0.000 HD
ATOM     22  H   UNL     1     -21.382  -5.300  -1.859  0.00  0.00    +0.000 HD
ENDBRANCH  17  19
BRANCH  17  23
ATOM     23  C   UNL     1     -19.829  -6.824  -3.185  0.00  0.00    +0.000 C 
ATOM     24  H   UNL     1     -19.895  -7.800  -2.692  0.00  0.00    +0.000 HD
ATOM     25  H   UNL     1     -19.216  -6.963  -4.077  0.00  0.00    +0.000 HD
ATOM     26  H   UNL     1     -20.834  -6.545  -3.520  0.00  0.00    +0.000 HD
ENDBRANCH  17  23
ENDBRANCH   1  16
TORSDOF 7
ENDMDL
MODEL 9
REMARK VINA RESULT:    -4.051     14.075     15.633
REMARK INTER + INTRA:          -5.817
REMARK INTER:                  -5.457
REMARK INTRA:                  -0.360
REMARK UNBOUND:                -0.463
REMARK  Name = 1551246
REMARK  7 active torsions:
REMARK  status: ('A' for Active; 'I' for Inactive)
REMARK    1  A    between atoms: C_2  and  C_3
REMARK    2  A    between atoms: C_2  and  C_4
REMARK    3  A    between atoms: C_3  and  C_5
REMARK    4  A    between atoms: C_4  and  C_7
REMARK    5  A    between atoms: C_6  and  C_8
REMARK    6  A    between atoms: C_6  and  C_9
REMARK    7  A    between atoms: C_10  and  C_11
REMARK                            x       y       z     vdW  Elec       q    Type
REMARK                         _______ _______ _______ _____ _____    ______ ____
ROOT
ATOM      1  C   UNL     1     -16.059  -5.435  -2.903  0.00  0.00    +0.000 C 
ATOM      2  H   UNL     1     -16.436  -4.421  -3.089  0.00  0.00    +0.000 HD
ATOM      3  H   UNL     1     -15.116  -5.288  -2.364  0.00  0.00    +0.000 HD
ENDROOT
BRANCH   1   4
ATOM      4  C   UNL     1     -17.040  -6.218  -2.020  0.00  0.00    +0.000 C 
ATOM      5  H   UNL     1     -17.030  -5.788  -1.011  0.00  0.00    +0.000 HD
ATOM      6  H   UNL     1     -16.692  -7.252  -1.910  0.00  0.00    +0.000 HD
BRANCH   4   7
ATOM      7  C   UNL     1     -18.467  -6.208  -2.535  0.00  0.00    +0.000 C 
ATOM      8  C   UNL     1     -19.172  -7.311  -2.853  0.00  0.00    +0.000 C 
ATOM      9  H   UNL     1     -18.702  -8.286  -2.759  0.00  0.00    +0.000 HD
BRANCH   7  10
ATOM     10  C   UNL     1     -19.105  -4.848  -2.646  0.00  0.00    +0.000 C 
ATOM     11  H   UNL     1     -19.656  -4.678  -3.576  0.00  0.00    +0.000 HD
ATOM     12  H   UNL     1     -19.827  -4.707  -1.834  0.00  0.00    +0.000 HD
ATOM     13  H   UNL     1     -18.346  -4.064  -2.566  0.00  0.00    +0.000 HD
ENDBRANCH   7  10
BRANCH   8  15
ATOM     14  N   UNL     1     -21.618  -7.280  -3.678  0.00  0.00    +0.000 NA
ATOM     15  C   UNL     1     -20.520  -7.292  -3.303  0.00  0.00    +0.000 C 
ENDBRANCH   8  15
ENDBRANCH   4   7
ENDBRANCH   1   4
BRANCH   1  16
ATOM     16  C   UNL     1     -15.816  -6.104  -4.228  0.00  0.00    +0.000 C 
ATOM     17  C   UNL     1     -14.638  -6.369  -4.822  0.00  0.00    +0.000 C 
ATOM     18  H   UNL     1     -16.720  -6.407  -4.754  0.00  0.00    +0.000 HD
BRANCH  17  19
ATOM     19  C   UNL     1     -14.467  -7.044  -6.154  0.00  0.00    +0.000 C 
ATOM     20  H   UNL     1     -15.051  -6.527  -6.922  0.00  0.00    +0.000 HD
ATOM     21  H   UNL     1     -13.414  -7.042  -6.452  0.00  0.00    +0.000 HD
ATOM     22  H   UNL     1     -14.803  -8.086  -6.122  0.00  0.00    +0.000 HD
ENDBRANCH  17  19
BRANCH  17  23
ATOM     23  C   UNL     1     -13.345  -5.997  -4.147  0.00  0.00    +0.000 C 
ATOM     24  H   UNL     1     -13.048  -4.986  -4.445  0.00  0.00    +0.000 HD
ATOM     25  H   UNL     1     -12.503  -6.653  -4.376  0.00  0.00    +0.000 HD
ATOM     26  H   UNL     1     -13.477  -6.006  -3.060  0.00  0.00    +0.000 HD
ENDBRANCH  17  23
ENDBRANCH   1  16
TORSDOF 7
ENDMDL
MODEL 10
REMARK VINA RESULT:    -3.934     27.049     29.635
REMARK INTER + INTRA:          -5.663
REMARK INTER:                  -5.199
REMARK INTRA:                  -0.463
REMARK UNBOUND:                -0.463
REMARK  Name = 1551246
REMARK  7 active torsions:
REMARK  status: ('A' for Active; 'I' for Inactive)
REMARK    1  A    between atoms: C_2  and  C_3
REMARK    2  A    between atoms: C_2  and  C_4
REMARK    3  A    between atoms: C_3  and  C_5
REMARK    4  A    between atoms: C_4  and  C_7
REMARK    5  A    between atoms: C_6  and  C_8
REMARK    6  A    between atoms: C_6  and  C_9
REMARK    7  A    between atoms: C_10  and  C_11
REMARK                            x       y       z     vdW  Elec       q    Type
REMARK                         _______ _______ _______ _____ _____    ______ ____
ROOT
ATOM      1  C   UNL     1      15.860   4.483  -0.304  0.00  0.00    +0.000 C 
ATOM      2  H   UNL     1      15.811   5.216   0.512  0.00  0.00    +0.000 HD
ATOM      3  H   UNL     1      16.870   4.062  -0.241  0.00  0.00    +0.000 HD
ENDROOT
BRANCH   1   4
ATOM      4  C   UNL     1      14.824   3.372  -0.088  0.00  0.00    +0.000 C 
ATOM      5  H   UNL     1      15.327   2.399  -0.158  0.00  0.00    +0.000 HD
ATOM      6  H   UNL     1      14.090   3.390  -0.902  0.00  0.00    +0.000 HD
BRANCH   4   7
ATOM      7  C   UNL     1      14.111   3.452   1.249  0.00  0.00    +0.000 C 
ATOM      8  C   UNL     1      12.840   3.868   1.413  0.00  0.00    +0.000 C 
ATOM      9  H   UNL     1      12.272   4.190   0.545  0.00  0.00    +0.000 HD
BRANCH   7  10
ATOM     10  C   UNL     1      14.912   2.988   2.438  0.00  0.00    +0.000 C 
ATOM     11  H   UNL     1      15.878   2.540   2.188  0.00  0.00    +0.000 HD
ATOM     12  H   UNL     1      15.131   3.838   3.094  0.00  0.00    +0.000 HD
ATOM     13  H   UNL     1      14.346   2.250   3.014  0.00  0.00    +0.000 HD
ENDBRANCH   7  10
BRANCH   8  15
ATOM     14  N   UNL     1      11.626   3.931   3.690  0.00  0.00    +0.000 NA
ATOM     15  C   UNL     1      12.171   3.907   2.666  0.00  0.00    +0.000 C 
ENDBRANCH   8  15
ENDBRANCH   4   7
ENDBRANCH   1   4
BRANCH   1  16
ATOM     16  C   UNL     1      15.664   5.208  -1.607  0.00  0.00    +0.000 C 
ATOM     17  C   UNL     1      14.878   6.272  -1.856  0.00  0.00    +0.000 C 
ATOM     18  H   UNL     1      16.242   4.808  -2.438  0.00  0.00    +0.000 HD
BRANCH  17  19
ATOM     19  C   UNL     1      14.730   6.951  -3.189  0.00  0.00    +0.000 C 
ATOM     20  H   UNL     1      13.671   7.059  -3.446  0.00  0.00    +0.000 HD
ATOM     21  H   UNL     1      15.189   7.944  -3.166  0.00  0.00    +0.000 HD
ATOM     22  H   UNL     1      15.212   6.378  -3.987  0.00  0.00    +0.000 HD
ENDBRANCH  17  19
BRANCH  17  23
ATOM     23  C   UNL     1      14.065   6.892  -0.752  0.00  0.00    +0.000 C 
ATOM     24  H   UNL     1      13.433   7.689  -1.159  0.00  0.00    +0.000 HD
ATOM     25  H   UNL     1      14.651   7.337   0.055  0.00  0.00    +0.000 HD
ATOM     26  H   UNL     1      13.412   6.137  -0.302  0.00  0.00    +0.000 HD
ENDBRANCH  17  23
ENDBRANCH   1  16
TORSDOF 7
ENDMDL
