MODEL 1
REMARK VINA RESULT:    -5.630      0.000      0.000
REMARK INTER + INTRA:          -5.630
REMARK INTER:                  -5.630
REMARK INTRA:                   0.000
REMARK UNBOUND:                 0.000
REMARK  Name = 323
REMARK  0 active torsions:
REMARK  status: ('A' for Active; 'I' for Inactive)
REMARK                            x       y       z     vdW  Elec       q    Type
REMARK                         _______ _______ _______ _____ _____    ______ ____
ROOT
ATOM      1  O   UNL     1      -4.312   4.832  27.420  0.00  0.00    +0.000 OA
ATOM      2  O   UNL     1      -6.410   3.971  27.742  0.00  0.00    +0.000 OA
ATOM      3  C   UNL     1      -3.554   5.284  25.152  0.00  0.00    +0.000 A 
ATOM      4  C   UNL     1      -3.323   5.287  26.525  0.00  0.00    +0.000 A 
ATOM      5  C   UNL     1      -2.550   5.743  24.297  0.00  0.00    +0.000 A 
ATOM      6  C   UNL     1      -4.833   4.803  24.658  0.00  0.00    +0.000 A 
ATOM      7  C   UNL     1      -2.119   5.735  27.064  0.00  0.00    +0.000 A 
ATOM      8  C   UNL     1      -1.337   6.195  24.823  0.00  0.00    +0.000 A 
ATOM      9  C   UNL     1      -1.122   6.191  26.204  0.00  0.00    +0.000 A 
ATOM     10  C   UNL     1      -5.765   4.374  25.513  0.00  0.00    +0.000 A 
ATOM     11  C   UNL     1      -5.544   4.367  26.971  0.00  0.00    +0.000 A 
ATOM     12  H   UNL     1      -2.697   5.755  23.219  0.00  0.00    +0.000 HD
ATOM     13  H   UNL     1      -5.018   4.799  23.589  0.00  0.00    +0.000 HD
ATOM     14  H   UNL     1      -1.953   5.732  28.137  0.00  0.00    +0.000 HD
ATOM     15  H   UNL     1      -0.557   6.552  24.156  0.00  0.00    +0.000 HD
ATOM     16  H   UNL     1      -0.177   6.544  26.606  0.00  0.00    +0.000 HD
ATOM     17  H   UNL     1      -6.722   4.012  25.151  0.00  0.00    +0.000 HD
ENDROOT
TORSDOF 0
ENDMDL
MODEL 2
REMARK VINA RESULT:    -5.590     29.173     30.307
REMARK INTER + INTRA:          -5.590
REMARK INTER:                  -5.590
REMARK INTRA:                   0.000
REMARK UNBOUND:                 0.000
REMARK  Name = 323
REMARK  0 active torsions:
REMARK  status: ('A' for Active; 'I' for Inactive)
REMARK                            x       y       z     vdW  Elec       q    Type
REMARK                         _______ _______ _______ _____ _____    ______ ____
ROOT
ATOM      1  O   UNL     1      -7.662 -16.259   3.252  0.00  0.00    +0.000 OA
ATOM      2  O   UNL     1      -7.302 -16.763   1.047  0.00  0.00    +0.000 OA
ATOM      3  C   UNL     1      -7.516 -13.938   3.974  0.00  0.00    +0.000 A 
ATOM      4  C   UNL     1      -7.736 -15.282   4.266  0.00  0.00    +0.000 A 
ATOM      5  C   UNL     1      -7.599 -13.000   5.005  0.00  0.00    +0.000 A 
ATOM      6  C   UNL     1      -7.208 -13.561   2.605  0.00  0.00    +0.000 A 
ATOM      7  C   UNL     1      -8.036 -15.711   5.558  0.00  0.00    +0.000 A 
ATOM      8  C   UNL     1      -7.899 -13.416   6.305  0.00  0.00    +0.000 A 
ATOM      9  C   UNL     1      -8.117 -14.769   6.581  0.00  0.00    +0.000 A 
ATOM     10  C   UNL     1      -7.139 -14.492   1.650  0.00  0.00    +0.000 A 
ATOM     11  C   UNL     1      -7.368 -15.921   1.935  0.00  0.00    +0.000 A 
ATOM     12  H   UNL     1      -7.434 -11.943   4.812  0.00  0.00    +0.000 HD
ATOM     13  H   UNL     1      -7.036 -12.515   2.372  0.00  0.00    +0.000 HD
ATOM     14  H   UNL     1      -8.205 -16.762   5.770  0.00  0.00    +0.000 HD
ATOM     15  H   UNL     1      -7.963 -12.684   7.106  0.00  0.00    +0.000 HD
ATOM     16  H   UNL     1      -8.349 -15.084   7.593  0.00  0.00    +0.000 HD
ATOM     17  H   UNL     1      -6.908 -14.218   0.626  0.00  0.00    +0.000 HD
ENDROOT
TORSDOF 0
ENDMDL
MODEL 3
REMARK VINA RESULT:    -5.482     36.561     38.001
REMARK INTER + INTRA:          -5.482
REMARK INTER:                  -5.482
REMARK INTRA:                   0.000
REMARK UNBOUND:                 0.000
REMARK  Name = 323
REMARK  0 active torsions:
REMARK  status: ('A' for Active; 'I' for Inactive)
REMARK                            x       y       z     vdW  Elec       q    Type
REMARK                         _______ _______ _______ _____ _____    ______ ____
ROOT
ATOM      1  O   UNL     1      19.434  -4.357  -2.536  0.00  0.00    +0.000 OA
ATOM      2  O   UNL     1      21.522  -4.550  -3.457  0.00  0.00    +0.000 OA
ATOM      3  C   UNL     1      17.654  -5.820  -3.321  0.00  0.00    +0.000 A 
ATOM      4  C   UNL     1      18.095  -4.796  -2.487  0.00  0.00    +0.000 A 
ATOM      5  C   UNL     1      16.320  -6.227  -3.243  0.00  0.00    +0.000 A 
ATOM      6  C   UNL     1      18.599  -6.429  -4.242  0.00  0.00    +0.000 A 
ATOM      7  C   UNL     1      17.241  -4.170  -1.581  0.00  0.00    +0.000 A 
ATOM      8  C   UNL     1      15.452  -5.608  -2.339  0.00  0.00    +0.000 A 
ATOM      9  C   UNL     1      15.912  -4.582  -1.510  0.00  0.00    +0.000 A 
ATOM     10  C   UNL     1      19.865  -6.008  -4.282  0.00  0.00    +0.000 A 
ATOM     11  C   UNL     1      20.356  -4.925  -3.410  0.00  0.00    +0.000 A 
ATOM     12  H   UNL     1      15.943  -7.025  -3.879  0.00  0.00    +0.000 HD
ATOM     13  H   UNL     1      18.259  -7.228  -4.893  0.00  0.00    +0.000 HD
ATOM     14  H   UNL     1      17.600  -3.372  -0.938  0.00  0.00    +0.000 HD
ATOM     15  H   UNL     1      14.415  -5.927  -2.281  0.00  0.00    +0.000 HD
ATOM     16  H   UNL     1      15.232  -4.105  -0.810  0.00  0.00    +0.000 HD
ATOM     17  H   UNL     1      20.576  -6.457  -4.968  0.00  0.00    +0.000 HD
ENDROOT
TORSDOF 0
ENDMDL
MODEL 4
REMARK VINA RESULT:    -5.441     35.668     36.988
REMARK INTER + INTRA:          -5.441
REMARK INTER:                  -5.441
REMARK INTRA:                   0.000
REMARK UNBOUND:                 0.000
REMARK  Name = 323
REMARK  0 active torsions:
REMARK  status: ('A' for Active; 'I' for Inactive)
REMARK                            x       y       z     vdW  Elec       q    Type
REMARK                         _______ _______ _______ _____ _____    ______ ____
ROOT
ATOM      1  O   UNL     1      17.949  -5.717  -0.807  0.00  0.00    +0.000 OA
ATOM      2  O   UNL     1      16.736  -5.185   1.060  0.00  0.00    +0.000 OA
ATOM      3  C   UNL     1      16.787  -6.030  -2.924  0.00  0.00    +0.000 A 
ATOM      4  C   UNL     1      17.969  -6.010  -2.187  0.00  0.00    +0.000 A 
ATOM      5  C   UNL     1      16.847  -6.324  -4.288  0.00  0.00    +0.000 A 
ATOM      6  C   UNL     1      15.534  -5.745  -2.246  0.00  0.00    +0.000 A 
ATOM      7  C   UNL     1      19.204  -6.274  -2.775  0.00  0.00    +0.000 A 
ATOM      8  C   UNL     1      18.079  -6.591  -4.891  0.00  0.00    +0.000 A 
ATOM      9  C   UNL     1      19.255  -6.566  -4.137  0.00  0.00    +0.000 A 
ATOM     10  C   UNL     1      15.524  -5.469  -0.940  0.00  0.00    +0.000 A 
ATOM     11  C   UNL     1      16.761  -5.441  -0.138  0.00  0.00    +0.000 A 
ATOM     12  H   UNL     1      15.945  -6.347  -4.894  0.00  0.00    +0.000 HD
ATOM     13  H   UNL     1      14.611  -5.759  -2.817  0.00  0.00    +0.000 HD
ATOM     14  H   UNL     1      20.116  -6.254  -2.187  0.00  0.00    +0.000 HD
ATOM     15  H   UNL     1      18.124  -6.819  -5.953  0.00  0.00    +0.000 HD
ATOM     16  H   UNL     1      20.209  -6.775  -4.612  0.00  0.00    +0.000 HD
ATOM     17  H   UNL     1      14.592  -5.256  -0.427  0.00  0.00    +0.000 HD
ENDROOT
TORSDOF 0
ENDMDL
MODEL 5
REMARK VINA RESULT:    -5.382      1.809      3.327
REMARK INTER + INTRA:          -5.382
REMARK INTER:                  -5.382
REMARK INTRA:                   0.000
REMARK UNBOUND:                 0.000
REMARK  Name = 323
REMARK  0 active torsions:
REMARK  status: ('A' for Active; 'I' for Inactive)
REMARK                            x       y       z     vdW  Elec       q    Type
REMARK                         _______ _______ _______ _____ _____    ______ ____
ROOT
ATOM      1  O   UNL     1      -6.853   5.414  27.520  0.00  0.00    +0.000 OA
ATOM      2  O   UNL     1      -7.686   5.926  29.591  0.00  0.00    +0.000 OA
ATOM      3  C   UNL     1      -4.491   4.868  27.297  0.00  0.00    +0.000 A 
ATOM      4  C   UNL     1      -5.748   5.047  26.724  0.00  0.00    +0.000 A 
ATOM      5  C   UNL     1      -3.421   4.505  26.476  0.00  0.00    +0.000 A 
ATOM      6  C   UNL     1      -4.338   5.066  28.728  0.00  0.00    +0.000 A 
ATOM      7  C   UNL     1      -5.963   4.874  25.359  0.00  0.00    +0.000 A 
ATOM      8  C   UNL     1      -3.622   4.328  25.104  0.00  0.00    +0.000 A 
ATOM      9  C   UNL     1      -4.890   4.511  24.547  0.00  0.00    +0.000 A 
ATOM     10  C   UNL     1      -5.390   5.413  29.474  0.00  0.00    +0.000 A 
ATOM     11  C   UNL     1      -6.731   5.608  28.892  0.00  0.00    +0.000 A 
ATOM     12  H   UNL     1      -2.427   4.356  26.890  0.00  0.00    +0.000 HD
ATOM     13  H   UNL     1      -3.361   4.927  29.178  0.00  0.00    +0.000 HD
ATOM     14  H   UNL     1      -6.949   5.017  24.927  0.00  0.00    +0.000 HD
ATOM     15  H   UNL     1      -2.788   4.045  24.468  0.00  0.00    +0.000 HD
ATOM     16  H   UNL     1      -5.038   4.372  23.480  0.00  0.00    +0.000 HD
ATOM     17  H   UNL     1      -5.283   5.563  30.544  0.00  0.00    +0.000 HD
ENDROOT
TORSDOF 0
ENDMDL
MODEL 6
REMARK VINA RESULT:    -5.371     36.278     37.614
REMARK INTER + INTRA:          -5.371
REMARK INTER:                  -5.371
REMARK INTRA:                   0.000
REMARK UNBOUND:                 0.000
REMARK  Name = 323
REMARK  0 active torsions:
REMARK  status: ('A' for Active; 'I' for Inactive)
REMARK                            x       y       z     vdW  Elec       q    Type
REMARK                         _______ _______ _______ _____ _____    ______ ____
ROOT
ATOM      1  O   UNL     1      17.290  -4.041  -1.957  0.00  0.00    +0.000 OA
ATOM      2  O   UNL     1      15.210  -4.284  -1.031  0.00  0.00    +0.000 OA
ATOM      3  C   UNL     1      18.064  -5.686  -3.576  0.00  0.00    +0.000 A 
ATOM      4  C   UNL     1      18.279  -4.525  -2.838  0.00  0.00    +0.000 A 
ATOM      5  C   UNL     1      19.068  -6.134  -4.438  0.00  0.00    +0.000 A 
ATOM      6  C   UNL     1      16.802  -6.391  -3.422  0.00  0.00    +0.000 A 
ATOM      7  C   UNL     1      19.466  -3.803  -2.938  0.00  0.00    +0.000 A 
ATOM      8  C   UNL     1      20.264  -5.419  -4.549  0.00  0.00    +0.000 A 
ATOM      9  C   UNL     1      20.462  -4.256  -3.800  0.00  0.00    +0.000 A 
ATOM     10  C   UNL     1      15.871  -5.926  -2.586  0.00  0.00    +0.000 A 
ATOM     11  C   UNL     1      16.075  -4.699  -1.793  0.00  0.00    +0.000 A 
ATOM     12  H   UNL     1      18.933  -7.036  -5.030  0.00  0.00    +0.000 HD
ATOM     13  H   UNL     1      16.631  -7.296  -3.995  0.00  0.00    +0.000 HD
ATOM     14  H   UNL     1      19.619  -2.899  -2.356  0.00  0.00    +0.000 HD
ATOM     15  H   UNL     1      21.043  -5.770  -5.220  0.00  0.00    +0.000 HD
ATOM     16  H   UNL     1      21.394  -3.706  -3.892  0.00  0.00    +0.000 HD
ATOM     17  H   UNL     1      14.927  -6.447  -2.465  0.00  0.00    +0.000 HD
ENDROOT
TORSDOF 0
ENDMDL
MODEL 7
REMARK VINA RESULT:    -5.245     46.124     46.664
REMARK INTER + INTRA:          -5.245
REMARK INTER:                  -5.245
REMARK INTRA:                   0.000
REMARK UNBOUND:                 0.000
REMARK  Name = 323
REMARK  0 active torsions:
REMARK  status: ('A' for Active; 'I' for Inactive)
REMARK                            x       y       z     vdW  Elec       q    Type
REMARK                         _______ _______ _______ _____ _____    ______ ____
ROOT
ATOM      1  O   UNL     1       0.516   4.465 -20.174  0.00  0.00    +0.000 OA
ATOM      2  O   UNL     1      -1.107   2.950 -20.736  0.00  0.00    +0.000 OA
ATOM      3  C   UNL     1       2.855   3.808 -20.332  0.00  0.00    +0.000 A 
ATOM      4  C   UNL     1       1.887   4.764 -20.034  0.00  0.00    +0.000 A 
ATOM      5  C   UNL     1       4.203   4.141 -20.181  0.00  0.00    +0.000 A 
ATOM      6  C   UNL     1       2.427   2.497 -20.790  0.00  0.00    +0.000 A 
ATOM      7  C   UNL     1       2.230   6.040 -19.590  0.00  0.00    +0.000 A 
ATOM      8  C   UNL     1       4.561   5.417 -19.736  0.00  0.00    +0.000 A 
ATOM      9  C   UNL     1       3.576   6.364 -19.442  0.00  0.00    +0.000 A 
ATOM     10  C   UNL     1       1.126   2.222 -20.920  0.00  0.00    +0.000 A 
ATOM     11  C   UNL     1       0.083   3.217 -20.611  0.00  0.00    +0.000 A 
ATOM     12  H   UNL     1       4.984   3.420 -20.405  0.00  0.00    +0.000 HD
ATOM     13  H   UNL     1       3.177   1.749 -21.024  0.00  0.00    +0.000 HD
ATOM     14  H   UNL     1       1.463   6.774 -19.361  0.00  0.00    +0.000 HD
ATOM     15  H   UNL     1       5.610   5.674 -19.619  0.00  0.00    +0.000 HD
ATOM     16  H   UNL     1       3.862   7.353 -19.097  0.00  0.00    +0.000 HD
ATOM     17  H   UNL     1       0.799   1.245 -21.261  0.00  0.00    +0.000 HD
ENDROOT
TORSDOF 0
ENDMDL
MODEL 8
REMARK VINA RESULT:    -5.215      2.166      4.481
REMARK INTER + INTRA:          -5.215
REMARK INTER:                  -5.215
REMARK INTRA:                   0.000
REMARK UNBOUND:                 0.000
REMARK  Name = 323
REMARK  0 active torsions:
REMARK  status: ('A' for Active; 'I' for Inactive)
REMARK                            x       y       z     vdW  Elec       q    Type
REMARK                         _______ _______ _______ _____ _____    ______ ____
ROOT
ATOM      1  O   UNL     1      -2.722   5.773  23.923  0.00  0.00    +0.000 OA
ATOM      2  O   UNL     1      -0.730   6.716  23.300  0.00  0.00    +0.000 OA
ATOM      3  C   UNL     1      -3.169   5.406  26.288  0.00  0.00    +0.000 A 
ATOM      4  C   UNL     1      -3.567   5.319  24.956  0.00  0.00    +0.000 A 
ATOM      5  C   UNL     1      -4.034   4.946  27.283  0.00  0.00    +0.000 A 
ATOM      6  C   UNL     1      -1.866   5.972  26.594  0.00  0.00    +0.000 A 
ATOM      7  C   UNL     1      -4.803   4.787  24.595  0.00  0.00    +0.000 A 
ATOM      8  C   UNL     1      -5.277   4.410  26.935  0.00  0.00    +0.000 A 
ATOM      9  C   UNL     1      -5.660   4.330  25.594  0.00  0.00    +0.000 A 
ATOM     10  C   UNL     1      -1.071   6.399  25.609  0.00  0.00    +0.000 A 
ATOM     11  C   UNL     1      -1.470   6.319  24.192  0.00  0.00    +0.000 A 
ATOM     12  H   UNL     1      -3.755   4.999  28.333  0.00  0.00    +0.000 HD
ATOM     13  H   UNL     1      -1.551   6.041  27.629  0.00  0.00    +0.000 HD
ATOM     14  H   UNL     1      -5.100   4.727  23.552  0.00  0.00    +0.000 HD
ATOM     15  H   UNL     1      -5.948   4.052  27.711  0.00  0.00    +0.000 HD
ATOM     16  H   UNL     1      -6.628   3.913  25.331  0.00  0.00    +0.000 HD
ATOM     17  H   UNL     1      -0.096   6.822  25.830  0.00  0.00    +0.000 HD
ENDROOT
TORSDOF 0
ENDMDL
MODEL 9
REMARK VINA RESULT:    -5.162     30.328     31.931
REMARK INTER + INTRA:          -5.162
REMARK INTER:                  -5.162
REMARK INTRA:                   0.000
REMARK UNBOUND:                 0.000
REMARK  Name = 323
REMARK  0 active torsions:
REMARK  status: ('A' for Active; 'I' for Inactive)
REMARK                            x       y       z     vdW  Elec       q    Type
REMARK                         _______ _______ _______ _____ _____    ______ ____
ROOT
ATOM      1  O   UNL     1      12.932   5.073   0.599  0.00  0.00    +0.000 OA
ATOM      2  O   UNL     1      12.349   3.326   1.960  0.00  0.00    +0.000 OA
ATOM      3  C   UNL     1      14.869   4.842  -0.858  0.00  0.00    +0.000 A 
ATOM      4  C   UNL     1      13.803   5.599  -0.377  0.00  0.00    +0.000 A 
ATOM      5  C   UNL     1      15.710   5.398  -1.824  0.00  0.00    +0.000 A 
ATOM      6  C   UNL     1      15.067   3.501  -0.335  0.00  0.00    +0.000 A 
ATOM      7  C   UNL     1      13.557   6.892  -0.835  0.00  0.00    +0.000 A 
ATOM      8  C   UNL     1      15.476   6.693  -2.293  0.00  0.00    +0.000 A 
ATOM      9  C   UNL     1      14.401   7.439  -1.800  0.00  0.00    +0.000 A 
ATOM     10  C   UNL     1      14.237   3.010   0.589  0.00  0.00    +0.000 A 
ATOM     11  C   UNL     1      13.102   3.791   1.113  0.00  0.00    +0.000 A 
ATOM     12  H   UNL     1      16.551   4.835  -2.222  0.00  0.00    +0.000 HD
ATOM     13  H   UNL     1      15.896   2.908  -0.707  0.00  0.00    +0.000 HD
ATOM     14  H   UNL     1      12.722   7.469  -0.451  0.00  0.00    +0.000 HD
ATOM     15  H   UNL     1      16.132   7.124  -3.045  0.00  0.00    +0.000 HD
ATOM     16  H   UNL     1      14.225   8.444  -2.169  0.00  0.00    +0.000 HD
ATOM     17  H   UNL     1      14.380   2.009   0.984  0.00  0.00    +0.000 HD
ENDROOT
TORSDOF 0
ENDMDL
MODEL 10
REMARK VINA RESULT:    -5.143     34.781     35.689
REMARK INTER + INTRA:          -5.143
REMARK INTER:                  -5.143
REMARK INTRA:                   0.000
REMARK UNBOUND:                 0.000
REMARK  Name = 323
REMARK  0 active torsions:
REMARK  status: ('A' for Active; 'I' for Inactive)
REMARK                            x       y       z     vdW  Elec       q    Type
REMARK                         _______ _______ _______ _____ _____    ______ ____
ROOT
ATOM      1  O   UNL     1      17.766  -4.511   0.570  0.00  0.00    +0.000 OA
ATOM      2  O   UNL     1      19.382  -3.043   1.260  0.00  0.00    +0.000 OA
ATOM      3  C   UNL     1      17.110  -4.533  -1.775  0.00  0.00    +0.000 A 
ATOM      4  C   UNL     1      16.979  -5.028  -0.480  0.00  0.00    +0.000 A 
ATOM      5  C   UNL     1      16.313  -5.070  -2.787  0.00  0.00    +0.000 A 
ATOM      6  C   UNL     1      18.073  -3.473  -2.025  0.00  0.00    +0.000 A 
ATOM      7  C   UNL     1      16.075  -6.043  -0.172  0.00  0.00    +0.000 A 
ATOM      8  C   UNL     1      15.402  -6.089  -2.493  0.00  0.00    +0.000 A 
ATOM      9  C   UNL     1      15.284  -6.574  -1.188  0.00  0.00    +0.000 A 
ATOM     10  C   UNL     1      18.814  -2.989  -1.025  0.00  0.00    +0.000 A 
ATOM     11  C   UNL     1      18.694  -3.497   0.354  0.00  0.00    +0.000 A 
ATOM     12  H   UNL     1      16.390  -4.708  -3.810  0.00  0.00    +0.000 HD
ATOM     13  H   UNL     1      18.178  -3.084  -3.032  0.00  0.00    +0.000 HD
ATOM     14  H   UNL     1      15.985  -6.419   0.843  0.00  0.00    +0.000 HD
ATOM     15  H   UNL     1      14.783  -6.506  -3.283  0.00  0.00    +0.000 HD
ATOM     16  H   UNL     1      14.574  -7.366  -0.967  0.00  0.00    +0.000 HD
ATOM     17  H   UNL     1      19.534  -2.197  -1.205  0.00  0.00    +0.000 HD
ENDROOT
TORSDOF 0
ENDMDL
