MODEL 1
REMARK VINA RESULT:    -4.166      0.000      0.000
REMARK INTER + INTRA:          -7.242
REMARK INTER:                  -6.450
REMARK INTRA:                  -0.792
REMARK UNBOUND:                -0.884
REMARK  Name = 2969
REMARK  10 active torsions:
REMARK  status: ('A' for Active; 'I' for Inactive)
REMARK    1  A    between atoms: O_1  and  C_12
REMARK    2  A    between atoms: C_3  and  C_4
REMARK    3  A    between atoms: C_3  and  C_5
REMARK    4  A    between atoms: C_4  and  C_6
REMARK    5  A    between atoms: C_5  and  C_7
REMARK    6  A    between atoms: C_6  and  C_8
REMARK    7  A    between atoms: C_7  and  C_9
REMARK    8  A    between atoms: C_8  and  C_10
REMARK    9  A    between atoms: C_9  and  C_11
REMARK   10  A    between atoms: C_10  and  C_12
REMARK                            x       y       z     vdW  Elec       q    Type
REMARK                         _______ _______ _______ _____ _____    ______ ____
ROOT
ATOM      1  C   UNL     1       2.019   6.486 -19.237  0.00  0.00    +0.000 C 
ATOM      2  H   UNL     1       2.286   6.627 -18.182  0.00  0.00    +0.000 HD
ATOM      3  H   UNL     1       1.685   7.464 -19.604  0.00  0.00    +0.000 HD
ENDROOT
BRANCH   1   4
ATOM      4  C   UNL     1       0.839   5.512 -19.316  0.00  0.00    +0.000 C 
ATOM      5  H   UNL     1      -0.088   6.097 -19.371  0.00  0.00    +0.000 HD
ATOM      6  H   UNL     1       0.790   4.945 -18.378  0.00  0.00    +0.000 HD
BRANCH   4   7
ATOM      7  C   UNL     1       0.869   4.522 -20.485  0.00  0.00    +0.000 C 
ATOM      8  H   UNL     1      -0.069   4.601 -21.047  0.00  0.00    +0.000 HD
ATOM      9  H   UNL     1       1.676   4.808 -21.171  0.00  0.00    +0.000 HD
BRANCH   7  10
ATOM     10  C   UNL     1       1.067   3.067 -20.043  0.00  0.00    +0.000 C 
ATOM     11  H   UNL     1       0.281   2.441 -20.483  0.00  0.00    +0.000 HD
ATOM     12  H   UNL     1       0.948   2.998 -18.955  0.00  0.00    +0.000 HD
BRANCH  10  13
ATOM     13  C   UNL     1       2.440   2.522 -20.437  0.00  0.00    +0.000 C 
ATOM     14  H   UNL     1       3.222   3.099 -19.929  0.00  0.00    +0.000 HD
ATOM     15  H   UNL     1       2.520   1.473 -20.130  0.00  0.00    +0.000 HD
BRANCH  13  17
ATOM     16  O   UNL     1       3.501   3.341 -22.473  0.00  0.00    +0.000 OA
ATOM     17  C   UNL     1       2.705   2.590 -21.925  0.00  0.00    +0.000 C 
BRANCH  17  18
ATOM     18  O   UNL     1       1.956   1.681 -22.604  0.00  0.00    +0.000 OA
ATOM     19  H   UNL     1       1.054   2.020 -22.792  0.00  0.00    +0.000 HD
ENDBRANCH  17  18
ENDBRANCH  13  17
ENDBRANCH  10  13
ENDBRANCH   7  10
ENDBRANCH   4   7
ENDBRANCH   1   4
BRANCH   1  20
ATOM     20  C   UNL     1       3.274   6.075 -20.014  0.00  0.00    +0.000 C 
ATOM     21  H   UNL     1       3.492   6.841 -20.768  0.00  0.00    +0.000 HD
ATOM     22  H   UNL     1       3.066   5.145 -20.558  0.00  0.00    +0.000 HD
BRANCH  20  23
ATOM     23  C   UNL     1       4.502   5.879 -19.122  0.00  0.00    +0.000 C 
ATOM     24  H   UNL     1       5.101   6.798 -19.114  0.00  0.00    +0.000 HD
ATOM     25  H   UNL     1       4.180   5.694 -18.091  0.00  0.00    +0.000 HD
BRANCH  23  26
ATOM     26  C   UNL     1       5.360   4.711 -19.612  0.00  0.00    +0.000 C 
ATOM     27  H   UNL     1       4.719   3.935 -20.045  0.00  0.00    +0.000 HD
ATOM     28  H   UNL     1       6.036   5.052 -20.404  0.00  0.00    +0.000 HD
BRANCH  26  29
ATOM     29  C   UNL     1       6.177   4.108 -18.481  0.00  0.00    +0.000 C 
ATOM     30  H   UNL     1       6.977   3.471 -18.872  0.00  0.00    +0.000 HD
ATOM     31  H   UNL     1       5.538   3.494 -17.838  0.00  0.00    +0.000 HD
ATOM     32  H   UNL     1       6.630   4.889 -17.863  0.00  0.00    +0.000 HD
ENDBRANCH  26  29
ENDBRANCH  23  26
ENDBRANCH  20  23
ENDBRANCH   1  20
TORSDOF 10
ENDMDL
MODEL 2
REMARK VINA RESULT:    -4.148      2.787      4.579
REMARK INTER + INTRA:          -7.215
REMARK INTER:                  -6.393
REMARK INTRA:                  -0.822
REMARK UNBOUND:                -0.884
REMARK  Name = 2969
REMARK  10 active torsions:
REMARK  status: ('A' for Active; 'I' for Inactive)
REMARK    1  A    between atoms: O_1  and  C_12
REMARK    2  A    between atoms: C_3  and  C_4
REMARK    3  A    between atoms: C_3  and  C_5
REMARK    4  A    between atoms: C_4  and  C_6
REMARK    5  A    between atoms: C_5  and  C_7
REMARK    6  A    between atoms: C_6  and  C_8
REMARK    7  A    between atoms: C_7  and  C_9
REMARK    8  A    between atoms: C_8  and  C_10
REMARK    9  A    between atoms: C_9  and  C_11
REMARK   10  A    between atoms: C_10  and  C_12
REMARK                            x       y       z     vdW  Elec       q    Type
REMARK                         _______ _______ _______ _____ _____    ______ ____
ROOT
ATOM      1  C   UNL     1       0.629   5.029 -20.280  0.00  0.00    +0.000 C 
ATOM      2  H   UNL     1       0.928   4.902 -21.328  0.00  0.00    +0.000 HD
ATOM      3  H   UNL     1      -0.374   5.474 -20.298  0.00  0.00    +0.000 HD
ENDROOT
BRANCH   1   4
ATOM      4  C   UNL     1       1.587   6.025 -19.617  0.00  0.00    +0.000 C 
ATOM      5  H   UNL     1       1.858   5.635 -18.628  0.00  0.00    +0.000 HD
ATOM      6  H   UNL     1       1.047   6.964 -19.440  0.00  0.00    +0.000 HD
BRANCH   4   7
ATOM      7  C   UNL     1       2.869   6.336 -20.395  0.00  0.00    +0.000 C 
ATOM      8  H   UNL     1       3.091   5.502 -21.070  0.00  0.00    +0.000 HD
ATOM      9  H   UNL     1       2.695   7.217 -21.025  0.00  0.00    +0.000 HD
BRANCH   7  10
ATOM     10  C   UNL     1       4.081   6.586 -19.491  0.00  0.00    +0.000 C 
ATOM     11  H   UNL     1       3.741   6.970 -18.521  0.00  0.00    +0.000 HD
ATOM     12  H   UNL     1       4.709   7.370 -19.933  0.00  0.00    +0.000 HD
BRANCH  10  13
ATOM     13  C   UNL     1       4.920   5.325 -19.281  0.00  0.00    +0.000 C 
ATOM     14  H   UNL     1       4.257   4.456 -19.197  0.00  0.00    +0.000 HD
ATOM     15  H   UNL     1       5.585   5.180 -20.140  0.00  0.00    +0.000 HD
BRANCH  13  17
ATOM     16  O   UNL     1       6.451   4.457 -17.595  0.00  0.00    +0.000 OA
ATOM     17  C   UNL     1       5.777   5.378 -18.036  0.00  0.00    +0.000 C 
BRANCH  17  18
ATOM     18  O   UNL     1       5.733   6.607 -17.456  0.00  0.00    +0.000 OA
ATOM     19  H   UNL     1       5.169   6.611 -16.652  0.00  0.00    +0.000 HD
ENDBRANCH  17  18
ENDBRANCH  13  17
ENDBRANCH  10  13
ENDBRANCH   7  10
ENDBRANCH   4   7
ENDBRANCH   1   4
BRANCH   1  20
ATOM     20  C   UNL     1       0.540   3.650 -19.620  0.00  0.00    +0.000 C 
ATOM     21  H   UNL     1      -0.513   3.423 -19.411  0.00  0.00    +0.000 HD
ATOM     22  H   UNL     1       1.053   3.687 -18.651  0.00  0.00    +0.000 HD
BRANCH  20  23
ATOM     23  C   UNL     1       1.139   2.529 -20.472  0.00  0.00    +0.000 C 
ATOM     24  H   UNL     1       0.706   1.568 -20.172  0.00  0.00    +0.000 HD
ATOM     25  H   UNL     1       0.875   2.689 -21.524  0.00  0.00    +0.000 HD
BRANCH  23  26
ATOM     26  C   UNL     1       2.660   2.476 -20.325  0.00  0.00    +0.000 C 
ATOM     27  H   UNL     1       2.982   3.163 -19.533  0.00  0.00    +0.000 HD
ATOM     28  H   UNL     1       2.970   1.468 -20.024  0.00  0.00    +0.000 HD
BRANCH  26  29
ATOM     29  C   UNL     1       3.359   2.850 -21.621  0.00  0.00    +0.000 C 
ATOM     30  H   UNL     1       3.583   1.959 -22.216  0.00  0.00    +0.000 HD
ATOM     31  H   UNL     1       4.303   3.363 -21.409  0.00  0.00    +0.000 HD
ATOM     32  H   UNL     1       2.737   3.519 -22.224  0.00  0.00    +0.000 HD
ENDBRANCH  26  29
ENDBRANCH  23  26
ENDBRANCH  20  23
ENDBRANCH   1  20
TORSDOF 10
ENDMDL
MODEL 3
REMARK VINA RESULT:    -4.113      2.131      2.916
REMARK INTER + INTRA:          -7.161
REMARK INTER:                  -6.840
REMARK INTRA:                  -0.322
REMARK UNBOUND:                -0.884
REMARK  Name = 2969
REMARK  10 active torsions:
REMARK  status: ('A' for Active; 'I' for Inactive)
REMARK    1  A    between atoms: O_1  and  C_12
REMARK    2  A    between atoms: C_3  and  C_4
REMARK    3  A    between atoms: C_3  and  C_5
REMARK    4  A    between atoms: C_4  and  C_6
REMARK    5  A    between atoms: C_5  and  C_7
REMARK    6  A    between atoms: C_6  and  C_8
REMARK    7  A    between atoms: C_7  and  C_9
REMARK    8  A    between atoms: C_8  and  C_10
REMARK    9  A    between atoms: C_9  and  C_11
REMARK   10  A    between atoms: C_10  and  C_12
REMARK                            x       y       z     vdW  Elec       q    Type
REMARK                         _______ _______ _______ _____ _____    ______ ____
ROOT
ATOM      1  C   UNL     1       4.531   6.163 -19.996  0.00  0.00    +0.000 C 
ATOM      2  H   UNL     1       5.187   7.028 -19.837  0.00  0.00    +0.000 HD
ATOM      3  H   UNL     1       4.265   6.169 -21.060  0.00  0.00    +0.000 HD
ENDROOT
BRANCH   1   4
ATOM      4  C   UNL     1       3.251   6.365 -19.178  0.00  0.00    +0.000 C 
ATOM      5  H   UNL     1       3.218   7.408 -18.842  0.00  0.00    +0.000 HD
ATOM      6  H   UNL     1       3.316   5.751 -18.271  0.00  0.00    +0.000 HD
BRANCH   4   7
ATOM      7  C   UNL     1       1.941   6.035 -19.899  0.00  0.00    +0.000 C 
ATOM      8  H   UNL     1       1.098   6.397 -19.298  0.00  0.00    +0.000 HD
ATOM      9  H   UNL     1       1.912   6.584 -20.849  0.00  0.00    +0.000 HD
BRANCH   7  10
ATOM     10  C   UNL     1       1.757   4.537 -20.170  0.00  0.00    +0.000 C 
ATOM     11  H   UNL     1       1.657   4.003 -19.216  0.00  0.00    +0.000 HD
ATOM     12  H   UNL     1       2.657   4.142 -20.655  0.00  0.00    +0.000 HD
BRANCH  10  13
ATOM     13  C   UNL     1       0.540   4.250 -21.050  0.00  0.00    +0.000 C 
ATOM     14  H   UNL     1      -0.045   5.169 -21.176  0.00  0.00    +0.000 HD
ATOM     15  H   UNL     1       0.873   3.906 -22.035  0.00  0.00    +0.000 HD
BRANCH  13  17
ATOM     16  O   UNL     1      -1.006   2.368 -21.124  0.00  0.00    +0.000 OA
ATOM     17  C   UNL     1      -0.377   3.192 -20.476  0.00  0.00    +0.000 C 
BRANCH  17  18
ATOM     18  O   UNL     1      -0.406   3.247 -19.117  0.00  0.00    +0.000 OA
ATOM     19  H   UNL     1      -0.917   2.501 -18.733  0.00  0.00    +0.000 HD
ENDBRANCH  17  18
ENDBRANCH  13  17
ENDBRANCH  10  13
ENDBRANCH   7  10
ENDBRANCH   4   7
ENDBRANCH   1   4
BRANCH   1  20
ATOM     20  C   UNL     1       5.318   4.884 -19.696  0.00  0.00    +0.000 C 
ATOM     21  H   UNL     1       6.067   4.733 -20.483  0.00  0.00    +0.000 HD
ATOM     22  H   UNL     1       4.634   4.028 -19.742  0.00  0.00    +0.000 HD
BRANCH  20  23
ATOM     23  C   UNL     1       6.016   4.906 -18.334  0.00  0.00    +0.000 C 
ATOM     24  H   UNL     1       6.621   5.816 -18.245  0.00  0.00    +0.000 HD
ATOM     25  H   UNL     1       5.263   4.939 -17.538  0.00  0.00    +0.000 HD
BRANCH  23  26
ATOM     26  C   UNL     1       6.907   3.676 -18.149  0.00  0.00    +0.000 C 
ATOM     27  H   UNL     1       6.934   3.392 -17.091  0.00  0.00    +0.000 HD
ATOM     28  H   UNL     1       6.489   2.827 -18.702  0.00  0.00    +0.000 HD
BRANCH  26  29
ATOM     29  C   UNL     1       8.324   3.938 -18.630  0.00  0.00    +0.000 C 
ATOM     30  H   UNL     1       8.517   5.012 -18.718  0.00  0.00    +0.000 HD
ATOM     31  H   UNL     1       8.481   3.483 -19.614  0.00  0.00    +0.000 HD
ATOM     32  H   UNL     1       9.058   3.512 -17.939  0.00  0.00    +0.000 HD
ENDBRANCH  26  29
ENDBRANCH  23  26
ENDBRANCH  20  23
ENDBRANCH   1  20
TORSDOF 10
ENDMDL
MODEL 4
REMARK VINA RESULT:    -4.079      2.043      2.931
REMARK INTER + INTRA:          -7.110
REMARK INTER:                  -6.699
REMARK INTRA:                  -0.411
REMARK UNBOUND:                -0.884
REMARK  Name = 2969
REMARK  10 active torsions:
REMARK  status: ('A' for Active; 'I' for Inactive)
REMARK    1  A    between atoms: O_1  and  C_12
REMARK    2  A    between atoms: C_3  and  C_4
REMARK    3  A    between atoms: C_3  and  C_5
REMARK    4  A    between atoms: C_4  and  C_6
REMARK    5  A    between atoms: C_5  and  C_7
REMARK    6  A    between atoms: C_6  and  C_8
REMARK    7  A    between atoms: C_7  and  C_9
REMARK    8  A    between atoms: C_8  and  C_10
REMARK    9  A    between atoms: C_9  and  C_11
REMARK   10  A    between atoms: C_10  and  C_12
REMARK                            x       y       z     vdW  Elec       q    Type
REMARK                         _______ _______ _______ _____ _____    ______ ____
ROOT
ATOM      1  C   UNL     1       4.508   5.232 -19.705  0.00  0.00    +0.000 C 
ATOM      2  H   UNL     1       3.471   5.553 -19.542  0.00  0.00    +0.000 HD
ATOM      3  H   UNL     1       4.828   5.690 -20.649  0.00  0.00    +0.000 HD
ENDROOT
BRANCH   1   4
ATOM      4  C   UNL     1       4.526   3.709 -19.877  0.00  0.00    +0.000 C 
ATOM      5  H   UNL     1       4.249   3.251 -18.920  0.00  0.00    +0.000 HD
ATOM      6  H   UNL     1       5.557   3.393 -20.082  0.00  0.00    +0.000 HD
BRANCH   4   7
ATOM      7  C   UNL     1       3.616   3.151 -20.975  0.00  0.00    +0.000 C 
ATOM      8  H   UNL     1       3.431   3.933 -21.721  0.00  0.00    +0.000 HD
ATOM      9  H   UNL     1       4.141   2.338 -21.490  0.00  0.00    +0.000 HD
BRANCH   7  10
ATOM     10  C   UNL     1       2.272   2.637 -20.445  0.00  0.00    +0.000 C 
ATOM     11  H   UNL     1       2.174   2.897 -19.384  0.00  0.00    +0.000 HD
ATOM     12  H   UNL     1       2.255   1.542 -20.500  0.00  0.00    +0.000 HD
BRANCH  10  13
ATOM     13  C   UNL     1       1.085   3.202 -21.226  0.00  0.00    +0.000 C 
ATOM     14  H   UNL     1       0.828   4.193 -20.833  0.00  0.00    +0.000 HD
ATOM     15  H   UNL     1       1.355   3.301 -22.283  0.00  0.00    +0.000 HD
BRANCH  13  17
ATOM     16  O   UNL     1      -1.249   2.696 -20.741  0.00  0.00    +0.000 OA
ATOM     17  C   UNL     1      -0.152   2.335 -21.143  0.00  0.00    +0.000 C 
BRANCH  17  18
ATOM     18  O   UNL     1       0.093   1.078 -21.600  0.00  0.00    +0.000 OA
ATOM     19  H   UNL     1      -0.611   0.449 -21.333  0.00  0.00    +0.000 HD
ENDBRANCH  17  18
ENDBRANCH  13  17
ENDBRANCH  10  13
ENDBRANCH   7  10
ENDBRANCH   4   7
ENDBRANCH   1   4
BRANCH   1  20
ATOM     20  C   UNL     1       5.381   5.785 -18.574  0.00  0.00    +0.000 C 
ATOM     21  H   UNL     1       4.743   6.322 -17.862  0.00  0.00    +0.000 HD
ATOM     22  H   UNL     1       6.078   6.522 -18.992  0.00  0.00    +0.000 HD
BRANCH  20  23
ATOM     23  C   UNL     1       6.168   4.703 -17.831  0.00  0.00    +0.000 C 
ATOM     24  H   UNL     1       6.079   4.861 -16.750  0.00  0.00    +0.000 HD
ATOM     25  H   UNL     1       5.735   3.721 -18.051  0.00  0.00    +0.000 HD
BRANCH  23  26
ATOM     26  C   UNL     1       7.644   4.719 -18.233  0.00  0.00    +0.000 C 
ATOM     27  H   UNL     1       7.803   5.451 -19.033  0.00  0.00    +0.000 HD
ATOM     28  H   UNL     1       8.259   5.031 -17.381  0.00  0.00    +0.000 HD
BRANCH  26  29
ATOM     29  C   UNL     1       8.105   3.352 -18.711  0.00  0.00    +0.000 C 
ATOM     30  H   UNL     1       8.224   3.337 -19.799  0.00  0.00    +0.000 HD
ATOM     31  H   UNL     1       7.370   2.587 -18.440  0.00  0.00    +0.000 HD
ATOM     32  H   UNL     1       9.063   3.080 -18.257  0.00  0.00    +0.000 HD
ENDBRANCH  26  29
ENDBRANCH  23  26
ENDBRANCH  20  23
ENDBRANCH   1  20
TORSDOF 10
ENDMDL
MODEL 5
REMARK VINA RESULT:    -3.980      2.027      3.025
REMARK INTER + INTRA:          -6.958
REMARK INTER:                  -6.461
REMARK INTRA:                  -0.498
REMARK UNBOUND:                -0.884
REMARK  Name = 2969
REMARK  10 active torsions:
REMARK  status: ('A' for Active; 'I' for Inactive)
REMARK    1  A    between atoms: O_1  and  C_12
REMARK    2  A    between atoms: C_3  and  C_4
REMARK    3  A    between atoms: C_3  and  C_5
REMARK    4  A    between atoms: C_4  and  C_6
REMARK    5  A    between atoms: C_5  and  C_7
REMARK    6  A    between atoms: C_6  and  C_8
REMARK    7  A    between atoms: C_7  and  C_9
REMARK    8  A    between atoms: C_8  and  C_10
REMARK    9  A    between atoms: C_9  and  C_11
REMARK   10  A    between atoms: C_10  and  C_12
REMARK                            x       y       z     vdW  Elec       q    Type
REMARK                         _______ _______ _______ _____ _____    ______ ____
ROOT
ATOM      1  C   UNL     1       4.467   3.772 -19.966  0.00  0.00    +0.000 C 
ATOM      2  H   UNL     1       5.390   3.421 -20.445  0.00  0.00    +0.000 HD
ATOM      3  H   UNL     1       4.313   3.133 -19.088  0.00  0.00    +0.000 HD
ENDROOT
BRANCH   1   4
ATOM      4  C   UNL     1       3.300   3.552 -20.934  0.00  0.00    +0.000 C 
ATOM      5  H   UNL     1       3.687   3.063 -21.836  0.00  0.00    +0.000 HD
ATOM      6  H   UNL     1       2.921   4.531 -21.253  0.00  0.00    +0.000 HD
BRANCH   4   7
ATOM      7  C   UNL     1       2.129   2.728 -20.389  0.00  0.00    +0.000 C 
ATOM      8  H   UNL     1       1.797   2.022 -21.159  0.00  0.00    +0.000 HD
ATOM      9  H   UNL     1       2.481   2.131 -19.539  0.00  0.00    +0.000 HD
BRANCH   7  10
ATOM     10  C   UNL     1       0.936   3.586 -19.950  0.00  0.00    +0.000 C 
ATOM     11  H   UNL     1       1.036   3.834 -18.886  0.00  0.00    +0.000 HD
ATOM     12  H   UNL     1       0.013   3.003 -20.049  0.00  0.00    +0.000 HD
BRANCH  10  13
ATOM     13  C   UNL     1       0.813   4.873 -20.768  0.00  0.00    +0.000 C 
ATOM     14  H   UNL     1       0.558   5.705 -20.102  0.00  0.00    +0.000 HD
ATOM     15  H   UNL     1       1.771   5.090 -21.255  0.00  0.00    +0.000 HD
BRANCH  13  17
ATOM     16  O   UNL     1      -0.744   3.769 -22.283  0.00  0.00    +0.000 OA
ATOM     17  C   UNL     1      -0.247   4.797 -21.845  0.00  0.00    +0.000 C 
BRANCH  17  18
ATOM     18  O   UNL     1      -0.612   6.036 -22.269  0.00  0.00    +0.000 OA
ATOM     19  H   UNL     1       0.096   6.464 -22.798  0.00  0.00    +0.000 HD
ENDBRANCH  17  18
ENDBRANCH  13  17
ENDBRANCH  10  13
ENDBRANCH   7  10
ENDBRANCH   4   7
ENDBRANCH   1   4
BRANCH   1  20
ATOM     20  C   UNL     1       4.675   5.214 -19.490  0.00  0.00    +0.000 C 
ATOM     21  H   UNL     1       3.819   5.511 -18.873  0.00  0.00    +0.000 HD
ATOM     22  H   UNL     1       4.681   5.877 -20.364  0.00  0.00    +0.000 HD
BRANCH  20  23
ATOM     23  C   UNL     1       5.965   5.409 -18.692  0.00  0.00    +0.000 C 
ATOM     24  H   UNL     1       6.731   5.858 -19.335  0.00  0.00    +0.000 HD
ATOM     25  H   UNL     1       5.783   6.109 -17.869  0.00  0.00    +0.000 HD
BRANCH  23  26
ATOM     26  C   UNL     1       6.477   4.080 -18.134  0.00  0.00    +0.000 C 
ATOM     27  H   UNL     1       6.373   4.070 -17.043  0.00  0.00    +0.000 HD
ATOM     28  H   UNL     1       5.872   3.254 -18.525  0.00  0.00    +0.000 HD
BRANCH  26  29
ATOM     29  C   UNL     1       7.935   3.848 -18.496  0.00  0.00    +0.000 C 
ATOM     30  H   UNL     1       8.327   2.959 -17.994  0.00  0.00    +0.000 HD
ATOM     31  H   UNL     1       8.543   4.706 -18.190  0.00  0.00    +0.000 HD
ATOM     32  H   UNL     1       8.055   3.715 -19.576  0.00  0.00    +0.000 HD
ENDBRANCH  26  29
ENDBRANCH  23  26
ENDBRANCH  20  23
ENDBRANCH   1  20
TORSDOF 10
ENDMDL
MODEL 6
REMARK VINA RESULT:    -3.817     24.439     25.820
REMARK INTER + INTRA:          -6.709
REMARK INTER:                  -5.838
REMARK INTRA:                  -0.871
REMARK UNBOUND:                -0.884
REMARK  Name = 2969
REMARK  10 active torsions:
REMARK  status: ('A' for Active; 'I' for Inactive)
REMARK    1  A    between atoms: O_1  and  C_12
REMARK    2  A    between atoms: C_3  and  C_4
REMARK    3  A    between atoms: C_3  and  C_5
REMARK    4  A    between atoms: C_4  and  C_6
REMARK    5  A    between atoms: C_5  and  C_7
REMARK    6  A    between atoms: C_6  and  C_8
REMARK    7  A    between atoms: C_7  and  C_9
REMARK    8  A    between atoms: C_8  and  C_10
REMARK    9  A    between atoms: C_9  and  C_11
REMARK   10  A    between atoms: C_10  and  C_12
REMARK                            x       y       z     vdW  Elec       q    Type
REMARK                         _______ _______ _______ _____ _____    ______ ____
ROOT
ATOM      1  C   UNL     1      19.371  -6.790  -3.581  0.00  0.00    +0.000 C 
ATOM      2  H   UNL     1      18.836  -6.710  -2.626  0.00  0.00    +0.000 HD
ATOM      3  H   UNL     1      19.762  -7.813  -3.631  0.00  0.00    +0.000 HD
ENDROOT
BRANCH   1   4
ATOM      4  C   UNL     1      20.558  -5.821  -3.557  0.00  0.00    +0.000 C 
ATOM      5  H   UNL     1      21.396  -6.289  -4.088  0.00  0.00    +0.000 HD
ATOM      6  H   UNL     1      20.886  -5.694  -2.517  0.00  0.00    +0.000 HD
BRANCH   4   7
ATOM      7  C   UNL     1      20.301  -4.437  -4.161  0.00  0.00    +0.000 C 
ATOM      8  H   UNL     1      21.258  -3.990  -4.455  0.00  0.00    +0.000 HD
ATOM      9  H   UNL     1      19.710  -4.554  -5.077  0.00  0.00    +0.000 HD
BRANCH   7  10
ATOM     10  C   UNL     1      19.576  -3.483  -3.204  0.00  0.00    +0.000 C 
ATOM     11  H   UNL     1      18.507  -3.732  -3.180  0.00  0.00    +0.000 HD
ATOM     12  H   UNL     1      19.648  -2.459  -3.588  0.00  0.00    +0.000 HD
BRANCH  10  13
ATOM     13  C   UNL     1      20.148  -3.534  -1.787  0.00  0.00    +0.000 C 
ATOM     14  H   UNL     1      20.173  -4.574  -1.441  0.00  0.00    +0.000 HD
ATOM     15  H   UNL     1      21.170  -3.138  -1.790  0.00  0.00    +0.000 HD
BRANCH  13  17
ATOM     16  O   UNL     1      19.585  -1.585  -0.437  0.00  0.00    +0.000 OA
ATOM     17  C   UNL     1      19.344  -2.732  -0.789  0.00  0.00    +0.000 C 
BRANCH  17  18
ATOM     18  O   UNL     1      18.278  -3.439  -0.328  0.00  0.00    +0.000 OA
ATOM     19  H   UNL     1      17.438  -2.941  -0.431  0.00  0.00    +0.000 HD
ENDBRANCH  17  18
ENDBRANCH  13  17
ENDBRANCH  10  13
ENDBRANCH   7  10
ENDBRANCH   4   7
ENDBRANCH   1   4
BRANCH   1  20
ATOM     20  C   UNL     1      18.373  -6.591  -4.726  0.00  0.00    +0.000 C 
ATOM     21  H   UNL     1      18.325  -7.512  -5.319  0.00  0.00    +0.000 HD
ATOM     22  H   UNL     1      18.750  -5.805  -5.392  0.00  0.00    +0.000 HD
BRANCH  20  23
ATOM     23  C   UNL     1      16.967  -6.224  -4.248  0.00  0.00    +0.000 C 
ATOM     24  H   UNL     1      16.606  -5.349  -4.802  0.00  0.00    +0.000 HD
ATOM     25  H   UNL     1      16.280  -7.050  -4.465  0.00  0.00    +0.000 HD
BRANCH  23  26
ATOM     26  C   UNL     1      16.953  -5.923  -2.748  0.00  0.00    +0.000 C 
ATOM     27  H   UNL     1      16.792  -6.850  -2.185  0.00  0.00    +0.000 HD
ATOM     28  H   UNL     1      17.926  -5.522  -2.440  0.00  0.00    +0.000 HD
BRANCH  26  29
ATOM     29  C   UNL     1      15.863  -4.928  -2.389  0.00  0.00    +0.000 C 
ATOM     30  H   UNL     1      15.616  -4.984  -1.325  0.00  0.00    +0.000 HD
ATOM     31  H   UNL     1      14.953  -5.140  -2.960  0.00  0.00    +0.000 HD
ATOM     32  H   UNL     1      16.175  -3.904  -2.616  0.00  0.00    +0.000 HD
ENDBRANCH  26  29
ENDBRANCH  23  26
ENDBRANCH  20  23
ENDBRANCH   1  20
TORSDOF 10
ENDMDL
MODEL 7
REMARK VINA RESULT:    -3.788      4.990      7.389
REMARK INTER + INTRA:          -6.665
REMARK INTER:                  -5.936
REMARK INTRA:                  -0.729
REMARK UNBOUND:                -0.884
REMARK  Name = 2969
REMARK  10 active torsions:
REMARK  status: ('A' for Active; 'I' for Inactive)
REMARK    1  A    between atoms: O_1  and  C_12
REMARK    2  A    between atoms: C_3  and  C_4
REMARK    3  A    between atoms: C_3  and  C_5
REMARK    4  A    between atoms: C_4  and  C_6
REMARK    5  A    between atoms: C_5  and  C_7
REMARK    6  A    between atoms: C_6  and  C_8
REMARK    7  A    between atoms: C_7  and  C_9
REMARK    8  A    between atoms: C_8  and  C_10
REMARK    9  A    between atoms: C_9  and  C_11
REMARK   10  A    between atoms: C_10  and  C_12
REMARK                            x       y       z     vdW  Elec       q    Type
REMARK                         _______ _______ _______ _____ _____    ______ ____
ROOT
ATOM      1  C   UNL     1       7.630   4.780 -18.030  0.00  0.00    +0.000 C 
ATOM      2  H   UNL     1       7.927   5.760 -18.424  0.00  0.00    +0.000 HD
ATOM      3  H   UNL     1       8.022   4.727 -17.007  0.00  0.00    +0.000 HD
ENDROOT
BRANCH   1   4
ATOM      4  C   UNL     1       8.313   3.691 -18.864  0.00  0.00    +0.000 C 
ATOM      5  H   UNL     1       7.685   2.792 -18.838  0.00  0.00    +0.000 HD
ATOM      6  H   UNL     1       9.259   3.420 -18.379  0.00  0.00    +0.000 HD
BRANCH   4   7
ATOM      7  C   UNL     1       8.598   4.052 -20.325  0.00  0.00    +0.000 C 
ATOM      8  H   UNL     1       9.138   3.225 -20.801  0.00  0.00    +0.000 HD
ATOM      9  H   UNL     1       7.644   4.156 -20.857  0.00  0.00    +0.000 HD
BRANCH   7  10
ATOM     10  C   UNL     1       9.414   5.340 -20.484  0.00  0.00    +0.000 C 
ATOM     11  H   UNL     1       9.175   6.028 -19.663  0.00  0.00    +0.000 HD
ATOM     12  H   UNL     1       9.118   5.846 -21.410  0.00  0.00    +0.000 HD
BRANCH  10  13
ATOM     13  C   UNL     1      10.920   5.075 -20.510  0.00  0.00    +0.000 C 
ATOM     14  H   UNL     1      11.121   4.071 -20.119  0.00  0.00    +0.000 HD
ATOM     15  H   UNL     1      11.283   5.130 -21.543  0.00  0.00    +0.000 HD
BRANCH  13  17
ATOM     16  O   UNL     1      12.073   7.172 -20.057  0.00  0.00    +0.000 OA
ATOM     17  C   UNL     1      11.715   6.063 -19.687  0.00  0.00    +0.000 C 
BRANCH  17  18
ATOM     18  O   UNL     1      11.976   5.576 -18.445  0.00  0.00    +0.000 OA
ATOM     19  H   UNL     1      11.337   4.878 -18.184  0.00  0.00    +0.000 HD
ENDBRANCH  17  18
ENDBRANCH  13  17
ENDBRANCH  10  13
ENDBRANCH   7  10
ENDBRANCH   4   7
ENDBRANCH   1   4
BRANCH   1  20
ATOM     20  C   UNL     1       6.101   4.712 -17.971  0.00  0.00    +0.000 C 
ATOM     21  H   UNL     1       5.782   4.784 -16.924  0.00  0.00    +0.000 HD
ATOM     22  H   UNL     1       5.775   3.730 -18.334  0.00  0.00    +0.000 HD
BRANCH  20  23
ATOM     23  C   UNL     1       5.413   5.811 -18.784  0.00  0.00    +0.000 C 
ATOM     24  H   UNL     1       4.531   6.172 -18.242  0.00  0.00    +0.000 HD
ATOM     25  H   UNL     1       6.094   6.662 -18.898  0.00  0.00    +0.000 HD
BRANCH  23  26
ATOM     26  C   UNL     1       4.995   5.297 -20.163  0.00  0.00    +0.000 C 
ATOM     27  H   UNL     1       4.229   5.957 -20.589  0.00  0.00    +0.000 HD
ATOM     28  H   UNL     1       5.854   5.316 -20.844  0.00  0.00    +0.000 HD
BRANCH  26  29
ATOM     29  C   UNL     1       4.445   3.883 -20.088  0.00  0.00    +0.000 C 
ATOM     30  H   UNL     1       5.160   3.210 -19.603  0.00  0.00    +0.000 HD
ATOM     31  H   UNL     1       4.246   3.499 -21.094  0.00  0.00    +0.000 HD
ATOM     32  H   UNL     1       3.509   3.854 -19.523  0.00  0.00    +0.000 HD
ENDBRANCH  26  29
ENDBRANCH  23  26
ENDBRANCH  20  23
ENDBRANCH   1  20
TORSDOF 10
ENDMDL
MODEL 8
REMARK VINA RESULT:    -3.758     25.748     27.243
REMARK INTER + INTRA:          -6.618
REMARK INTER:                  -5.913
REMARK INTRA:                  -0.705
REMARK UNBOUND:                -0.884
REMARK  Name = 2969
REMARK  10 active torsions:
REMARK  status: ('A' for Active; 'I' for Inactive)
REMARK    1  A    between atoms: O_1  and  C_12
REMARK    2  A    between atoms: C_3  and  C_4
REMARK    3  A    between atoms: C_3  and  C_5
REMARK    4  A    between atoms: C_4  and  C_6
REMARK    5  A    between atoms: C_5  and  C_7
REMARK    6  A    between atoms: C_6  and  C_8
REMARK    7  A    between atoms: C_7  and  C_9
REMARK    8  A    between atoms: C_8  and  C_10
REMARK    9  A    between atoms: C_9  and  C_11
REMARK   10  A    between atoms: C_10  and  C_12
REMARK                            x       y       z     vdW  Elec       q    Type
REMARK                         _______ _______ _______ _____ _____    ______ ____
ROOT
ATOM      1  C   UNL     1     -16.098  -3.967  -4.706  0.00  0.00    +0.000 C 
ATOM      2  H   UNL     1     -16.444  -2.932  -4.591  0.00  0.00    +0.000 HD
ATOM      3  H   UNL     1     -16.935  -4.526  -5.141  0.00  0.00    +0.000 HD
ENDROOT
BRANCH   1   4
ATOM      4  C   UNL     1     -15.807  -4.541  -3.315  0.00  0.00    +0.000 C 
ATOM      5  H   UNL     1     -16.438  -4.017  -2.587  0.00  0.00    +0.000 HD
ATOM      6  H   UNL     1     -14.769  -4.305  -3.049  0.00  0.00    +0.000 HD
BRANCH   4   7
ATOM      7  C   UNL     1     -16.020  -6.050  -3.159  0.00  0.00    +0.000 C 
ATOM      8  H   UNL     1     -16.378  -6.463  -4.109  0.00  0.00    +0.000 HD
ATOM      9  H   UNL     1     -15.053  -6.524  -2.950  0.00  0.00    +0.000 HD
BRANCH   7  10
ATOM     10  C   UNL     1     -17.015  -6.410  -2.050  0.00  0.00    +0.000 C 
ATOM     11  H   UNL     1     -16.602  -6.114  -1.077  0.00  0.00    +0.000 HD
ATOM     12  H   UNL     1     -17.143  -7.499  -2.015  0.00  0.00    +0.000 HD
BRANCH  10  13
ATOM     13  C   UNL     1     -18.378  -5.747  -2.253  0.00  0.00    +0.000 C 
ATOM     14  H   UNL     1     -18.879  -5.638  -1.284  0.00  0.00    +0.000 HD
ATOM     15  H   UNL     1     -18.239  -4.753  -2.693  0.00  0.00    +0.000 HD
BRANCH  13  17
ATOM     16  O   UNL     1     -19.871  -7.571  -2.872  0.00  0.00    +0.000 OA
ATOM     17  C   UNL     1     -19.295  -6.532  -3.165  0.00  0.00    +0.000 C 
BRANCH  17  18
ATOM     18  O   UNL     1     -19.430  -5.926  -4.374  0.00  0.00    +0.000 OA
ATOM     19  H   UNL     1     -19.924  -5.080  -4.305  0.00  0.00    +0.000 HD
ENDBRANCH  17  18
ENDBRANCH  13  17
ENDBRANCH  10  13
ENDBRANCH   7  10
ENDBRANCH   4   7
ENDBRANCH   1   4
BRANCH   1  20
ATOM     20  C   UNL     1     -14.928  -3.991  -5.694  0.00  0.00    +0.000 C 
ATOM     21  H   UNL     1     -15.069  -3.193  -6.432  0.00  0.00    +0.000 HD
ATOM     22  H   UNL     1     -14.949  -4.940  -6.245  0.00  0.00    +0.000 HD
BRANCH  20  23
ATOM     23  C   UNL     1     -13.563  -3.822  -5.023  0.00  0.00    +0.000 C 
ATOM     24  H   UNL     1     -13.060  -2.937  -5.430  0.00  0.00    +0.000 HD
ATOM     25  H   UNL     1     -13.703  -3.650  -3.949  0.00  0.00    +0.000 HD
BRANCH  23  26
ATOM     26  C   UNL     1     -12.685  -5.057  -5.236  0.00  0.00    +0.000 C 
ATOM     27  H   UNL     1     -13.203  -5.774  -5.884  0.00  0.00    +0.000 HD
ATOM     28  H   UNL     1     -11.758  -4.770  -5.746  0.00  0.00    +0.000 HD
BRANCH  26  29
ATOM     29  C   UNL     1     -12.345  -5.733  -3.919  0.00  0.00    +0.000 C 
ATOM     30  H   UNL     1     -11.652  -5.122  -3.332  0.00  0.00    +0.000 HD
ATOM     31  H   UNL     1     -11.871  -6.703  -4.102  0.00  0.00    +0.000 HD
ATOM     32  H   UNL     1     -13.245  -5.903  -3.320  0.00  0.00    +0.000 HD
ENDBRANCH  26  29
ENDBRANCH  23  26
ENDBRANCH  20  23
ENDBRANCH   1  20
TORSDOF 10
ENDMDL
MODEL 9
REMARK VINA RESULT:    -3.756     22.846     23.692
REMARK INTER + INTRA:          -6.616
REMARK INTER:                  -6.166
REMARK INTRA:                  -0.450
REMARK UNBOUND:                -0.884
REMARK  Name = 2969
REMARK  10 active torsions:
REMARK  status: ('A' for Active; 'I' for Inactive)
REMARK    1  A    between atoms: O_1  and  C_12
REMARK    2  A    between atoms: C_3  and  C_4
REMARK    3  A    between atoms: C_3  and  C_5
REMARK    4  A    between atoms: C_4  and  C_6
REMARK    5  A    between atoms: C_5  and  C_7
REMARK    6  A    between atoms: C_6  and  C_8
REMARK    7  A    between atoms: C_7  and  C_9
REMARK    8  A    between atoms: C_8  and  C_10
REMARK    9  A    between atoms: C_9  and  C_11
REMARK   10  A    between atoms: C_10  and  C_12
REMARK                            x       y       z     vdW  Elec       q    Type
REMARK                         _______ _______ _______ _____ _____    ______ ____
ROOT
ATOM      1  C   UNL     1      15.742   5.255  -1.611  0.00  0.00    +0.000 C 
ATOM      2  H   UNL     1      14.939   4.821  -2.220  0.00  0.00    +0.000 HD
ATOM      3  H   UNL     1      16.662   5.161  -2.202  0.00  0.00    +0.000 HD
ENDROOT
BRANCH   1   4
ATOM      4  C   UNL     1      15.899   4.415  -0.339  0.00  0.00    +0.000 C 
ATOM      5  H   UNL     1      15.853   5.087   0.526  0.00  0.00    +0.000 HD
ATOM      6  H   UNL     1      16.904   3.974  -0.333  0.00  0.00    +0.000 HD
BRANCH   4   7
ATOM      7  C   UNL     1      14.872   3.294  -0.150  0.00  0.00    +0.000 C 
ATOM      8  H   UNL     1      14.065   3.418  -0.882  0.00  0.00    +0.000 HD
ATOM      9  H   UNL     1      15.353   2.333  -0.368  0.00  0.00    +0.000 HD
BRANCH   7  10
ATOM     10  C   UNL     1      14.269   3.255   1.258  0.00  0.00    +0.000 C 
ATOM     11  H   UNL     1      14.936   3.777   1.957  0.00  0.00    +0.000 HD
ATOM     12  H   UNL     1      14.211   2.216   1.601  0.00  0.00    +0.000 HD
BRANCH  10  13
ATOM     13  C   UNL     1      12.875   3.884   1.312  0.00  0.00    +0.000 C 
ATOM     14  H   UNL     1      12.343   3.673   0.377  0.00  0.00    +0.000 HD
ATOM     15  H   UNL     1      12.310   3.452   2.146  0.00  0.00    +0.000 HD
BRANCH  13  17
ATOM     16  O   UNL     1      13.220   5.967   2.529  0.00  0.00    +0.000 OA
ATOM     17  C   UNL     1      12.904   5.385   1.501  0.00  0.00    +0.000 C 
BRANCH  17  18
ATOM     18  O   UNL     1      12.552   6.035   0.360  0.00  0.00    +0.000 OA
ATOM     19  H   UNL     1      13.075   6.855   0.230  0.00  0.00    +0.000 HD
ENDBRANCH  17  18
ENDBRANCH  13  17
ENDBRANCH  10  13
ENDBRANCH   7  10
ENDBRANCH   4   7
ENDBRANCH   1   4
BRANCH   1  20
ATOM     20  C   UNL     1      15.451   6.743  -1.395  0.00  0.00    +0.000 C 
ATOM     21  H   UNL     1      14.985   6.874  -0.411  0.00  0.00    +0.000 HD
ATOM     22  H   UNL     1      14.716   7.072  -2.140  0.00  0.00    +0.000 HD
BRANCH  20  23
ATOM     23  C   UNL     1      16.698   7.625  -1.484  0.00  0.00    +0.000 C 
ATOM     24  H   UNL     1      16.677   8.374  -0.684  0.00  0.00    +0.000 HD
ATOM     25  H   UNL     1      17.592   7.011  -1.330  0.00  0.00    +0.000 HD
BRANCH  23  26
ATOM     26  C   UNL     1      16.783   8.326  -2.841  0.00  0.00    +0.000 C 
ATOM     27  H   UNL     1      16.254   7.735  -3.599  0.00  0.00    +0.000 HD
ATOM     28  H   UNL     1      16.287   9.303  -2.788  0.00  0.00    +0.000 HD
BRANCH  26  29
ATOM     29  C   UNL     1      18.225   8.519  -3.280  0.00  0.00    +0.000 C 
ATOM     30  H   UNL     1      18.871   8.726  -2.421  0.00  0.00    +0.000 HD
ATOM     31  H   UNL     1      18.301   9.362  -3.973  0.00  0.00    +0.000 HD
ATOM     32  H   UNL     1      18.604   7.626  -3.788  0.00  0.00    +0.000 HD
ENDBRANCH  26  29
ENDBRANCH  23  26
ENDBRANCH  20  23
ENDBRANCH   1  20
TORSDOF 10
ENDMDL
MODEL 10
REMARK VINA RESULT:    -3.623      2.891      4.565
REMARK INTER + INTRA:          -6.413
REMARK INTER:                  -5.529
REMARK INTRA:                  -0.884
REMARK UNBOUND:                -0.884
REMARK  Name = 2969
REMARK  10 active torsions:
REMARK  status: ('A' for Active; 'I' for Inactive)
REMARK    1  A    between atoms: O_1  and  C_12
REMARK    2  A    between atoms: C_3  and  C_4
REMARK    3  A    between atoms: C_3  and  C_5
REMARK    4  A    between atoms: C_4  and  C_6
REMARK    5  A    between atoms: C_5  and  C_7
REMARK    6  A    between atoms: C_6  and  C_8
REMARK    7  A    between atoms: C_7  and  C_9
REMARK    8  A    between atoms: C_8  and  C_10
REMARK    9  A    between atoms: C_9  and  C_11
REMARK   10  A    between atoms: C_10  and  C_12
REMARK                            x       y       z     vdW  Elec       q    Type
REMARK                         _______ _______ _______ _____ _____    ______ ____
ROOT
ATOM      1  C   UNL     1       3.754   3.876 -22.814  0.00  0.00    +0.000 C 
ATOM      2  H   UNL     1       4.492   3.455 -23.509  0.00  0.00    +0.000 HD
ATOM      3  H   UNL     1       4.322   4.441 -22.066  0.00  0.00    +0.000 HD
ENDROOT
BRANCH   1   4
ATOM      4  C   UNL     1       3.038   2.722 -22.105  0.00  0.00    +0.000 C 
ATOM      5  H   UNL     1       3.513   1.782 -22.409  0.00  0.00    +0.000 HD
ATOM      6  H   UNL     1       2.003   2.676 -22.469  0.00  0.00    +0.000 HD
BRANCH   4   7
ATOM      7  C   UNL     1       3.015   2.792 -20.575  0.00  0.00    +0.000 C 
ATOM      8  H   UNL     1       3.862   2.222 -20.176  0.00  0.00    +0.000 HD
ATOM      9  H   UNL     1       3.160   3.834 -20.266  0.00  0.00    +0.000 HD
BRANCH   7  10
ATOM     10  C   UNL     1       1.717   2.254 -19.962  0.00  0.00    +0.000 C 
ATOM     11  H   UNL     1       1.841   2.147 -18.877  0.00  0.00    +0.000 HD
ATOM     12  H   UNL     1       1.519   1.249 -20.353  0.00  0.00    +0.000 HD
BRANCH  10  13
ATOM     13  C   UNL     1       0.518   3.157 -20.256  0.00  0.00    +0.000 C 
ATOM     14  H   UNL     1       0.081   3.503 -19.312  0.00  0.00    +0.000 HD
ATOM     15  H   UNL     1       0.848   4.028 -20.833  0.00  0.00    +0.000 HD
BRANCH  13  17
ATOM     16  O   UNL     1      -0.406   1.534 -21.821  0.00  0.00    +0.000 OA
ATOM     17  C   UNL     1      -0.571   2.465 -21.047  0.00  0.00    +0.000 C 
BRANCH  17  18
ATOM     18  O   UNL     1      -1.793   2.995 -20.775  0.00  0.00    +0.000 OA
ATOM     19  H   UNL     1      -2.086   3.616 -21.476  0.00  0.00    +0.000 HD
ENDBRANCH  17  18
ENDBRANCH  13  17
ENDBRANCH  10  13
ENDBRANCH   7  10
ENDBRANCH   4   7
ENDBRANCH   1   4
BRANCH   1  20
ATOM     20  C   UNL     1       2.852   4.849 -23.580  0.00  0.00    +0.000 C 
ATOM     21  H   UNL     1       3.329   5.100 -24.535  0.00  0.00    +0.000 HD
ATOM     22  H   UNL     1       2.774   5.783 -23.010  0.00  0.00    +0.000 HD
BRANCH  20  23
ATOM     23  C   UNL     1       1.450   4.296 -23.845  0.00  0.00    +0.000 C 
ATOM     24  H   UNL     1       1.311   4.149 -24.923  0.00  0.00    +0.000 HD
ATOM     25  H   UNL     1       1.349   3.314 -23.369  0.00  0.00    +0.000 HD
BRANCH  23  26
ATOM     26  C   UNL     1       0.372   5.241 -23.312  0.00  0.00    +0.000 C 
ATOM     27  H   UNL     1      -0.508   5.208 -23.965  0.00  0.00    +0.000 HD
ATOM     28  H   UNL     1       0.050   4.914 -22.317  0.00  0.00    +0.000 HD
BRANCH  26  29
ATOM     29  C   UNL     1       0.877   6.672 -23.231  0.00  0.00    +0.000 C 
ATOM     30  H   UNL     1       0.078   7.383 -23.463  0.00  0.00    +0.000 HD
ATOM     31  H   UNL     1       1.690   6.829 -23.947  0.00  0.00    +0.000 HD
ATOM     32  H   UNL     1       1.258   6.898 -22.230  0.00  0.00    +0.000 HD
ENDBRANCH  26  29
ENDBRANCH  23  26
ENDBRANCH  20  23
ENDBRANCH   1  20
TORSDOF 10
ENDMDL
