MODEL 1
REMARK VINA RESULT:    -4.867      0.000      0.000
REMARK INTER + INTRA:          -6.435
REMARK INTER:                  -6.173
REMARK INTRA:                  -0.262
REMARK UNBOUND:                -0.288
REMARK  Name = 4284
REMARK  6 active torsions:
REMARK  status: ('A' for Active; 'I' for Inactive)
REMARK    1  A    between atoms: N_2  and  C_3
REMARK    2  A    between atoms: N_2  and  C_4
REMARK    3  A    between atoms: C_3  and  C_7
REMARK    4  A    between atoms: C_4  and  C_8
REMARK    5  A    between atoms: C_5  and  C_6
REMARK    6  A    between atoms: C_10  and  C_14
REMARK                            x       y       z     vdW  Elec       q    Type
REMARK                         _______ _______ _______ _____ _____    ______ ____
ROOT
ATOM      1  O   UNL     1      -4.080 -15.326   4.047  0.00  0.00    +0.000 OA
ATOM      2  N   UNL     1      -5.616 -15.088   2.302  0.00  0.00    +0.000 N 
ATOM      3  C   UNL     1      -5.231 -15.094   3.655  0.00  0.00    +0.000 C 
ENDROOT
BRANCH   3   4
ATOM      4  C   UNL     1      -6.227 -14.799   4.671  0.00  0.00    +0.000 A 
ATOM      5  C   UNL     1      -6.798 -15.834   5.412  0.00  0.00    +0.000 A 
ATOM      6  C   UNL     1      -7.752 -15.549   6.389  0.00  0.00    +0.000 A 
ATOM      7  C   UNL     1      -6.611 -13.478   4.908  0.00  0.00    +0.000 A 
ATOM      8  C   UNL     1      -8.136 -14.229   6.625  0.00  0.00    +0.000 A 
ATOM      9  C   UNL     1      -7.566 -13.194   5.885  0.00  0.00    +0.000 A 
ATOM     10  H   UNL     1      -6.492 -16.863   5.236  0.00  0.00    +0.000 HD
ATOM     11  H   UNL     1      -6.173 -12.664   4.337  0.00  0.00    +0.000 HD
ATOM     12  H   UNL     1      -8.880 -13.994   7.382  0.00  0.00    +0.000 HD
ATOM     13  H   UNL     1      -7.864 -12.166   6.068  0.00  0.00    +0.000 HD
BRANCH   6  14
ATOM     14  C   UNL     1      -8.361 -16.656   7.181  0.00  0.00    +0.000 C 
ATOM     15  H   UNL     1      -9.237 -17.068   6.671  0.00  0.00    +0.000 HD
ATOM     16  H   UNL     1      -7.654 -17.481   7.322  0.00  0.00    +0.000 HD
ATOM     17  H   UNL     1      -8.668 -16.288   8.166  0.00  0.00    +0.000 HD
ENDBRANCH   6  14
ENDBRANCH   3   4
BRANCH   2  18
ATOM     18  C   UNL     1      -4.673 -15.358   1.225  0.00  0.00    +0.000 C 
ATOM     19  H   UNL     1      -4.697 -14.516   0.524  0.00  0.00    +0.000 HD
ATOM     20  H   UNL     1      -3.659 -15.418   1.630  0.00  0.00    +0.000 HD
BRANCH  18  21
ATOM     21  C   UNL     1      -5.033 -16.624   0.476  0.00  0.00    +0.000 C 
ATOM     22  H   UNL     1      -4.146 -17.232   0.272  0.00  0.00    +0.000 HD
ATOM     23  H   UNL     1      -5.732 -17.240   1.055  0.00  0.00    +0.000 HD
ATOM     24  H   UNL     1      -5.507 -16.381  -0.480  0.00  0.00    +0.000 HD
ENDBRANCH  18  21
ENDBRANCH   2  18
BRANCH   2  25
ATOM     25  C   UNL     1      -6.989 -14.807   1.884  0.00  0.00    +0.000 C 
ATOM     26  H   UNL     1      -7.376 -15.619   1.262  0.00  0.00    +0.000 HD
ATOM     27  H   UNL     1      -7.629 -14.770   2.772  0.00  0.00    +0.000 HD
BRANCH  25  28
ATOM     28  C   UNL     1      -7.080 -13.502   1.120  0.00  0.00    +0.000 C 
ATOM     29  H   UNL     1      -6.733 -13.626   0.090  0.00  0.00    +0.000 HD
ATOM     30  H   UNL     1      -8.097 -13.111   1.077  0.00  0.00    +0.000 HD
ATOM     31  H   UNL     1      -6.449 -12.744   1.596  0.00  0.00    +0.000 HD
ENDBRANCH  25  28
ENDBRANCH   2  25
TORSDOF 6
ENDMDL
MODEL 2
REMARK VINA RESULT:    -4.762      1.885      5.490
REMARK INTER + INTRA:          -6.303
REMARK INTER:                  -6.037
REMARK INTRA:                  -0.266
REMARK UNBOUND:                -0.288
REMARK  Name = 4284
REMARK  6 active torsions:
REMARK  status: ('A' for Active; 'I' for Inactive)
REMARK    1  A    between atoms: N_2  and  C_3
REMARK    2  A    between atoms: N_2  and  C_4
REMARK    3  A    between atoms: C_3  and  C_7
REMARK    4  A    between atoms: C_4  and  C_8
REMARK    5  A    between atoms: C_5  and  C_6
REMARK    6  A    between atoms: C_10  and  C_14
REMARK                            x       y       z     vdW  Elec       q    Type
REMARK                         _______ _______ _______ _____ _____    ______ ____
ROOT
ATOM      1  O   UNL     1      -5.430 -16.628   3.519  0.00  0.00    +0.000 OA
ATOM      2  N   UNL     1      -6.330 -14.566   2.884  0.00  0.00    +0.000 N 
ATOM      3  C   UNL     1      -5.390 -15.611   2.815  0.00  0.00    +0.000 C 
ENDROOT
BRANCH   3   4
ATOM      4  C   UNL     1      -4.304 -15.517   1.853  0.00  0.00    +0.000 A 
ATOM      5  C   UNL     1      -4.478 -15.993   0.553  0.00  0.00    +0.000 A 
ATOM      6  C   UNL     1      -3.435 -15.899  -0.369  0.00  0.00    +0.000 A 
ATOM      7  C   UNL     1      -3.087 -14.946   2.230  0.00  0.00    +0.000 A 
ATOM      8  C   UNL     1      -2.219 -15.330   0.007  0.00  0.00    +0.000 A 
ATOM      9  C   UNL     1      -2.045 -14.853   1.307  0.00  0.00    +0.000 A 
ATOM     10  H   UNL     1      -5.429 -16.428   0.256  0.00  0.00    +0.000 HD
ATOM     11  H   UNL     1      -2.941 -14.572   3.239  0.00  0.00    +0.000 HD
ATOM     12  H   UNL     1      -1.398 -15.253  -0.701  0.00  0.00    +0.000 HD
ATOM     13  H   UNL     1      -1.099 -14.410   1.601  0.00  0.00    +0.000 HD
BRANCH   6  14
ATOM     14  C   UNL     1      -3.622 -16.409  -1.758  0.00  0.00    +0.000 C 
ATOM     15  H   UNL     1      -2.752 -16.177  -2.382  0.00  0.00    +0.000 HD
ATOM     16  H   UNL     1      -3.744 -17.498  -1.770  0.00  0.00    +0.000 HD
ATOM     17  H   UNL     1      -4.510 -15.953  -2.209  0.00  0.00    +0.000 HD
ENDBRANCH   6  14
ENDBRANCH   3   4
BRANCH   2  18
ATOM     18  C   UNL     1      -7.454 -14.594   3.810  0.00  0.00    +0.000 C 
ATOM     19  H   UNL     1      -8.363 -14.827   3.244  0.00  0.00    +0.000 HD
ATOM     20  H   UNL     1      -7.309 -15.395   4.541  0.00  0.00    +0.000 HD
BRANCH  18  21
ATOM     21  C   UNL     1      -7.639 -13.257   4.499  0.00  0.00    +0.000 C 
ATOM     22  H   UNL     1      -7.949 -13.387   5.540  0.00  0.00    +0.000 HD
ATOM     23  H   UNL     1      -6.707 -12.681   4.499  0.00  0.00    +0.000 HD
ATOM     24  H   UNL     1      -8.404 -12.667   3.987  0.00  0.00    +0.000 HD
ENDBRANCH  18  21
ENDBRANCH   2  18
BRANCH   2  25
ATOM     25  C   UNL     1      -6.243 -13.382   2.031  0.00  0.00    +0.000 C 
ATOM     26  H   UNL     1      -6.506 -12.481   2.593  0.00  0.00    +0.000 HD
ATOM     27  H   UNL     1      -5.204 -13.250   1.712  0.00  0.00    +0.000 HD
BRANCH  25  28
ATOM     28  C   UNL     1      -7.148 -13.503   0.822  0.00  0.00    +0.000 C 
ATOM     29  H   UNL     1      -7.086 -14.505   0.386  0.00  0.00    +0.000 HD
ATOM     30  H   UNL     1      -8.195 -13.316   1.061  0.00  0.00    +0.000 HD
ATOM     31  H   UNL     1      -6.845 -12.784   0.053  0.00  0.00    +0.000 HD
ENDBRANCH  25  28
ENDBRANCH   2  25
TORSDOF 6
ENDMDL
MODEL 3
REMARK VINA RESULT:    -4.692      1.675      2.142
REMARK INTER + INTRA:          -6.214
REMARK INTER:                  -5.978
REMARK INTRA:                  -0.236
REMARK UNBOUND:                -0.288
REMARK  Name = 4284
REMARK  6 active torsions:
REMARK  status: ('A' for Active; 'I' for Inactive)
REMARK    1  A    between atoms: N_2  and  C_3
REMARK    2  A    between atoms: N_2  and  C_4
REMARK    3  A    between atoms: C_3  and  C_7
REMARK    4  A    between atoms: C_4  and  C_8
REMARK    5  A    between atoms: C_5  and  C_6
REMARK    6  A    between atoms: C_10  and  C_14
REMARK                            x       y       z     vdW  Elec       q    Type
REMARK                         _______ _______ _______ _____ _____    ______ ____
ROOT
ATOM      1  O   UNL     1      -7.784 -16.136   1.575  0.00  0.00    +0.000 OA
ATOM      2  N   UNL     1      -5.515 -15.805   2.026  0.00  0.00    +0.000 N 
ATOM      3  C   UNL     1      -6.890 -15.677   2.297  0.00  0.00    +0.000 C 
ENDROOT
BRANCH   3   4
ATOM      4  C   UNL     1      -7.307 -14.979   3.502  0.00  0.00    +0.000 A 
ATOM      5  C   UNL     1      -7.651 -15.701   4.644  0.00  0.00    +0.000 A 
ATOM      6  C   UNL     1      -8.049 -15.029   5.801  0.00  0.00    +0.000 A 
ATOM      7  C   UNL     1      -7.360 -13.585   3.515  0.00  0.00    +0.000 A 
ATOM      8  C   UNL     1      -8.102 -13.636   5.815  0.00  0.00    +0.000 A 
ATOM      9  C   UNL     1      -7.758 -12.913   4.672  0.00  0.00    +0.000 A 
ATOM     10  H   UNL     1      -7.601 -16.787   4.638  0.00  0.00    +0.000 HD
ATOM     11  H   UNL     1      -7.093 -13.012   2.631  0.00  0.00    +0.000 HD
ATOM     12  H   UNL     1      -8.413 -13.100   6.708  0.00  0.00    +0.000 HD
ATOM     13  H   UNL     1      -7.799 -11.828   4.682  0.00  0.00    +0.000 HD
BRANCH   6  14
ATOM     14  C   UNL     1      -8.417 -15.802   7.022  0.00  0.00    +0.000 C 
ATOM     15  H   UNL     1      -7.950 -16.791   7.017  0.00  0.00    +0.000 HD
ATOM     16  H   UNL     1      -8.079 -15.292   7.932  0.00  0.00    +0.000 HD
ATOM     17  H   UNL     1      -9.504 -15.925   7.075  0.00  0.00    +0.000 HD
ENDBRANCH   6  14
ENDBRANCH   3   4
BRANCH   2  18
ATOM     18  C   UNL     1      -5.018 -16.503   0.848  0.00  0.00    +0.000 C 
ATOM     19  H   UNL     1      -5.768 -16.420   0.054  0.00  0.00    +0.000 HD
ATOM     20  H   UNL     1      -4.106 -16.017   0.489  0.00  0.00    +0.000 HD
BRANCH  18  21
ATOM     21  C   UNL     1      -4.773 -17.970   1.135  0.00  0.00    +0.000 C 
ATOM     22  H   UNL     1      -4.061 -18.101   1.956  0.00  0.00    +0.000 HD
ATOM     23  H   UNL     1      -5.702 -18.478   1.417  0.00  0.00    +0.000 HD
ATOM     24  H   UNL     1      -4.368 -18.470   0.250  0.00  0.00    +0.000 HD
ENDBRANCH  18  21
ENDBRANCH   2  18
BRANCH   2  25
ATOM     25  C   UNL     1      -4.492 -15.246   2.908  0.00  0.00    +0.000 C 
ATOM     26  H   UNL     1      -4.918 -14.469   3.549  0.00  0.00    +0.000 HD
ATOM     27  H   UNL     1      -4.133 -16.034   3.579  0.00  0.00    +0.000 HD
BRANCH  25  28
ATOM     28  C   UNL     1      -3.335 -14.668   2.118  0.00  0.00    +0.000 C 
ATOM     29  H   UNL     1      -2.502 -15.377   2.068  0.00  0.00    +0.000 HD
ATOM     30  H   UNL     1      -3.610 -14.417   1.093  0.00  0.00    +0.000 HD
ATOM     31  H   UNL     1      -2.969 -13.756   2.601  0.00  0.00    +0.000 HD
ENDBRANCH  25  28
ENDBRANCH   2  25
TORSDOF 6
ENDMDL
MODEL 4
REMARK VINA RESULT:    -4.628     40.579     42.268
REMARK INTER + INTRA:          -6.134
REMARK INTER:                  -5.848
REMARK INTRA:                  -0.286
REMARK UNBOUND:                -0.288
REMARK  Name = 4284
REMARK  6 active torsions:
REMARK  status: ('A' for Active; 'I' for Inactive)
REMARK    1  A    between atoms: N_2  and  C_3
REMARK    2  A    between atoms: N_2  and  C_4
REMARK    3  A    between atoms: C_3  and  C_7
REMARK    4  A    between atoms: C_4  and  C_8
REMARK    5  A    between atoms: C_5  and  C_6
REMARK    6  A    between atoms: C_10  and  C_14
REMARK                            x       y       z     vdW  Elec       q    Type
REMARK                         _______ _______ _______ _____ _____    ______ ____
ROOT
ATOM      1  O   UNL     1      10.499  19.604  -9.743  0.00  0.00    +0.000 OA
ATOM      2  N   UNL     1      11.234  20.943 -11.511  0.00  0.00    +0.000 N 
ATOM      3  C   UNL     1      11.256  19.792 -10.703  0.00  0.00    +0.000 C 
ENDROOT
BRANCH   3   4
ATOM      4  C   UNL     1      12.211  18.738 -11.006  0.00  0.00    +0.000 A 
ATOM      5  C   UNL     1      13.538  18.858 -10.593  0.00  0.00    +0.000 A 
ATOM      6  C   UNL     1      14.453  17.845 -10.882  0.00  0.00    +0.000 A 
ATOM      7  C   UNL     1      11.799  17.605 -11.708  0.00  0.00    +0.000 A 
ATOM      8  C   UNL     1      14.041  16.713 -11.585  0.00  0.00    +0.000 A 
ATOM      9  C   UNL     1      12.714  16.593 -11.998  0.00  0.00    +0.000 A 
ATOM     10  H   UNL     1      13.858  19.736 -10.037  0.00  0.00    +0.000 HD
ATOM     11  H   UNL     1      10.768  17.502 -12.035  0.00  0.00    +0.000 HD
ATOM     12  H   UNL     1      14.744  15.918 -11.818  0.00  0.00    +0.000 HD
ATOM     13  H   UNL     1      12.392  15.711 -12.544  0.00  0.00    +0.000 HD
BRANCH   6  14
ATOM     14  C   UNL     1      15.871  17.973 -10.440  0.00  0.00    +0.000 C 
ATOM     15  H   UNL     1      15.930  18.268  -9.388  0.00  0.00    +0.000 HD
ATOM     16  H   UNL     1      16.406  17.022 -10.537  0.00  0.00    +0.000 HD
ATOM     17  H   UNL     1      16.387  18.726 -11.046  0.00  0.00    +0.000 HD
ENDBRANCH   6  14
ENDBRANCH   3   4
BRANCH   2  18
ATOM     18  C   UNL     1      10.297  22.035 -11.282  0.00  0.00    +0.000 C 
ATOM     19  H   UNL     1      10.074  22.508 -12.244  0.00  0.00    +0.000 HD
ATOM     20  H   UNL     1       9.357  21.636 -10.887  0.00  0.00    +0.000 HD
BRANCH  18  21
ATOM     21  C   UNL     1      10.877  23.078 -10.349  0.00  0.00    +0.000 C 
ATOM     22  H   UNL     1      10.858  22.736  -9.310  0.00  0.00    +0.000 HD
ATOM     23  H   UNL     1      11.918  23.302 -10.607  0.00  0.00    +0.000 HD
ATOM     24  H   UNL     1      10.304  24.007 -10.413  0.00  0.00    +0.000 HD
ENDBRANCH  18  21
ENDBRANCH   2  18
BRANCH   2  25
ATOM     25  C   UNL     1      12.149  21.122 -12.637  0.00  0.00    +0.000 C 
ATOM     26  H   UNL     1      12.642  22.097 -12.582  0.00  0.00    +0.000 HD
ATOM     27  H   UNL     1      12.944  20.372 -12.572  0.00  0.00    +0.000 HD
BRANCH  25  28
ATOM     28  C   UNL     1      11.426  21.000 -13.963  0.00  0.00    +0.000 C 
ATOM     29  H   UNL     1      10.771  20.122 -13.973  0.00  0.00    +0.000 HD
ATOM     30  H   UNL     1      10.806  21.870 -14.186  0.00  0.00    +0.000 HD
ATOM     31  H   UNL     1      12.150  20.886 -14.777  0.00  0.00    +0.000 HD
ENDBRANCH  25  28
ENDBRANCH   2  25
TORSDOF 6
ENDMDL
MODEL 5
REMARK VINA RESULT:    -4.584     35.633     37.466
REMARK INTER + INTRA:          -6.077
REMARK INTER:                  -5.801
REMARK INTRA:                  -0.276
REMARK UNBOUND:                -0.288
REMARK  Name = 4284
REMARK  6 active torsions:
REMARK  status: ('A' for Active; 'I' for Inactive)
REMARK    1  A    between atoms: N_2  and  C_3
REMARK    2  A    between atoms: N_2  and  C_4
REMARK    3  A    between atoms: C_3  and  C_7
REMARK    4  A    between atoms: C_4  and  C_8
REMARK    5  A    between atoms: C_5  and  C_6
REMARK    6  A    between atoms: C_10  and  C_14
REMARK                            x       y       z     vdW  Elec       q    Type
REMARK                         _______ _______ _______ _____ _____    ______ ____
ROOT
ATOM      1  O   UNL     1      -2.478  21.738 -10.214  0.00  0.00    +0.000 OA
ATOM      2  N   UNL     1      -1.108  19.920 -10.747  0.00  0.00    +0.000 N 
ATOM      3  C   UNL     1      -1.849  20.729  -9.866  0.00  0.00    +0.000 C 
ENDROOT
BRANCH   3   4
ATOM      4  C   UNL     1      -1.906  20.370  -8.459  0.00  0.00    +0.000 A 
ATOM      5  C   UNL     1      -2.811  19.404  -8.020  0.00  0.00    +0.000 A 
ATOM      6  C   UNL     1      -2.861  19.057  -6.669  0.00  0.00    +0.000 A 
ATOM      7  C   UNL     1      -1.051  20.990  -7.547  0.00  0.00    +0.000 A 
ATOM      8  C   UNL     1      -2.007  19.677  -5.757  0.00  0.00    +0.000 A 
ATOM      9  C   UNL     1      -1.102  20.644  -6.196  0.00  0.00    +0.000 A 
ATOM     10  H   UNL     1      -3.470  18.912  -8.732  0.00  0.00    +0.000 HD
ATOM     11  H   UNL     1      -0.341  21.744  -7.878  0.00  0.00    +0.000 HD
ATOM     12  H   UNL     1      -2.038  19.419  -4.703  0.00  0.00    +0.000 HD
ATOM     13  H   UNL     1      -0.437  21.127  -5.487  0.00  0.00    +0.000 HD
BRANCH   6  14
ATOM     14  C   UNL     1      -3.829  18.024  -6.201  0.00  0.00    +0.000 C 
ATOM     15  H   UNL     1      -3.468  17.530  -5.293  0.00  0.00    +0.000 HD
ATOM     16  H   UNL     1      -4.801  18.469  -5.958  0.00  0.00    +0.000 HD
ATOM     17  H   UNL     1      -3.977  17.268  -6.979  0.00  0.00    +0.000 HD
ENDBRANCH   6  14
ENDBRANCH   3   4
BRANCH   2  18
ATOM     18  C   UNL     1      -1.017  20.205 -12.172  0.00  0.00    +0.000 C 
ATOM     19  H   UNL     1      -1.522  19.402 -12.719  0.00  0.00    +0.000 HD
ATOM     20  H   UNL     1      -1.545  21.137 -12.396  0.00  0.00    +0.000 HD
BRANCH  18  21
ATOM     21  C   UNL     1       0.425  20.276 -12.633  0.00  0.00    +0.000 C 
ATOM     22  H   UNL     1       0.918  21.179 -12.259  0.00  0.00    +0.000 HD
ATOM     23  H   UNL     1       0.996  19.413 -12.274  0.00  0.00    +0.000 HD
ATOM     24  H   UNL     1       0.476  20.287 -13.726  0.00  0.00    +0.000 HD
ENDBRANCH  18  21
ENDBRANCH   2  18
BRANCH   2  25
ATOM     25  C   UNL     1      -0.381  18.737 -10.291  0.00  0.00    +0.000 C 
ATOM     26  H   UNL     1       0.625  18.714 -10.719  0.00  0.00    +0.000 HD
ATOM     27  H   UNL     1      -0.250  18.796  -9.205  0.00  0.00    +0.000 HD
BRANCH  25  28
ATOM     28  C   UNL     1      -1.113  17.461 -10.658  0.00  0.00    +0.000 C 
ATOM     29  H   UNL     1      -0.745  16.616 -10.069  0.00  0.00    +0.000 HD
ATOM     30  H   UNL     1      -2.188  17.532 -10.490  0.00  0.00    +0.000 HD
ATOM     31  H   UNL     1      -0.952  17.227 -11.715  0.00  0.00    +0.000 HD
ENDBRANCH  25  28
ENDBRANCH   2  25
TORSDOF 6
ENDMDL
MODEL 6
REMARK VINA RESULT:    -4.496      2.261      5.206
REMARK INTER + INTRA:          -5.967
REMARK INTER:                  -5.651
REMARK INTRA:                  -0.315
REMARK UNBOUND:                -0.288
REMARK  Name = 4284
REMARK  6 active torsions:
REMARK  status: ('A' for Active; 'I' for Inactive)
REMARK    1  A    between atoms: N_2  and  C_3
REMARK    2  A    between atoms: N_2  and  C_4
REMARK    3  A    between atoms: C_3  and  C_7
REMARK    4  A    between atoms: C_4  and  C_8
REMARK    5  A    between atoms: C_5  and  C_6
REMARK    6  A    between atoms: C_10  and  C_14
REMARK                            x       y       z     vdW  Elec       q    Type
REMARK                         _______ _______ _______ _____ _____    ______ ____
ROOT
ATOM      1  O   UNL     1      -6.266 -16.886   3.988  0.00  0.00    +0.000 OA
ATOM      2  N   UNL     1      -6.218 -14.636   4.620  0.00  0.00    +0.000 N 
ATOM      3  C   UNL     1      -5.642 -15.829   4.146  0.00  0.00    +0.000 C 
ENDROOT
BRANCH   3   4
ATOM      4  C   UNL     1      -4.229 -15.840   3.803  0.00  0.00    +0.000 A 
ATOM      5  C   UNL     1      -3.818 -15.463   2.524  0.00  0.00    +0.000 A 
ATOM      6  C   UNL     1      -2.461 -15.471   2.198  0.00  0.00    +0.000 A 
ATOM      7  C   UNL     1      -3.284 -16.224   4.755  0.00  0.00    +0.000 A 
ATOM      8  C   UNL     1      -1.516 -15.856   3.149  0.00  0.00    +0.000 A 
ATOM      9  C   UNL     1      -1.928 -16.233   4.427  0.00  0.00    +0.000 A 
ATOM     10  H   UNL     1      -4.553 -15.154   1.785  0.00  0.00    +0.000 HD
ATOM     11  H   UNL     1      -3.593 -16.519   5.754  0.00  0.00    +0.000 HD
ATOM     12  H   UNL     1      -0.457 -15.869   2.906  0.00  0.00    +0.000 HD
ATOM     13  H   UNL     1      -1.193 -16.533   5.169  0.00  0.00    +0.000 HD
BRANCH   6  14
ATOM     14  C   UNL     1      -2.022 -15.069   0.831  0.00  0.00    +0.000 C 
ATOM     15  H   UNL     1      -0.956 -15.271   0.685  0.00  0.00    +0.000 HD
ATOM     16  H   UNL     1      -2.562 -15.627   0.058  0.00  0.00    +0.000 HD
ATOM     17  H   UNL     1      -2.202 -13.999   0.678  0.00  0.00    +0.000 HD
ENDBRANCH   6  14
ENDBRANCH   3   4
BRANCH   2  18
ATOM     18  C   UNL     1      -7.629 -14.541   4.970  0.00  0.00    +0.000 C 
ATOM     19  H   UNL     1      -7.997 -13.557   4.659  0.00  0.00    +0.000 HD
ATOM     20  H   UNL     1      -8.197 -15.293   4.415  0.00  0.00    +0.000 HD
BRANCH  18  21
ATOM     21  C   UNL     1      -7.842 -14.691   6.462  0.00  0.00    +0.000 C 
ATOM     22  H   UNL     1      -7.504 -15.670   6.815  0.00  0.00    +0.000 HD
ATOM     23  H   UNL     1      -7.288 -13.928   7.018  0.00  0.00    +0.000 HD
ATOM     24  H   UNL     1      -8.903 -14.588   6.707  0.00  0.00    +0.000 HD
ENDBRANCH  18  21
ENDBRANCH   2  18
BRANCH   2  25
ATOM     25  C   UNL     1      -5.440 -13.410   4.791  0.00  0.00    +0.000 C 
ATOM     26  H   UNL     1      -5.685 -12.928   5.742  0.00  0.00    +0.000 HD
ATOM     27  H   UNL     1      -4.377 -13.668   4.843  0.00  0.00    +0.000 HD
BRANCH  25  28
ATOM     28  C   UNL     1      -5.685 -12.436   3.656  0.00  0.00    +0.000 C 
ATOM     29  H   UNL     1      -6.752 -12.221   3.548  0.00  0.00    +0.000 HD
ATOM     30  H   UNL     1      -5.174 -11.483   3.804  0.00  0.00    +0.000 HD
ATOM     31  H   UNL     1      -5.332 -12.863   2.712  0.00  0.00    +0.000 HD
ENDBRANCH  25  28
ENDBRANCH   2  25
TORSDOF 6
ENDMDL
MODEL 7
REMARK VINA RESULT:    -4.473     14.963     16.226
REMARK INTER + INTRA:          -5.937
REMARK INTER:                  -5.730
REMARK INTRA:                  -0.206
REMARK UNBOUND:                -0.288
REMARK  Name = 4284
REMARK  6 active torsions:
REMARK  status: ('A' for Active; 'I' for Inactive)
REMARK    1  A    between atoms: N_2  and  C_3
REMARK    2  A    between atoms: N_2  and  C_4
REMARK    3  A    between atoms: C_3  and  C_7
REMARK    4  A    between atoms: C_4  and  C_8
REMARK    5  A    between atoms: C_5  and  C_6
REMARK    6  A    between atoms: C_10  and  C_14
REMARK                            x       y       z     vdW  Elec       q    Type
REMARK                         _______ _______ _______ _____ _____    ______ ____
ROOT
ATOM      1  O   UNL     1     -14.173  -6.926  -5.741  0.00  0.00    +0.000 OA
ATOM      2  N   UNL     1     -14.038  -4.598  -5.586  0.00  0.00    +0.000 N 
ATOM      3  C   UNL     1     -14.622  -5.851  -5.325  0.00  0.00    +0.000 C 
ENDROOT
BRANCH   3   4
ATOM      4  C   UNL     1     -15.822  -5.909  -4.506  0.00  0.00    +0.000 A 
ATOM      5  C   UNL     1     -17.076  -5.722  -5.088  0.00  0.00    +0.000 A 
ATOM      6  C   UNL     1     -18.226  -5.782  -4.300  0.00  0.00    +0.000 A 
ATOM      7  C   UNL     1     -15.719  -6.157  -3.136  0.00  0.00    +0.000 A 
ATOM      8  C   UNL     1     -18.123  -6.028  -2.931  0.00  0.00    +0.000 A 
ATOM      9  C   UNL     1     -16.869  -6.216  -2.349  0.00  0.00    +0.000 A 
ATOM     10  H   UNL     1     -17.158  -5.539  -6.156  0.00  0.00    +0.000 HD
ATOM     11  H   UNL     1     -14.747  -6.305  -2.672  0.00  0.00    +0.000 HD
ATOM     12  H   UNL     1     -19.011  -6.075  -2.307  0.00  0.00    +0.000 HD
ATOM     13  H   UNL     1     -16.788  -6.409  -1.284  0.00  0.00    +0.000 HD
BRANCH   6  14
ATOM     14  C   UNL     1     -19.566  -5.581  -4.923  0.00  0.00    +0.000 C 
ATOM     15  H   UNL     1     -20.292  -6.302  -4.533  0.00  0.00    +0.000 HD
ATOM     16  H   UNL     1     -19.960  -4.581  -4.707  0.00  0.00    +0.000 HD
ATOM     17  H   UNL     1     -19.498  -5.702  -6.009  0.00  0.00    +0.000 HD
ENDBRANCH   6  14
ENDBRANCH   3   4
BRANCH   2  18
ATOM     18  C   UNL     1     -12.828  -4.458  -6.385  0.00  0.00    +0.000 C 
ATOM     19  H   UNL     1     -12.322  -3.532  -6.089  0.00  0.00    +0.000 HD
ATOM     20  H   UNL     1     -12.146  -5.286  -6.169  0.00  0.00    +0.000 HD
BRANCH  18  21
ATOM     21  C   UNL     1     -13.144  -4.388  -7.865  0.00  0.00    +0.000 C 
ATOM     22  H   UNL     1     -13.609  -3.433  -8.127  0.00  0.00    +0.000 HD
ATOM     23  H   UNL     1     -12.236  -4.492  -8.468  0.00  0.00    +0.000 HD
ATOM     24  H   UNL     1     -13.833  -5.190  -8.146  0.00  0.00    +0.000 HD
ENDBRANCH  18  21
ENDBRANCH   2  18
BRANCH   2  25
ATOM     25  C   UNL     1     -14.604  -3.352  -5.074  0.00  0.00    +0.000 C 
ATOM     26  H   UNL     1     -15.393  -2.985  -5.737  0.00  0.00    +0.000 HD
ATOM     27  H   UNL     1     -15.083  -3.550  -4.109  0.00  0.00    +0.000 HD
BRANCH  25  28
ATOM     28  C   UNL     1     -13.541  -2.283  -4.917  0.00  0.00    +0.000 C 
ATOM     29  H   UNL     1     -12.676  -2.496  -5.552  0.00  0.00    +0.000 HD
ATOM     30  H   UNL     1     -13.903  -1.289  -5.183  0.00  0.00    +0.000 HD
ATOM     31  H   UNL     1     -13.194  -2.248  -3.879  0.00  0.00    +0.000 HD
ENDBRANCH  25  28
ENDBRANCH   2  25
TORSDOF 6
ENDMDL
MODEL 8
REMARK VINA RESULT:    -4.404     34.470     36.244
REMARK INTER + INTRA:          -5.850
REMARK INTER:                  -5.847
REMARK INTRA:                  -0.003
REMARK UNBOUND:                -0.288
REMARK  Name = 4284
REMARK  6 active torsions:
REMARK  status: ('A' for Active; 'I' for Inactive)
REMARK    1  A    between atoms: N_2  and  C_3
REMARK    2  A    between atoms: N_2  and  C_4
REMARK    3  A    between atoms: C_3  and  C_7
REMARK    4  A    between atoms: C_4  and  C_8
REMARK    5  A    between atoms: C_5  and  C_6
REMARK    6  A    between atoms: C_10  and  C_14
REMARK                            x       y       z     vdW  Elec       q    Type
REMARK                         _______ _______ _______ _____ _____    ______ ____
ROOT
ATOM      1  O   UNL     1      -1.053  20.484  -5.332  0.00  0.00    +0.000 OA
ATOM      2  N   UNL     1      -1.744  20.475  -7.565  0.00  0.00    +0.000 N 
ATOM      3  C   UNL     1      -1.869  20.152  -6.201  0.00  0.00    +0.000 C 
ENDROOT
BRANCH   3   4
ATOM      4  C   UNL     1      -3.029  19.394  -5.762  0.00  0.00    +0.000 A 
ATOM      5  C   UNL     1      -3.245  18.104  -6.247  0.00  0.00    +0.000 A 
ATOM      6  C   UNL     1      -4.357  17.376  -5.822  0.00  0.00    +0.000 A 
ATOM      7  C   UNL     1      -3.925  19.956  -4.852  0.00  0.00    +0.000 A 
ATOM      8  C   UNL     1      -5.253  17.938  -4.913  0.00  0.00    +0.000 A 
ATOM      9  C   UNL     1      -5.037  19.228  -4.428  0.00  0.00    +0.000 A 
ATOM     10  H   UNL     1      -2.541  17.661  -6.948  0.00  0.00    +0.000 HD
ATOM     11  H   UNL     1      -3.767  20.960  -4.468  0.00  0.00    +0.000 HD
ATOM     12  H   UNL     1      -6.124  17.383  -4.577  0.00  0.00    +0.000 HD
ATOM     13  H   UNL     1      -5.735  19.666  -3.721  0.00  0.00    +0.000 HD
BRANCH   6  14
ATOM     14  C   UNL     1      -4.587  15.997  -6.341  0.00  0.00    +0.000 C 
ATOM     15  H   UNL     1      -3.688  15.382  -6.237  0.00  0.00    +0.000 HD
ATOM     16  H   UNL     1      -5.387  15.492  -5.787  0.00  0.00    +0.000 HD
ATOM     17  H   UNL     1      -4.868  16.035  -7.399  0.00  0.00    +0.000 HD
ENDBRANCH   6  14
ENDBRANCH   3   4
BRANCH   2  18
ATOM     18  C   UNL     1      -0.619  21.245  -8.080  0.00  0.00    +0.000 C 
ATOM     19  H   UNL     1       0.147  21.303  -7.299  0.00  0.00    +0.000 HD
ATOM     20  H   UNL     1      -0.177  20.725  -8.934  0.00  0.00    +0.000 HD
BRANCH  18  21
ATOM     21  C   UNL     1      -1.036  22.651  -8.457  0.00  0.00    +0.000 C 
ATOM     22  H   UNL     1      -1.334  22.709  -9.509  0.00  0.00    +0.000 HD
ATOM     23  H   UNL     1      -1.885  22.987  -7.852  0.00  0.00    +0.000 HD
ATOM     24  H   UNL     1      -0.209  23.350  -8.300  0.00  0.00    +0.000 HD
ENDBRANCH  18  21
ENDBRANCH   2  18
BRANCH   2  25
ATOM     25  C   UNL     1      -2.734  20.062  -8.557  0.00  0.00    +0.000 C 
ATOM     26  H   UNL     1      -3.590  19.585  -8.073  0.00  0.00    +0.000 HD
ATOM     27  H   UNL     1      -3.124  20.952  -9.062  0.00  0.00    +0.000 HD
BRANCH  25  28
ATOM     28  C   UNL     1      -2.136  19.108  -9.573  0.00  0.00    +0.000 C 
ATOM     29  H   UNL     1      -1.074  18.937  -9.370  0.00  0.00    +0.000 HD
ATOM     30  H   UNL     1      -2.628  18.135  -9.575  0.00  0.00    +0.000 HD
ATOM     31  H   UNL     1      -2.220  19.530 -10.579  0.00  0.00    +0.000 HD
ENDBRANCH  25  28
ENDBRANCH   2  25
TORSDOF 6
ENDMDL
MODEL 9
REMARK VINA RESULT:    -4.332     34.692     36.197
REMARK INTER + INTRA:          -5.760
REMARK INTER:                  -5.444
REMARK INTRA:                  -0.315
REMARK UNBOUND:                -0.288
REMARK  Name = 4284
REMARK  6 active torsions:
REMARK  status: ('A' for Active; 'I' for Inactive)
REMARK    1  A    between atoms: N_2  and  C_3
REMARK    2  A    between atoms: N_2  and  C_4
REMARK    3  A    between atoms: C_3  and  C_7
REMARK    4  A    between atoms: C_4  and  C_8
REMARK    5  A    between atoms: C_5  and  C_6
REMARK    6  A    between atoms: C_10  and  C_14
REMARK                            x       y       z     vdW  Elec       q    Type
REMARK                         _______ _______ _______ _____ _____    ______ ____
ROOT
ATOM      1  O   UNL     1      13.567  -3.363 -22.346  0.00  0.00    +0.000 OA
ATOM      2  N   UNL     1      13.819  -3.798 -24.629  0.00  0.00    +0.000 N 
ATOM      3  C   UNL     1      13.141  -3.288 -23.506  0.00  0.00    +0.000 C 
ENDROOT
BRANCH   3   4
ATOM      4  C   UNL     1      11.867  -2.615 -23.699  0.00  0.00    +0.000 A 
ATOM      5  C   UNL     1      11.823  -1.228 -23.835  0.00  0.00    +0.000 A 
ATOM      6  C   UNL     1      10.600  -0.584 -24.024  0.00  0.00    +0.000 A 
ATOM      7  C   UNL     1      10.688  -3.359 -23.752  0.00  0.00    +0.000 A 
ATOM      8  C   UNL     1       9.420  -1.327 -24.076  0.00  0.00    +0.000 A 
ATOM      9  C   UNL     1       9.465  -2.715 -23.940  0.00  0.00    +0.000 A 
ATOM     10  H   UNL     1      12.743  -0.648 -23.805  0.00  0.00    +0.000 HD
ATOM     11  H   UNL     1      10.711  -4.441 -23.647  0.00  0.00    +0.000 HD
ATOM     12  H   UNL     1       8.461  -0.838 -24.219  0.00  0.00    +0.000 HD
ATOM     13  H   UNL     1       8.547  -3.295 -23.980  0.00  0.00    +0.000 HD
BRANCH   6  14
ATOM     14  C   UNL     1      10.553   0.899 -24.169  0.00  0.00    +0.000 C 
ATOM     15  H   UNL     1       9.673   1.316 -23.667  0.00  0.00    +0.000 HD
ATOM     16  H   UNL     1      11.433   1.372 -23.719  0.00  0.00    +0.000 HD
ATOM     17  H   UNL     1      10.515   1.172 -25.229  0.00  0.00    +0.000 HD
ENDBRANCH   6  14
ENDBRANCH   3   4
BRANCH   2  18
ATOM     18  C   UNL     1      15.106  -4.471 -24.519  0.00  0.00    +0.000 C 
ATOM     19  H   UNL     1      15.378  -4.527 -23.459  0.00  0.00    +0.000 HD
ATOM     20  H   UNL     1      15.019  -5.496 -24.889  0.00  0.00    +0.000 HD
BRANCH  18  21
ATOM     21  C   UNL     1      16.191  -3.717 -25.260  0.00  0.00    +0.000 C 
ATOM     22  H   UNL     1      16.572  -2.881 -24.665  0.00  0.00    +0.000 HD
ATOM     23  H   UNL     1      17.038  -4.372 -25.494  0.00  0.00    +0.000 HD
ATOM     24  H   UNL     1      15.802  -3.315 -26.201  0.00  0.00    +0.000 HD
ENDBRANCH  18  21
ENDBRANCH   2  18
BRANCH   2  25
ATOM     25  C   UNL     1      13.278  -3.687 -25.982  0.00  0.00    +0.000 C 
ATOM     26  H   UNL     1      12.505  -2.914 -26.026  0.00  0.00    +0.000 HD
ATOM     27  H   UNL     1      14.075  -3.360 -26.658  0.00  0.00    +0.000 HD
BRANCH  25  28
ATOM     28  C   UNL     1      12.699  -5.004 -26.458  0.00  0.00    +0.000 C 
ATOM     29  H   UNL     1      13.486  -5.755 -26.582  0.00  0.00    +0.000 HD
ATOM     30  H   UNL     1      11.964  -5.414 -25.764  0.00  0.00    +0.000 HD
ATOM     31  H   UNL     1      12.208  -4.871 -27.427  0.00  0.00    +0.000 HD
ENDBRANCH  25  28
ENDBRANCH   2  25
TORSDOF 6
ENDMDL
MODEL 10
REMARK VINA RESULT:    -4.310     31.330     33.515
REMARK INTER + INTRA:          -5.731
REMARK INTER:                  -5.444
REMARK INTRA:                  -0.288
REMARK UNBOUND:                -0.288
REMARK  Name = 4284
REMARK  6 active torsions:
REMARK  status: ('A' for Active; 'I' for Inactive)
REMARK    1  A    between atoms: N_2  and  C_3
REMARK    2  A    between atoms: N_2  and  C_4
REMARK    3  A    between atoms: C_3  and  C_7
REMARK    4  A    between atoms: C_4  and  C_8
REMARK    5  A    between atoms: C_5  and  C_6
REMARK    6  A    between atoms: C_10  and  C_14
REMARK                            x       y       z     vdW  Elec       q    Type
REMARK                         _______ _______ _______ _____ _____    ______ ____
ROOT
ATOM      1  O   UNL     1       0.135   5.799 -20.309  0.00  0.00    +0.000 OA
ATOM      2  N   UNL     1       0.985   3.710 -20.925  0.00  0.00    +0.000 N 
ATOM      3  C   UNL     1       1.088   5.087 -20.653  0.00  0.00    +0.000 C 
ENDROOT
BRANCH   3   4
ATOM      4  C   UNL     1       2.386   5.731 -20.762  0.00  0.00    +0.000 A 
ATOM      5  C   UNL     1       2.830   6.204 -21.998  0.00  0.00    +0.000 A 
ATOM      6  C   UNL     1       4.075   6.824 -22.100  0.00  0.00    +0.000 A 
ATOM      7  C   UNL     1       3.188   5.878 -19.630  0.00  0.00    +0.000 A 
ATOM      8  C   UNL     1       4.877   6.971 -20.969  0.00  0.00    +0.000 A 
ATOM      9  C   UNL     1       4.434   6.498 -19.734  0.00  0.00    +0.000 A 
ATOM     10  H   UNL     1       2.201   6.098 -22.878  0.00  0.00    +0.000 HD
ATOM     11  H   UNL     1       2.853   5.514 -18.663  0.00  0.00    +0.000 HD
ATOM     12  H   UNL     1       5.850   7.450 -21.036  0.00  0.00    +0.000 HD
ATOM     13  H   UNL     1       5.058   6.612 -18.852  0.00  0.00    +0.000 HD
BRANCH   6  14
ATOM     14  C   UNL     1       4.549   7.330 -23.421  0.00  0.00    +0.000 C 
ATOM     15  H   UNL     1       4.762   8.403 -23.377  0.00  0.00    +0.000 HD
ATOM     16  H   UNL     1       5.475   6.831 -23.729  0.00  0.00    +0.000 HD
ATOM     17  H   UNL     1       3.786   7.153 -24.187  0.00  0.00    +0.000 HD
ENDBRANCH   6  14
ENDBRANCH   3   4
BRANCH   2  18
ATOM     18  C   UNL     1      -0.277   2.990 -20.822  0.00  0.00    +0.000 C 
ATOM     19  H   UNL     1      -0.252   2.376 -19.915  0.00  0.00    +0.000 HD
ATOM     20  H   UNL     1      -1.100   3.703 -20.712  0.00  0.00    +0.000 HD
BRANCH  18  21
ATOM     21  C   UNL     1      -0.500   2.087 -22.017  0.00  0.00    +0.000 C 
ATOM     22  H   UNL     1       0.389   2.043 -22.654  0.00  0.00    +0.000 HD
ATOM     23  H   UNL     1      -0.732   1.064 -21.701  0.00  0.00    +0.000 HD
ATOM     24  H   UNL     1      -1.334   2.454 -22.622  0.00  0.00    +0.000 HD
ENDBRANCH  18  21
ENDBRANCH   2  18
BRANCH   2  25
ATOM     25  C   UNL     1       2.139   2.908 -21.328  0.00  0.00    +0.000 C 
ATOM     26  H   UNL     1       1.853   2.176 -22.089  0.00  0.00    +0.000 HD
ATOM     27  H   UNL     1       2.880   3.564 -21.798  0.00  0.00    +0.000 HD
BRANCH  25  28
ATOM     28  C   UNL     1       2.755   2.190 -20.145  0.00  0.00    +0.000 C 
ATOM     29  H   UNL     1       3.783   2.524 -19.976  0.00  0.00    +0.000 HD
ATOM     30  H   UNL     1       2.203   2.356 -19.219  0.00  0.00    +0.000 HD
ATOM     31  H   UNL     1       2.780   1.111 -20.332  0.00  0.00    +0.000 HD
ENDBRANCH  25  28
ENDBRANCH   2  25
TORSDOF 6
ENDMDL
