MODEL 1
REMARK VINA RESULT:    -3.786      0.000      0.000
REMARK INTER + INTRA:          -6.305
REMARK INTER:                  -5.840
REMARK INTRA:                  -0.466
REMARK UNBOUND:                -0.748
REMARK  Name = 31249
REMARK  9 active torsions:
REMARK  status: ('A' for Active; 'I' for Inactive)
REMARK    1  A    between atoms: O_1  and  C_7
REMARK    2  A    between atoms: O_1  and  C_9
REMARK    3  A    between atoms: O_2  and  C_8
REMARK    4  A    between atoms: O_2  and  C_10
REMARK    5  A    between atoms: C_5  and  C_6
REMARK    6  A    between atoms: C_5  and  C_7
REMARK    7  A    between atoms: C_6  and  C_8
REMARK    8  A    between atoms: C_9  and  C_11
REMARK    9  A    between atoms: C_10  and  C_12
REMARK                            x       y       z     vdW  Elec       q    Type
REMARK                         _______ _______ _______ _____ _____    ______ ____
ROOT
ATOM      1  C   UNL     1      15.768  -4.844  -1.515  0.00  0.00    +0.000 C 
ATOM      2  H   UNL     1      16.126  -4.454  -0.554  0.00  0.00    +0.000 HD
ATOM      3  H   UNL     1      14.882  -4.270  -1.813  0.00  0.00    +0.000 HD
ENDROOT
BRANCH   1   4
ATOM      4  C   UNL     1      15.396  -6.316  -1.366  0.00  0.00    +0.000 C 
ATOM      5  H   UNL     1      14.310  -6.411  -1.243  0.00  0.00    +0.000 HD
ATOM      6  H   UNL     1      15.691  -6.865  -2.268  0.00  0.00    +0.000 HD
BRANCH   4   8
ATOM      7  O   UNL     1      17.255  -7.229  -0.085  0.00  0.00    +0.000 OA
ATOM      8  C   UNL     1      16.063  -6.971  -0.174  0.00  0.00    +0.000 C 
BRANCH   8   9
ATOM      9  O   UNL     1      15.115  -7.230   0.774  0.00  0.00    +0.000 OA
BRANCH   9  10
ATOM     10  C   UNL     1      15.466  -6.863   2.112  0.00  0.00    +0.000 C 
ATOM     11  H   UNL     1      14.929  -7.503   2.820  0.00  0.00    +0.000 HD
ATOM     12  H   UNL     1      16.545  -6.989   2.254  0.00  0.00    +0.000 HD
BRANCH  10  13
ATOM     13  C   UNL     1      15.087  -5.415   2.342  0.00  0.00    +0.000 C 
ATOM     14  H   UNL     1      15.368  -4.797   1.485  0.00  0.00    +0.000 HD
ATOM     15  H   UNL     1      14.009  -5.321   2.507  0.00  0.00    +0.000 HD
ATOM     16  H   UNL     1      15.580  -5.024   3.239  0.00  0.00    +0.000 HD
ENDBRANCH  10  13
ENDBRANCH   9  10
ENDBRANCH   8   9
ENDBRANCH   4   8
ENDBRANCH   1   4
BRANCH   1  18
ATOM     17  O   UNL     1      17.698  -3.736  -2.502  0.00  0.00    +0.000 OA
ATOM     18  C   UNL     1      16.848  -4.614  -2.550  0.00  0.00    +0.000 C 
BRANCH  18  19
ATOM     19  O   UNL     1      16.709  -5.540  -3.546  0.00  0.00    +0.000 OA
BRANCH  19  20
ATOM     20  C   UNL     1      17.931  -6.019  -4.116  0.00  0.00    +0.000 C 
ATOM     21  H   UNL     1      18.567  -5.168  -4.384  0.00  0.00    +0.000 HD
ATOM     22  H   UNL     1      18.453  -6.648  -3.386  0.00  0.00    +0.000 HD
BRANCH  20  23
ATOM     23  C   UNL     1      17.613  -6.829  -5.355  0.00  0.00    +0.000 C 
ATOM     24  H   UNL     1      17.519  -7.891  -5.114  0.00  0.00    +0.000 HD
ATOM     25  H   UNL     1      16.678  -6.485  -5.811  0.00  0.00    +0.000 HD
ATOM     26  H   UNL     1      18.397  -6.705  -6.108  0.00  0.00    +0.000 HD
ENDBRANCH  20  23
ENDBRANCH  19  20
ENDBRANCH  18  19
ENDBRANCH   1  18
TORSDOF 9
ENDMDL
MODEL 2
REMARK VINA RESULT:    -3.575     10.900     12.374
REMARK INTER + INTRA:          -5.995
REMARK INTER:                  -5.475
REMARK INTRA:                  -0.521
REMARK UNBOUND:                -0.748
REMARK  Name = 31249
REMARK  9 active torsions:
REMARK  status: ('A' for Active; 'I' for Inactive)
REMARK    1  A    between atoms: O_1  and  C_7
REMARK    2  A    between atoms: O_1  and  C_9
REMARK    3  A    between atoms: O_2  and  C_8
REMARK    4  A    between atoms: O_2  and  C_10
REMARK    5  A    between atoms: C_5  and  C_6
REMARK    6  A    between atoms: C_5  and  C_7
REMARK    7  A    between atoms: C_6  and  C_8
REMARK    8  A    between atoms: C_9  and  C_11
REMARK    9  A    between atoms: C_10  and  C_12
REMARK                            x       y       z     vdW  Elec       q    Type
REMARK                         _______ _______ _______ _____ _____    ______ ____
ROOT
ATOM      1  C   UNL     1      15.125   5.954  -2.837  0.00  0.00    +0.000 C 
ATOM      2  H   UNL     1      14.525   5.326  -3.507  0.00  0.00    +0.000 HD
ATOM      3  H   UNL     1      16.185   5.737  -3.017  0.00  0.00    +0.000 HD
ENDROOT
BRANCH   1   4
ATOM      4  C   UNL     1      14.779   5.634  -1.386  0.00  0.00    +0.000 C 
ATOM      5  H   UNL     1      14.389   6.534  -0.894  0.00  0.00    +0.000 HD
ATOM      6  H   UNL     1      14.004   4.859  -1.353  0.00  0.00    +0.000 HD
BRANCH   4   8
ATOM      7  O   UNL     1      16.853   5.853  -0.130  0.00  0.00    +0.000 OA
ATOM      8  C   UNL     1      15.972   5.144  -0.593  0.00  0.00    +0.000 C 
BRANCH   8   9
ATOM      9  O   UNL     1      15.904   3.783  -0.490  0.00  0.00    +0.000 OA
BRANCH   9  10
ATOM     10  C   UNL     1      14.677   3.266   0.037  0.00  0.00    +0.000 C 
ATOM     11  H   UNL     1      13.839   3.864  -0.337  0.00  0.00    +0.000 HD
ATOM     12  H   UNL     1      14.552   2.226  -0.281  0.00  0.00    +0.000 HD
BRANCH  10  13
ATOM     13  C   UNL     1      14.723   3.337   1.548  0.00  0.00    +0.000 C 
ATOM     14  H   UNL     1      15.549   2.738   1.943  0.00  0.00    +0.000 HD
ATOM     15  H   UNL     1      14.845   4.372   1.883  0.00  0.00    +0.000 HD
ATOM     16  H   UNL     1      13.784   2.973   1.980  0.00  0.00    +0.000 HD
ENDBRANCH  10  13
ENDBRANCH   9  10
ENDBRANCH   8   9
ENDBRANCH   4   8
ENDBRANCH   1   4
BRANCH   1  18
ATOM     17  O   UNL     1      14.064   7.796  -4.023  0.00  0.00    +0.000 OA
ATOM     18  C   UNL     1      14.873   7.402  -3.194  0.00  0.00    +0.000 C 
BRANCH  18  19
ATOM     19  O   UNL     1      15.702   8.192  -2.448  0.00  0.00    +0.000 OA
BRANCH  19  20
ATOM     20  C   UNL     1      16.908   8.607  -3.098  0.00  0.00    +0.000 C 
ATOM     21  H   UNL     1      17.087   7.972  -3.973  0.00  0.00    +0.000 HD
ATOM     22  H   UNL     1      16.810   9.650  -3.419  0.00  0.00    +0.000 HD
BRANCH  20  23
ATOM     23  C   UNL     1      18.062   8.477  -2.126  0.00  0.00    +0.000 C 
ATOM     24  H   UNL     1      18.828   9.230  -2.327  0.00  0.00    +0.000 HD
ATOM     25  H   UNL     1      17.712   8.595  -1.095  0.00  0.00    +0.000 HD
ATOM     26  H   UNL     1      18.514   7.484  -2.197  0.00  0.00    +0.000 HD
ENDBRANCH  20  23
ENDBRANCH  19  20
ENDBRANCH  18  19
ENDBRANCH   1  18
TORSDOF 9
ENDMDL
MODEL 3
REMARK VINA RESULT:    -3.545     25.597     27.393
REMARK INTER + INTRA:          -5.951
REMARK INTER:                  -5.354
REMARK INTRA:                  -0.596
REMARK UNBOUND:                -0.748
REMARK  Name = 31249
REMARK  9 active torsions:
REMARK  status: ('A' for Active; 'I' for Inactive)
REMARK    1  A    between atoms: O_1  and  C_7
REMARK    2  A    between atoms: O_1  and  C_9
REMARK    3  A    between atoms: O_2  and  C_8
REMARK    4  A    between atoms: O_2  and  C_10
REMARK    5  A    between atoms: C_5  and  C_6
REMARK    6  A    between atoms: C_5  and  C_7
REMARK    7  A    between atoms: C_6  and  C_8
REMARK    8  A    between atoms: C_9  and  C_11
REMARK    9  A    between atoms: C_10  and  C_12
REMARK                            x       y       z     vdW  Elec       q    Type
REMARK                         _______ _______ _______ _____ _____    ______ ____
ROOT
ATOM      1  C   UNL     1       1.401   2.678 -20.336  0.00  0.00    +0.000 C 
ATOM      2  H   UNL     1       1.452   1.956 -21.160  0.00  0.00    +0.000 HD
ATOM      3  H   UNL     1       1.784   2.196 -19.429  0.00  0.00    +0.000 HD
ENDROOT
BRANCH   1   4
ATOM      4  C   UNL     1      -0.047   3.106 -20.115  0.00  0.00    +0.000 C 
ATOM      5  H   UNL     1      -0.516   2.447 -19.373  0.00  0.00    +0.000 HD
ATOM      6  H   UNL     1      -0.074   4.132 -19.732  0.00  0.00    +0.000 HD
BRANCH   4   8
ATOM      7  O   UNL     1      -1.426   2.054 -21.824  0.00  0.00    +0.000 OA
ATOM      8  C   UNL     1      -0.874   3.051 -21.382  0.00  0.00    +0.000 C 
BRANCH   8   9
ATOM      9  O   UNL     1      -0.892   4.294 -21.950  0.00  0.00    +0.000 OA
BRANCH   9  10
ATOM     10  C   UNL     1      -0.344   4.375 -23.270  0.00  0.00    +0.000 C 
ATOM     11  H   UNL     1       0.303   3.511 -23.450  0.00  0.00    +0.000 HD
ATOM     12  H   UNL     1      -1.158   4.381 -24.004  0.00  0.00    +0.000 HD
BRANCH  10  13
ATOM     13  C   UNL     1       0.461   5.652 -23.391  0.00  0.00    +0.000 C 
ATOM     14  H   UNL     1       0.856   5.958 -22.419  0.00  0.00    +0.000 HD
ATOM     15  H   UNL     1       1.297   5.516 -24.085  0.00  0.00    +0.000 HD
ATOM     16  H   UNL     1      -0.157   6.461 -23.794  0.00  0.00    +0.000 HD
ENDBRANCH  10  13
ENDBRANCH   9  10
ENDBRANCH   8   9
ENDBRANCH   4   8
ENDBRANCH   1   4
BRANCH   1  18
ATOM     17  O   UNL     1       3.254   3.799 -21.448  0.00  0.00    +0.000 OA
ATOM     18  C   UNL     1       2.311   3.841 -20.670  0.00  0.00    +0.000 C 
BRANCH  18  19
ATOM     19  O   UNL     1       1.910   4.935 -19.956  0.00  0.00    +0.000 OA
BRANCH  19  20
ATOM     20  C   UNL     1       2.604   6.151 -20.252  0.00  0.00    +0.000 C 
ATOM     21  H   UNL     1       3.125   6.050 -21.210  0.00  0.00    +0.000 HD
ATOM     22  H   UNL     1       1.884   6.976 -20.314  0.00  0.00    +0.000 HD
BRANCH  20  23
ATOM     23  C   UNL     1       3.605   6.428 -19.151  0.00  0.00    +0.000 C 
ATOM     24  H   UNL     1       4.627   6.256 -19.499  0.00  0.00    +0.000 HD
ATOM     25  H   UNL     1       3.520   7.463 -18.803  0.00  0.00    +0.000 HD
ATOM     26  H   UNL     1       3.414   5.786 -18.286  0.00  0.00    +0.000 HD
ENDBRANCH  20  23
ENDBRANCH  19  20
ENDBRANCH  18  19
ENDBRANCH   1  18
TORSDOF 9
ENDMDL
MODEL 4
REMARK VINA RESULT:    -3.504     29.874     30.726
REMARK INTER + INTRA:          -5.891
REMARK INTER:                  -5.512
REMARK INTRA:                  -0.379
REMARK UNBOUND:                -0.748
REMARK  Name = 31249
REMARK  9 active torsions:
REMARK  status: ('A' for Active; 'I' for Inactive)
REMARK    1  A    between atoms: O_1  and  C_7
REMARK    2  A    between atoms: O_1  and  C_9
REMARK    3  A    between atoms: O_2  and  C_8
REMARK    4  A    between atoms: O_2  and  C_10
REMARK    5  A    between atoms: C_5  and  C_6
REMARK    6  A    between atoms: C_5  and  C_7
REMARK    7  A    between atoms: C_6  and  C_8
REMARK    8  A    between atoms: C_9  and  C_11
REMARK    9  A    between atoms: C_10  and  C_12
REMARK                            x       y       z     vdW  Elec       q    Type
REMARK                         _______ _______ _______ _____ _____    ______ ____
ROOT
ATOM      1  C   UNL     1     -13.839  -3.896  -5.351  0.00  0.00    +0.000 C 
ATOM      2  H   UNL     1     -13.222  -3.712  -4.463  0.00  0.00    +0.000 HD
ATOM      3  H   UNL     1     -14.537  -3.059  -5.468  0.00  0.00    +0.000 HD
ENDROOT
BRANCH   1   4
ATOM      4  C   UNL     1     -14.622  -5.193  -5.173  0.00  0.00    +0.000 C 
ATOM      5  H   UNL     1     -15.666  -4.962  -4.926  0.00  0.00    +0.000 HD
ATOM      6  H   UNL     1     -14.607  -5.765  -6.108  0.00  0.00    +0.000 HD
BRANCH   4   8
ATOM      7  O   UNL     1     -12.889  -6.109  -3.730  0.00  0.00    +0.000 OA
ATOM      8  C   UNL     1     -14.061  -6.070  -4.074  0.00  0.00    +0.000 C 
BRANCH   8   9
ATOM      9  O   UNL     1     -15.078  -6.811  -3.539  0.00  0.00    +0.000 OA
BRANCH   9  10
ATOM     10  C   UNL     1     -16.368  -6.192  -3.563  0.00  0.00    +0.000 C 
ATOM     11  H   UNL     1     -16.262  -5.135  -3.828  0.00  0.00    +0.000 HD
ATOM     12  H   UNL     1     -16.999  -6.691  -4.307  0.00  0.00    +0.000 HD
BRANCH  10  13
ATOM     13  C   UNL     1     -17.000  -6.316  -2.193  0.00  0.00    +0.000 C 
ATOM     14  H   UNL     1     -17.264  -5.332  -1.794  0.00  0.00    +0.000 HD
ATOM     15  H   UNL     1     -17.903  -6.932  -2.239  0.00  0.00    +0.000 HD
ATOM     16  H   UNL     1     -16.314  -6.808  -1.495  0.00  0.00    +0.000 HD
ENDBRANCH  10  13
ENDBRANCH   9  10
ENDBRANCH   8   9
ENDBRANCH   4   8
ENDBRANCH   1   4
BRANCH   1  18
ATOM     17  O   UNL     1     -12.396  -4.921  -7.023  0.00  0.00    +0.000 OA
ATOM     18  C   UNL     1     -12.930  -3.922  -6.561  0.00  0.00    +0.000 C 
BRANCH  18  19
ATOM     19  O   UNL     1     -12.799  -2.649  -7.042  0.00  0.00    +0.000 OA
BRANCH  19  20
ATOM     20  C   UNL     1     -12.169  -2.536  -8.322  0.00  0.00    +0.000 C 
ATOM     21  H   UNL     1     -11.373  -1.785  -8.273  0.00  0.00    +0.000 HD
ATOM     22  H   UNL     1     -11.740  -3.505  -8.604  0.00  0.00    +0.000 HD
BRANCH  20  23
ATOM     23  C   UNL     1     -13.204  -2.118  -9.346  0.00  0.00    +0.000 C 
ATOM     24  H   UNL     1     -12.798  -1.366 -10.027  0.00  0.00    +0.000 HD
ATOM     25  H   UNL     1     -13.539  -2.982  -9.930  0.00  0.00    +0.000 HD
ATOM     26  H   UNL     1     -14.089  -1.707  -8.851  0.00  0.00    +0.000 HD
ENDBRANCH  20  23
ENDBRANCH  19  20
ENDBRANCH  18  19
ENDBRANCH   1  18
TORSDOF 9
ENDMDL
MODEL 5
REMARK VINA RESULT:    -3.469     22.267     24.104
REMARK INTER + INTRA:          -5.840
REMARK INTER:                  -5.284
REMARK INTRA:                  -0.556
REMARK UNBOUND:                -0.748
REMARK  Name = 31249
REMARK  9 active torsions:
REMARK  status: ('A' for Active; 'I' for Inactive)
REMARK    1  A    between atoms: O_1  and  C_7
REMARK    2  A    between atoms: O_1  and  C_9
REMARK    3  A    between atoms: O_2  and  C_8
REMARK    4  A    between atoms: O_2  and  C_10
REMARK    5  A    between atoms: C_5  and  C_6
REMARK    6  A    between atoms: C_5  and  C_7
REMARK    7  A    between atoms: C_6  and  C_8
REMARK    8  A    between atoms: C_9  and  C_11
REMARK    9  A    between atoms: C_10  and  C_12
REMARK                            x       y       z     vdW  Elec       q    Type
REMARK                         _______ _______ _______ _____ _____    ______ ____
ROOT
ATOM      1  C   UNL     1      -5.592 -13.258   3.774  0.00  0.00    +0.000 C 
ATOM      2  H   UNL     1      -5.315 -13.238   2.713  0.00  0.00    +0.000 HD
ATOM      3  H   UNL     1      -5.164 -12.373   4.260  0.00  0.00    +0.000 HD
ENDROOT
BRANCH   1   4
ATOM      4  C   UNL     1      -5.033 -14.519   4.427  0.00  0.00    +0.000 C 
ATOM      5  H   UNL     1      -4.121 -14.272   4.984  0.00  0.00    +0.000 HD
ATOM      6  H   UNL     1      -5.768 -14.927   5.131  0.00  0.00    +0.000 HD
BRANCH   4   8
ATOM      7  O   UNL     1      -4.998 -16.778   3.519  0.00  0.00    +0.000 OA
ATOM      8  C   UNL     1      -4.693 -15.598   3.421  0.00  0.00    +0.000 C 
BRANCH   8   9
ATOM      9  O   UNL     1      -3.984 -15.037   2.396  0.00  0.00    +0.000 OA
BRANCH   9  10
ATOM     10  C   UNL     1      -2.627 -15.475   2.274  0.00  0.00    +0.000 C 
ATOM     11  H   UNL     1      -2.215 -15.666   3.271  0.00  0.00    +0.000 HD
ATOM     12  H   UNL     1      -2.592 -16.396   1.683  0.00  0.00    +0.000 HD
BRANCH  10  13
ATOM     13  C   UNL     1      -1.820 -14.394   1.586  0.00  0.00    +0.000 C 
ATOM     14  H   UNL     1      -0.761 -14.662   1.547  0.00  0.00    +0.000 HD
ATOM     15  H   UNL     1      -2.181 -14.235   0.565  0.00  0.00    +0.000 HD
ATOM     16  H   UNL     1      -1.925 -13.440   2.113  0.00  0.00    +0.000 HD
ENDBRANCH  10  13
ENDBRANCH   9  10
ENDBRANCH   8   9
ENDBRANCH   4   8
ENDBRANCH   1   4
BRANCH   1  18
ATOM     17  O   UNL     1      -7.718 -12.641   4.787  0.00  0.00    +0.000 OA
ATOM     18  C   UNL     1      -7.099 -13.166   3.871  0.00  0.00    +0.000 C 
BRANCH  18  19
ATOM     19  O   UNL     1      -7.650 -13.772   2.777  0.00  0.00    +0.000 OA
BRANCH  19  20
ATOM     20  C   UNL     1      -7.066 -13.420   1.519  0.00  0.00    +0.000 C 
ATOM     21  H   UNL     1      -7.651 -12.617   1.056  0.00  0.00    +0.000 HD
ATOM     22  H   UNL     1      -6.037 -13.075   1.678  0.00  0.00    +0.000 HD
BRANCH  20  23
ATOM     23  C   UNL     1      -7.064 -14.637   0.618  0.00  0.00    +0.000 C 
ATOM     24  H   UNL     1      -6.213 -15.286   0.840  0.00  0.00    +0.000 HD
ATOM     25  H   UNL     1      -7.989 -15.210   0.744  0.00  0.00    +0.000 HD
ATOM     26  H   UNL     1      -7.016 -14.337  -0.433  0.00  0.00    +0.000 HD
ENDBRANCH  20  23
ENDBRANCH  19  20
ENDBRANCH  18  19
ENDBRANCH   1  18
TORSDOF 9
ENDMDL
MODEL 6
REMARK VINA RESULT:    -3.467     23.674     25.526
REMARK INTER + INTRA:          -5.836
REMARK INTER:                  -5.486
REMARK INTRA:                  -0.350
REMARK UNBOUND:                -0.748
REMARK  Name = 31249
REMARK  9 active torsions:
REMARK  status: ('A' for Active; 'I' for Inactive)
REMARK    1  A    between atoms: O_1  and  C_7
REMARK    2  A    between atoms: O_1  and  C_9
REMARK    3  A    between atoms: O_2  and  C_8
REMARK    4  A    between atoms: O_2  and  C_10
REMARK    5  A    between atoms: C_5  and  C_6
REMARK    6  A    between atoms: C_5  and  C_7
REMARK    7  A    between atoms: C_6  and  C_8
REMARK    8  A    between atoms: C_9  and  C_11
REMARK    9  A    between atoms: C_10  and  C_12
REMARK                            x       y       z     vdW  Elec       q    Type
REMARK                         _______ _______ _______ _____ _____    ______ ____
ROOT
ATOM      1  C   UNL     1       3.497   2.918 -20.934  0.00  0.00    +0.000 C 
ATOM      2  H   UNL     1       3.081   3.158 -21.920  0.00  0.00    +0.000 HD
ATOM      3  H   UNL     1       4.346   2.238 -21.072  0.00  0.00    +0.000 HD
ENDROOT
BRANCH   1   4
ATOM      4  C   UNL     1       2.433   2.237 -20.079  0.00  0.00    +0.000 C 
ATOM      5  H   UNL     1       2.305   1.199 -20.408  0.00  0.00    +0.000 HD
ATOM      6  H   UNL     1       2.750   2.231 -19.029  0.00  0.00    +0.000 HD
BRANCH   4   8
ATOM      7  O   UNL     1       0.407   3.266 -19.204  0.00  0.00    +0.000 OA
ATOM      8  C   UNL     1       1.087   2.926 -20.161  0.00  0.00    +0.000 C 
BRANCH   8   9
ATOM      9  O   UNL     1       0.758   3.095 -21.476  0.00  0.00    +0.000 OA
BRANCH   9  10
ATOM     10  C   UNL     1       0.160   1.960 -22.112  0.00  0.00    +0.000 C 
ATOM     11  H   UNL     1       0.440   1.946 -23.171  0.00  0.00    +0.000 HD
ATOM     12  H   UNL     1       0.514   1.043 -21.629  0.00  0.00    +0.000 HD
BRANCH  10  13
ATOM     13  C   UNL     1      -1.345   2.059 -21.982  0.00  0.00    +0.000 C 
ATOM     14  H   UNL     1      -1.843   1.396 -22.695  0.00  0.00    +0.000 HD
ATOM     15  H   UNL     1      -1.663   1.791 -20.969  0.00  0.00    +0.000 HD
ATOM     16  H   UNL     1      -1.681   3.086 -22.159  0.00  0.00    +0.000 HD
ENDBRANCH  10  13
ENDBRANCH   9  10
ENDBRANCH   8   9
ENDBRANCH   4   8
ENDBRANCH   1   4
BRANCH   1  18
ATOM     17  O   UNL     1       3.611   5.323 -20.575  0.00  0.00    +0.000 OA
ATOM     18  C   UNL     1       4.016   4.198 -20.315  0.00  0.00    +0.000 C 
BRANCH  18  19
ATOM     19  O   UNL     1       5.012   3.890 -19.431  0.00  0.00    +0.000 OA
BRANCH  19  20
ATOM     20  C   UNL     1       5.591   5.004 -18.743  0.00  0.00    +0.000 C 
ATOM     21  H   UNL     1       6.001   5.710 -19.474  0.00  0.00    +0.000 HD
ATOM     22  H   UNL     1       4.820   5.504 -18.146  0.00  0.00    +0.000 HD
BRANCH  20  23
ATOM     23  C   UNL     1       6.696   4.503 -17.838  0.00  0.00    +0.000 C 
ATOM     24  H   UNL     1       7.672   4.855 -18.181  0.00  0.00    +0.000 HD
ATOM     25  H   UNL     1       6.537   4.847 -16.810  0.00  0.00    +0.000 HD
ATOM     26  H   UNL     1       6.704   3.409 -17.809  0.00  0.00    +0.000 HD
ENDBRANCH  20  23
ENDBRANCH  19  20
ENDBRANCH  18  19
ENDBRANCH   1  18
TORSDOF 9
ENDMDL
MODEL 7
REMARK VINA RESULT:    -3.451     26.950     28.643
REMARK INTER + INTRA:          -5.813
REMARK INTER:                  -5.304
REMARK INTRA:                  -0.509
REMARK UNBOUND:                -0.748
REMARK  Name = 31249
REMARK  9 active torsions:
REMARK  status: ('A' for Active; 'I' for Inactive)
REMARK    1  A    between atoms: O_1  and  C_7
REMARK    2  A    between atoms: O_1  and  C_9
REMARK    3  A    between atoms: O_2  and  C_8
REMARK    4  A    between atoms: O_2  and  C_10
REMARK    5  A    between atoms: C_5  and  C_6
REMARK    6  A    between atoms: C_5  and  C_7
REMARK    7  A    between atoms: C_6  and  C_8
REMARK    8  A    between atoms: C_9  and  C_11
REMARK    9  A    between atoms: C_10  and  C_12
REMARK                            x       y       z     vdW  Elec       q    Type
REMARK                         _______ _______ _______ _____ _____    ______ ____
ROOT
ATOM      1  C   UNL     1      -0.136   3.601 -24.195  0.00  0.00    +0.000 C 
ATOM      2  H   UNL     1      -0.731   4.420 -24.617  0.00  0.00    +0.000 HD
ATOM      3  H   UNL     1      -0.032   2.820 -24.957  0.00  0.00    +0.000 HD
ENDROOT
BRANCH   1   4
ATOM      4  C   UNL     1      -0.844   3.029 -22.970  0.00  0.00    +0.000 C 
ATOM      5  H   UNL     1      -0.778   3.742 -22.140  0.00  0.00    +0.000 HD
ATOM      6  H   UNL     1      -1.903   2.863 -23.200  0.00  0.00    +0.000 HD
BRANCH   4   8
ATOM      7  O   UNL     1       0.020   0.768 -23.235  0.00  0.00    +0.000 OA
ATOM      8  C   UNL     1      -0.248   1.715 -22.510  0.00  0.00    +0.000 C 
BRANCH   8   9
ATOM      9  O   UNL     1      -0.070   1.762 -21.156  0.00  0.00    +0.000 OA
BRANCH   9  10
ATOM     10  C   UNL     1      -0.596   2.924 -20.507  0.00  0.00    +0.000 C 
ATOM     11  H   UNL     1      -0.772   3.709 -21.250  0.00  0.00    +0.000 HD
ATOM     12  H   UNL     1      -1.540   2.671 -20.013  0.00  0.00    +0.000 HD
BRANCH  10  13
ATOM     13  C   UNL     1       0.404   3.409 -19.479  0.00  0.00    +0.000 C 
ATOM     14  H   UNL     1       0.201   4.445 -19.194  0.00  0.00    +0.000 HD
ATOM     15  H   UNL     1       0.369   2.783 -18.582  0.00  0.00    +0.000 HD
ATOM     16  H   UNL     1       1.425   3.343 -19.872  0.00  0.00    +0.000 HD
ENDBRANCH  10  13
ENDBRANCH   9  10
ENDBRANCH   8   9
ENDBRANCH   4   8
ENDBRANCH   1   4
BRANCH   1  18
ATOM     17  O   UNL     1       1.608   4.552 -22.787  0.00  0.00    +0.000 OA
ATOM     18  C   UNL     1       1.245   4.134 -23.878  0.00  0.00    +0.000 C 
BRANCH  18  19
ATOM     19  O   UNL     1       2.010   4.079 -25.009  0.00  0.00    +0.000 OA
BRANCH  19  20
ATOM     20  C   UNL     1       1.332   4.401 -26.227  0.00  0.00    +0.000 C 
ATOM     21  H   UNL     1       1.710   3.763 -27.035  0.00  0.00    +0.000 HD
ATOM     22  H   UNL     1       0.256   4.231 -26.102  0.00  0.00    +0.000 HD
BRANCH  20  23
ATOM     23  C   UNL     1       1.585   5.855 -26.563  0.00  0.00    +0.000 C 
ATOM     24  H   UNL     1       2.191   5.948 -27.468  0.00  0.00    +0.000 HD
ATOM     25  H   UNL     1       0.638   6.386 -26.715  0.00  0.00    +0.000 HD
ATOM     26  H   UNL     1       2.101   6.356 -25.739  0.00  0.00    +0.000 HD
ENDBRANCH  20  23
ENDBRANCH  19  20
ENDBRANCH  18  19
ENDBRANCH   1  18
TORSDOF 9
ENDMDL
MODEL 8
REMARK VINA RESULT:    -3.409     30.837     32.015
REMARK INTER + INTRA:          -5.752
REMARK INTER:                  -5.092
REMARK INTRA:                  -0.660
REMARK UNBOUND:                -0.748
REMARK  Name = 31249
REMARK  9 active torsions:
REMARK  status: ('A' for Active; 'I' for Inactive)
REMARK    1  A    between atoms: O_1  and  C_7
REMARK    2  A    between atoms: O_1  and  C_9
REMARK    3  A    between atoms: O_2  and  C_8
REMARK    4  A    between atoms: O_2  and  C_10
REMARK    5  A    between atoms: C_5  and  C_6
REMARK    6  A    between atoms: C_5  and  C_7
REMARK    7  A    between atoms: C_6  and  C_8
REMARK    8  A    between atoms: C_9  and  C_11
REMARK    9  A    between atoms: C_10  and  C_12
REMARK                            x       y       z     vdW  Elec       q    Type
REMARK                         _______ _______ _______ _____ _____    ______ ____
ROOT
ATOM      1  C   UNL     1     -16.372  -5.716  -4.867  0.00  0.00    +0.000 C 
ATOM      2  H   UNL     1     -15.499  -5.580  -5.517  0.00  0.00    +0.000 HD
ATOM      3  H   UNL     1     -17.063  -6.413  -5.355  0.00  0.00    +0.000 HD
ENDROOT
BRANCH   1   4
ATOM      4  C   UNL     1     -17.067  -4.374  -4.652  0.00  0.00    +0.000 C 
ATOM      5  H   UNL     1     -17.519  -4.040  -5.594  0.00  0.00    +0.000 HD
ATOM      6  H   UNL     1     -17.863  -4.486  -3.907  0.00  0.00    +0.000 HD
BRANCH   4   8
ATOM      7  O   UNL     1     -15.956  -2.962  -3.010  0.00  0.00    +0.000 OA
ATOM      8  C   UNL     1     -16.120  -3.294  -4.175  0.00  0.00    +0.000 C 
BRANCH   8   9
ATOM      9  O   UNL     1     -15.491  -2.749  -5.259  0.00  0.00    +0.000 OA
BRANCH   9  10
ATOM     10  C   UNL     1     -14.120  -2.390  -5.057  0.00  0.00    +0.000 C 
ATOM     11  H   UNL     1     -14.043  -1.306  -4.920  0.00  0.00    +0.000 HD
ATOM     12  H   UNL     1     -13.736  -2.897  -4.166  0.00  0.00    +0.000 HD
BRANCH  10  13
ATOM     13  C   UNL     1     -13.317  -2.810  -6.270  0.00  0.00    +0.000 C 
ATOM     14  H   UNL     1     -13.959  -3.283  -7.019  0.00  0.00    +0.000 HD
ATOM     15  H   UNL     1     -12.823  -1.945  -6.724  0.00  0.00    +0.000 HD
ATOM     16  H   UNL     1     -12.527  -3.514  -5.985  0.00  0.00    +0.000 HD
ENDBRANCH  10  13
ENDBRANCH   9  10
ENDBRANCH   8   9
ENDBRANCH   4   8
ENDBRANCH   1   4
BRANCH   1  18
ATOM     17  O   UNL     1     -16.536  -6.364  -2.526  0.00  0.00    +0.000 OA
ATOM     18  C   UNL     1     -15.904  -6.346  -3.573  0.00  0.00    +0.000 C 
BRANCH  18  19
ATOM     19  O   UNL     1     -14.661  -6.882  -3.767  0.00  0.00    +0.000 OA
BRANCH  19  20
ATOM     20  C   UNL     1     -13.818  -6.168  -4.678  0.00  0.00    +0.000 C 
ATOM     21  H   UNL     1     -13.552  -6.820  -5.517  0.00  0.00    +0.000 HD
ATOM     22  H   UNL     1     -14.352  -5.288  -5.056  0.00  0.00    +0.000 HD
BRANCH  20  23
ATOM     23  C   UNL     1     -12.564  -5.732  -3.950  0.00  0.00    +0.000 C 
ATOM     24  H   UNL     1     -12.540  -6.139  -2.936  0.00  0.00    +0.000 HD
ATOM     25  H   UNL     1     -11.671  -6.067  -4.488  0.00  0.00    +0.000 HD
ATOM     26  H   UNL     1     -12.512  -4.640  -3.895  0.00  0.00    +0.000 HD
ENDBRANCH  20  23
ENDBRANCH  19  20
ENDBRANCH  18  19
ENDBRANCH   1  18
TORSDOF 9
ENDMDL
MODEL 9
REMARK VINA RESULT:    -3.370     11.410     12.688
REMARK INTER + INTRA:          -5.695
REMARK INTER:                  -5.117
REMARK INTRA:                  -0.578
REMARK UNBOUND:                -0.748
REMARK  Name = 31249
REMARK  9 active torsions:
REMARK  status: ('A' for Active; 'I' for Inactive)
REMARK    1  A    between atoms: O_1  and  C_7
REMARK    2  A    between atoms: O_1  and  C_9
REMARK    3  A    between atoms: O_2  and  C_8
REMARK    4  A    between atoms: O_2  and  C_10
REMARK    5  A    between atoms: C_5  and  C_6
REMARK    6  A    between atoms: C_5  and  C_7
REMARK    7  A    between atoms: C_6  and  C_8
REMARK    8  A    between atoms: C_9  and  C_11
REMARK    9  A    between atoms: C_10  and  C_12
REMARK                            x       y       z     vdW  Elec       q    Type
REMARK                         _______ _______ _______ _____ _____    ______ ____
ROOT
ATOM      1  C   UNL     1      14.267   7.633   0.773  0.00  0.00    +0.000 C 
ATOM      2  H   UNL     1      14.984   6.851   1.052  0.00  0.00    +0.000 HD
ATOM      3  H   UNL     1      14.337   8.445   1.506  0.00  0.00    +0.000 HD
ENDROOT
BRANCH   1   4
ATOM      4  C   UNL     1      12.853   7.060   0.779  0.00  0.00    +0.000 C 
ATOM      5  H   UNL     1      12.214   7.664   1.435  0.00  0.00    +0.000 HD
ATOM      6  H   UNL     1      12.437   7.094  -0.235  0.00  0.00    +0.000 HD
BRANCH   4   8
ATOM      7  O   UNL     1      12.724   5.277   2.431  0.00  0.00    +0.000 OA
ATOM      8  C   UNL     1      12.804   5.626   1.263  0.00  0.00    +0.000 C 
BRANCH   8   9
ATOM      9  O   UNL     1      12.873   4.794   0.181  0.00  0.00    +0.000 OA
BRANCH   9  10
ATOM     10  C   UNL     1      13.180   3.427   0.476  0.00  0.00    +0.000 C 
ATOM     11  H   UNL     1      12.987   3.230   1.536  0.00  0.00    +0.000 HD
ATOM     12  H   UNL     1      12.551   2.771  -0.137  0.00  0.00    +0.000 HD
BRANCH  10  13
ATOM     13  C   UNL     1      14.639   3.172   0.165  0.00  0.00    +0.000 C 
ATOM     14  H   UNL     1      14.769   2.859  -0.875  0.00  0.00    +0.000 HD
ATOM     15  H   UNL     1      15.234   4.074   0.339  0.00  0.00    +0.000 HD
ATOM     16  H   UNL     1      15.043   2.394   0.822  0.00  0.00    +0.000 HD
ENDBRANCH  10  13
ENDBRANCH   9  10
ENDBRANCH   8   9
ENDBRANCH   4   8
ENDBRANCH   1   4
BRANCH   1  18
ATOM     17  O   UNL     1      15.454   9.106  -0.760  0.00  0.00    +0.000 OA
ATOM     18  C   UNL     1      14.671   8.184  -0.578  0.00  0.00    +0.000 C 
BRANCH  18  19
ATOM     19  O   UNL     1      14.012   7.488  -1.553  0.00  0.00    +0.000 OA
BRANCH  19  20
ATOM     20  C   UNL     1      14.795   7.147  -2.701  0.00  0.00    +0.000 C 
ATOM     21  H   UNL     1      14.210   7.331  -3.609  0.00  0.00    +0.000 HD
ATOM     22  H   UNL     1      15.702   7.763  -2.721  0.00  0.00    +0.000 HD
BRANCH  20  23
ATOM     23  C   UNL     1      15.173   5.683  -2.623  0.00  0.00    +0.000 C 
ATOM     24  H   UNL     1      15.707   5.466  -1.694  0.00  0.00    +0.000 HD
ATOM     25  H   UNL     1      14.279   5.051  -2.673  0.00  0.00    +0.000 HD
ATOM     26  H   UNL     1      15.807   5.403  -3.469  0.00  0.00    +0.000 HD
ENDBRANCH  20  23
ENDBRANCH  19  20
ENDBRANCH  18  19
ENDBRANCH   1  18
TORSDOF 9
ENDMDL
MODEL 10
REMARK VINA RESULT:    -3.280     24.107     25.764
REMARK INTER + INTRA:          -5.562
REMARK INTER:                  -4.813
REMARK INTRA:                  -0.748
REMARK UNBOUND:                -0.748
REMARK  Name = 31249
REMARK  9 active torsions:
REMARK  status: ('A' for Active; 'I' for Inactive)
REMARK    1  A    between atoms: O_1  and  C_7
REMARK    2  A    between atoms: O_1  and  C_9
REMARK    3  A    between atoms: O_2  and  C_8
REMARK    4  A    between atoms: O_2  and  C_10
REMARK    5  A    between atoms: C_5  and  C_6
REMARK    6  A    between atoms: C_5  and  C_7
REMARK    7  A    between atoms: C_6  and  C_8
REMARK    8  A    between atoms: C_9  and  C_11
REMARK    9  A    between atoms: C_10  and  C_12
REMARK                            x       y       z     vdW  Elec       q    Type
REMARK                         _______ _______ _______ _____ _____    ______ ____
ROOT
ATOM      1  C   UNL     1      -4.907 -14.949   4.552  0.00  0.00    +0.000 C 
ATOM      2  H   UNL     1      -4.065 -15.083   5.243  0.00  0.00    +0.000 HD
ATOM      3  H   UNL     1      -4.526 -15.014   3.526  0.00  0.00    +0.000 HD
ENDROOT
BRANCH   1   4
ATOM      4  C   UNL     1      -5.541 -13.579   4.775  0.00  0.00    +0.000 C 
ATOM      5  H   UNL     1      -5.929 -13.516   5.799  0.00  0.00    +0.000 HD
ATOM      6  H   UNL     1      -4.786 -12.796   4.642  0.00  0.00    +0.000 HD
BRANCH   4   8
ATOM      7  O   UNL     1      -7.845 -13.103   4.146  0.00  0.00    +0.000 OA
ATOM      8  C   UNL     1      -6.684 -13.301   3.820  0.00  0.00    +0.000 C 
BRANCH   8   9
ATOM      9  O   UNL     1      -6.203 -13.318   2.541  0.00  0.00    +0.000 OA
BRANCH   9  10
ATOM     10  C   UNL     1      -7.183 -13.523   1.518  0.00  0.00    +0.000 C 
ATOM     11  H   UNL     1      -8.183 -13.351   1.931  0.00  0.00    +0.000 HD
ATOM     12  H   UNL     1      -7.005 -12.824   0.695  0.00  0.00    +0.000 HD
BRANCH  10  13
ATOM     13  C   UNL     1      -7.077 -14.946   1.012  0.00  0.00    +0.000 C 
ATOM     14  H   UNL     1      -6.820 -15.631   1.825  0.00  0.00    +0.000 HD
ATOM     15  H   UNL     1      -8.022 -15.268   0.565  0.00  0.00    +0.000 HD
ATOM     16  H   UNL     1      -6.313 -15.021   0.230  0.00  0.00    +0.000 HD
ENDBRANCH  10  13
ENDBRANCH   9  10
ENDBRANCH   8   9
ENDBRANCH   4   8
ENDBRANCH   1   4
BRANCH   1  18
ATOM     17  O   UNL     1      -6.321 -16.816   3.887  0.00  0.00    +0.000 OA
ATOM     18  C   UNL     1      -5.880 -16.088   4.766  0.00  0.00    +0.000 C 
BRANCH  18  19
ATOM     19  O   UNL     1      -6.189 -16.161   6.096  0.00  0.00    +0.000 OA
BRANCH  19  20
ATOM     20  C   UNL     1      -7.556 -16.461   6.395  0.00  0.00    +0.000 C 
ATOM     21  H   UNL     1      -8.058 -16.816   5.487  0.00  0.00    +0.000 HD
ATOM     22  H   UNL     1      -7.599 -17.242   7.163  0.00  0.00    +0.000 HD
BRANCH  20  23
ATOM     23  C   UNL     1      -8.237 -15.207   6.900  0.00  0.00    +0.000 C 
ATOM     24  H   UNL     1      -8.913 -15.437   7.729  0.00  0.00    +0.000 HD
ATOM     25  H   UNL     1      -7.495 -14.477   7.241  0.00  0.00    +0.000 HD
ATOM     26  H   UNL     1      -8.809 -14.730   6.099  0.00  0.00    +0.000 HD
ENDBRANCH  20  23
ENDBRANCH  19  20
ENDBRANCH  18  19
ENDBRANCH   1  18
TORSDOF 9
ENDMDL
