MODEL 1
REMARK VINA RESULT:    -4.964      0.000      0.000
REMARK INTER + INTRA:          -8.839
REMARK INTER:                  -8.223
REMARK INTRA:                  -0.617
REMARK UNBOUND:                -0.684
REMARK  Name = 3893
REMARK  12 active torsions:
REMARK  status: ('A' for Active; 'I' for Inactive)
REMARK    1  A    between atoms: O_1  and  C_14
REMARK    2  A    between atoms: C_3  and  C_4
REMARK    3  A    between atoms: C_3  and  C_5
REMARK    4  A    between atoms: C_4  and  C_6
REMARK    5  A    between atoms: C_5  and  C_7
REMARK    6  A    between atoms: C_6  and  C_8
REMARK    7  A    between atoms: C_7  and  C_9
REMARK    8  A    between atoms: C_8  and  C_10
REMARK    9  A    between atoms: C_9  and  C_11
REMARK   10  A    between atoms: C_10  and  C_12
REMARK   11  A    between atoms: C_11  and  C_13
REMARK   12  A    between atoms: C_12  and  C_14
REMARK                            x       y       z     vdW  Elec       q    Type
REMARK                         _______ _______ _______ _____ _____    ______ ____
ROOT
ATOM      1  C   UNL     1       5.527   5.273 -18.672  0.00  0.00    +0.000 C 
ATOM      2  H   UNL     1       4.530   5.400 -18.233  0.00  0.00    +0.000 HD
ATOM      3  H   UNL     1       5.939   6.276 -18.836  0.00  0.00    +0.000 HD
ENDROOT
BRANCH   1   4
ATOM      4  C   UNL     1       5.406   4.548 -20.015  0.00  0.00    +0.000 C 
ATOM      5  H   UNL     1       5.784   5.199 -20.814  0.00  0.00    +0.000 HD
ATOM      6  H   UNL     1       6.047   3.658 -20.003  0.00  0.00    +0.000 HD
BRANCH   4   7
ATOM      7  C   UNL     1       3.973   4.127 -20.354  0.00  0.00    +0.000 C 
ATOM      8  H   UNL     1       3.726   4.481 -21.363  0.00  0.00    +0.000 HD
ATOM      9  H   UNL     1       3.283   4.628 -19.664  0.00  0.00    +0.000 HD
BRANCH   7  10
ATOM     10  C   UNL     1       3.750   2.615 -20.279  0.00  0.00    +0.000 C 
ATOM     11  H   UNL     1       4.272   2.208 -19.404  0.00  0.00    +0.000 HD
ATOM     12  H   UNL     1       4.182   2.137 -21.166  0.00  0.00    +0.000 HD
BRANCH  10  13
ATOM     13  C   UNL     1       2.257   2.281 -20.188  0.00  0.00    +0.000 C 
ATOM     14  H   UNL     1       2.068   1.721 -19.262  0.00  0.00    +0.000 HD
ATOM     15  H   UNL     1       1.977   1.617 -21.015  0.00  0.00    +0.000 HD
BRANCH  13  16
ATOM     16  C   UNL     1       1.377   3.528 -20.215  0.00  0.00    +0.000 C 
ATOM     17  H   UNL     1       1.772   4.276 -19.517  0.00  0.00    +0.000 HD
ATOM     18  H   UNL     1       1.373   3.953 -21.225  0.00  0.00    +0.000 HD
BRANCH  16  20
ATOM     19  O   UNL     1      -0.904   2.834 -20.599  0.00  0.00    +0.000 OA
ATOM     20  C   UNL     1      -0.048   3.237 -19.821  0.00  0.00    +0.000 C 
BRANCH  20  21
ATOM     21  O   UNL     1      -0.284   3.466 -18.505  0.00  0.00    +0.000 OA
ATOM     22  H   UNL     1       0.124   4.305 -18.200  0.00  0.00    +0.000 HD
ENDBRANCH  20  21
ENDBRANCH  16  20
ENDBRANCH  13  16
ENDBRANCH  10  13
ENDBRANCH   7  10
ENDBRANCH   4   7
ENDBRANCH   1   4
BRANCH   1  23
ATOM     23  C   UNL     1       6.423   4.499 -17.702  0.00  0.00    +0.000 C 
ATOM     24  H   UNL     1       5.814   3.802 -17.114  0.00  0.00    +0.000 HD
ATOM     25  H   UNL     1       6.892   5.194 -16.996  0.00  0.00    +0.000 HD
BRANCH  23  26
ATOM     26  C   UNL     1       7.506   3.720 -18.450  0.00  0.00    +0.000 C 
ATOM     27  H   UNL     1       7.611   2.722 -18.009  0.00  0.00    +0.000 HD
ATOM     28  H   UNL     1       7.192   3.575 -19.491  0.00  0.00    +0.000 HD
BRANCH  26  29
ATOM     29  C   UNL     1       8.873   4.411 -18.436  0.00  0.00    +0.000 C 
ATOM     30  H   UNL     1       8.788   5.349 -17.873  0.00  0.00    +0.000 HD
ATOM     31  H   UNL     1       9.577   3.780 -17.879  0.00  0.00    +0.000 HD
BRANCH  29  32
ATOM     32  C   UNL     1       9.474   4.725 -19.809  0.00  0.00    +0.000 C 
ATOM     33  H   UNL     1       9.289   3.881 -20.484  0.00  0.00    +0.000 HD
ATOM     34  H   UNL     1       8.959   5.593 -20.239  0.00  0.00    +0.000 HD
BRANCH  32  35
ATOM     35  C   UNL     1      10.968   5.004 -19.770  0.00  0.00    +0.000 C 
ATOM     36  H   UNL     1      11.174   6.057 -19.986  0.00  0.00    +0.000 HD
ATOM     37  H   UNL     1      11.384   4.768 -18.785  0.00  0.00    +0.000 HD
ATOM     38  H   UNL     1      11.490   4.395 -20.515  0.00  0.00    +0.000 HD
ENDBRANCH  32  35
ENDBRANCH  29  32
ENDBRANCH  26  29
ENDBRANCH  23  26
ENDBRANCH   1  23
TORSDOF 12
ENDMDL
MODEL 2
REMARK VINA RESULT:    -4.704     30.331     32.107
REMARK INTER + INTRA:          -8.412
REMARK INTER:                  -7.153
REMARK INTRA:                  -1.259
REMARK UNBOUND:                -0.684
REMARK  Name = 3893
REMARK  12 active torsions:
REMARK  status: ('A' for Active; 'I' for Inactive)
REMARK    1  A    between atoms: O_1  and  C_14
REMARK    2  A    between atoms: C_3  and  C_4
REMARK    3  A    between atoms: C_3  and  C_5
REMARK    4  A    between atoms: C_4  and  C_6
REMARK    5  A    between atoms: C_5  and  C_7
REMARK    6  A    between atoms: C_6  and  C_8
REMARK    7  A    between atoms: C_7  and  C_9
REMARK    8  A    between atoms: C_8  and  C_10
REMARK    9  A    between atoms: C_9  and  C_11
REMARK   10  A    between atoms: C_10  and  C_12
REMARK   11  A    between atoms: C_11  and  C_13
REMARK   12  A    between atoms: C_12  and  C_14
REMARK                            x       y       z     vdW  Elec       q    Type
REMARK                         _______ _______ _______ _____ _____    ______ ____
ROOT
ATOM      1  C   UNL     1      -7.845 -13.550   6.446  0.00  0.00    +0.000 C 
ATOM      2  H   UNL     1      -8.507 -12.871   6.997  0.00  0.00    +0.000 HD
ATOM      3  H   UNL     1      -6.850 -13.472   6.902  0.00  0.00    +0.000 HD
ENDROOT
BRANCH   1   4
ATOM      4  C   UNL     1      -7.768 -13.113   4.981  0.00  0.00    +0.000 C 
ATOM      5  H   UNL     1      -8.079 -13.946   4.338  0.00  0.00    +0.000 HD
ATOM      6  H   UNL     1      -8.482 -12.298   4.810  0.00  0.00    +0.000 HD
BRANCH   4   7
ATOM      7  C   UNL     1      -6.371 -12.651   4.556  0.00  0.00    +0.000 C 
ATOM      8  H   UNL     1      -5.629 -13.081   5.240  0.00  0.00    +0.000 HD
ATOM      9  H   UNL     1      -6.308 -11.561   4.663  0.00  0.00    +0.000 HD
BRANCH   7  10
ATOM     10  C   UNL     1      -6.016 -13.036   3.117  0.00  0.00    +0.000 C 
ATOM     11  H   UNL     1      -5.142 -13.699   3.117  0.00  0.00    +0.000 HD
ATOM     12  H   UNL     1      -5.742 -12.136   2.555  0.00  0.00    +0.000 HD
BRANCH  10  13
ATOM     13  C   UNL     1      -7.192 -13.738   2.428  0.00  0.00    +0.000 C 
ATOM     14  H   UNL     1      -8.134 -13.319   2.805  0.00  0.00    +0.000 HD
ATOM     15  H   UNL     1      -7.194 -14.801   2.697  0.00  0.00    +0.000 HD
BRANCH  13  16
ATOM     16  C   UNL     1      -7.147 -13.597   0.909  0.00  0.00    +0.000 C 
ATOM     17  H   UNL     1      -8.124 -13.267   0.538  0.00  0.00    +0.000 HD
ATOM     18  H   UNL     1      -6.393 -12.852   0.631  0.00  0.00    +0.000 HD
BRANCH  16  20
ATOM     19  O   UNL     1      -7.636 -15.648  -0.269  0.00  0.00    +0.000 OA
ATOM     20  C   UNL     1      -6.805 -14.893   0.219  0.00  0.00    +0.000 C 
BRANCH  20  21
ATOM     21  O   UNL     1      -5.470 -15.133   0.190  0.00  0.00    +0.000 OA
ATOM     22  H   UNL     1      -5.097 -15.022  -0.711  0.00  0.00    +0.000 HD
ENDBRANCH  20  21
ENDBRANCH  16  20
ENDBRANCH  13  16
ENDBRANCH  10  13
ENDBRANCH   7  10
ENDBRANCH   4   7
ENDBRANCH   1   4
BRANCH   1  23
ATOM     23  C   UNL     1      -8.358 -14.986   6.571  0.00  0.00    +0.000 C 
ATOM     24  H   UNL     1      -9.450 -14.980   6.670  0.00  0.00    +0.000 HD
ATOM     25  H   UNL     1      -7.953 -15.446   7.480  0.00  0.00    +0.000 HD
BRANCH  23  26
ATOM     26  C   UNL     1      -7.963 -15.823   5.353  0.00  0.00    +0.000 C 
ATOM     27  H   UNL     1      -8.859 -16.280   4.916  0.00  0.00    +0.000 HD
ATOM     28  H   UNL     1      -7.538 -15.165   4.586  0.00  0.00    +0.000 HD
BRANCH  26  29
ATOM     29  C   UNL     1      -6.952 -16.928   5.675  0.00  0.00    +0.000 C 
ATOM     30  H   UNL     1      -7.318 -17.500   6.538  0.00  0.00    +0.000 HD
ATOM     31  H   UNL     1      -6.922 -17.629   4.831  0.00  0.00    +0.000 HD
BRANCH  29  32
ATOM     32  C   UNL     1      -5.526 -16.458   5.975  0.00  0.00    +0.000 C 
ATOM     33  H   UNL     1      -5.567 -15.589   6.642  0.00  0.00    +0.000 HD
ATOM     34  H   UNL     1      -4.992 -17.248   6.518  0.00  0.00    +0.000 HD
BRANCH  32  35
ATOM     35  C   UNL     1      -4.734 -16.088   4.733  0.00  0.00    +0.000 C 
ATOM     36  H   UNL     1      -5.013 -15.093   4.373  0.00  0.00    +0.000 HD
ATOM     37  H   UNL     1      -3.658 -16.089   4.940  0.00  0.00    +0.000 HD
ATOM     38  H   UNL     1      -4.926 -16.807   3.930  0.00  0.00    +0.000 HD
ENDBRANCH  32  35
ENDBRANCH  29  32
ENDBRANCH  26  29
ENDBRANCH  23  26
ENDBRANCH   1  23
TORSDOF 12
ENDMDL
MODEL 3
REMARK VINA RESULT:    -4.659     23.039     24.417
REMARK INTER + INTRA:          -8.339
REMARK INTER:                  -7.270
REMARK INTRA:                  -1.068
REMARK UNBOUND:                -0.684
REMARK  Name = 3893
REMARK  12 active torsions:
REMARK  status: ('A' for Active; 'I' for Inactive)
REMARK    1  A    between atoms: O_1  and  C_14
REMARK    2  A    between atoms: C_3  and  C_4
REMARK    3  A    between atoms: C_3  and  C_5
REMARK    4  A    between atoms: C_4  and  C_6
REMARK    5  A    between atoms: C_5  and  C_7
REMARK    6  A    between atoms: C_6  and  C_8
REMARK    7  A    between atoms: C_7  and  C_9
REMARK    8  A    between atoms: C_8  and  C_10
REMARK    9  A    between atoms: C_9  and  C_11
REMARK   10  A    between atoms: C_10  and  C_12
REMARK   11  A    between atoms: C_11  and  C_13
REMARK   12  A    between atoms: C_12  and  C_14
REMARK                            x       y       z     vdW  Elec       q    Type
REMARK                         _______ _______ _______ _____ _____    ______ ____
ROOT
ATOM      1  C   UNL     1      17.710  -3.869  -2.006  0.00  0.00    +0.000 C 
ATOM      2  H   UNL     1      17.535  -3.687  -0.939  0.00  0.00    +0.000 HD
ATOM      3  H   UNL     1      17.855  -2.892  -2.482  0.00  0.00    +0.000 HD
ENDROOT
BRANCH   1   4
ATOM      4  C   UNL     1      16.484  -4.555  -2.615  0.00  0.00    +0.000 C 
ATOM      5  H   UNL     1      15.978  -3.857  -3.295  0.00  0.00    +0.000 HD
ATOM      6  H   UNL     1      16.813  -5.406  -3.224  0.00  0.00    +0.000 HD
BRANCH   4   7
ATOM      7  C   UNL     1      15.479  -5.047  -1.570  0.00  0.00    +0.000 C 
ATOM      8  H   UNL     1      14.465  -4.785  -1.898  0.00  0.00    +0.000 HD
ATOM      9  H   UNL     1      15.655  -4.515  -0.628  0.00  0.00    +0.000 HD
BRANCH   7  10
ATOM     10  C   UNL     1      15.555  -6.555  -1.318  0.00  0.00    +0.000 C 
ATOM     11  H   UNL     1      16.502  -6.948  -1.706  0.00  0.00    +0.000 HD
ATOM     12  H   UNL     1      14.747  -7.058  -1.862  0.00  0.00    +0.000 HD
BRANCH  10  13
ATOM     13  C   UNL     1      15.443  -6.871   0.178  0.00  0.00    +0.000 C 
ATOM     14  H   UNL     1      16.169  -7.653   0.437  0.00  0.00    +0.000 HD
ATOM     15  H   UNL     1      14.450  -7.283   0.394  0.00  0.00    +0.000 HD
BRANCH  13  16
ATOM     16  C   UNL     1      15.686  -5.644   1.053  0.00  0.00    +0.000 C 
ATOM     17  H   UNL     1      15.503  -4.732   0.472  0.00  0.00    +0.000 HD
ATOM     18  H   UNL     1      15.002  -5.661   1.909  0.00  0.00    +0.000 HD
BRANCH  16  20
ATOM     19  O   UNL     1      17.837  -4.615   1.436  0.00  0.00    +0.000 OA
ATOM     20  C   UNL     1      17.097  -5.580   1.580  0.00  0.00    +0.000 C 
BRANCH  20  21
ATOM     21  O   UNL     1      17.460  -6.708   2.238  0.00  0.00    +0.000 OA
ATOM     22  H   UNL     1      16.732  -7.059   2.794  0.00  0.00    +0.000 HD
ENDBRANCH  20  21
ENDBRANCH  16  20
ENDBRANCH  13  16
ENDBRANCH  10  13
ENDBRANCH   7  10
ENDBRANCH   4   7
ENDBRANCH   1   4
BRANCH   1  23
ATOM     23  C   UNL     1      18.969  -4.722  -2.184  0.00  0.00    +0.000 C 
ATOM     24  H   UNL     1      18.701  -5.785  -2.150  0.00  0.00    +0.000 HD
ATOM     25  H   UNL     1      19.662  -4.536  -1.355  0.00  0.00    +0.000 HD
BRANCH  23  26
ATOM     26  C   UNL     1      19.663  -4.414  -3.511  0.00  0.00    +0.000 C 
ATOM     27  H   UNL     1      19.103  -3.637  -4.046  0.00  0.00    +0.000 HD
ATOM     28  H   UNL     1      20.660  -4.004  -3.310  0.00  0.00    +0.000 HD
BRANCH  26  29
ATOM     29  C   UNL     1      19.803  -5.637  -4.423  0.00  0.00    +0.000 C 
ATOM     30  H   UNL     1      19.748  -5.305  -5.468  0.00  0.00    +0.000 HD
ATOM     31  H   UNL     1      20.807  -6.059  -4.287  0.00  0.00    +0.000 HD
BRANCH  29  32
ATOM     32  C   UNL     1      18.769  -6.746  -4.213  0.00  0.00    +0.000 C 
ATOM     33  H   UNL     1      19.278  -7.717  -4.215  0.00  0.00    +0.000 HD
ATOM     34  H   UNL     1      18.311  -6.630  -3.223  0.00  0.00    +0.000 HD
BRANCH  32  35
ATOM     35  C   UNL     1      17.673  -6.763  -5.266  0.00  0.00    +0.000 C 
ATOM     36  H   UNL     1      18.065  -7.099  -6.231  0.00  0.00    +0.000 HD
ATOM     37  H   UNL     1      16.860  -7.435  -4.973  0.00  0.00    +0.000 HD
ATOM     38  H   UNL     1      17.255  -5.760  -5.398  0.00  0.00    +0.000 HD
ENDBRANCH  32  35
ENDBRANCH  29  32
ENDBRANCH  26  29
ENDBRANCH  23  26
ENDBRANCH   1  23
TORSDOF 12
ENDMDL
MODEL 4
REMARK VINA RESULT:    -4.553     31.329     33.139
REMARK INTER + INTRA:          -8.165
REMARK INTER:                  -6.931
REMARK INTRA:                  -1.233
REMARK UNBOUND:                -0.684
REMARK  Name = 3893
REMARK  12 active torsions:
REMARK  status: ('A' for Active; 'I' for Inactive)
REMARK    1  A    between atoms: O_1  and  C_14
REMARK    2  A    between atoms: C_3  and  C_4
REMARK    3  A    between atoms: C_3  and  C_5
REMARK    4  A    between atoms: C_4  and  C_6
REMARK    5  A    between atoms: C_5  and  C_7
REMARK    6  A    between atoms: C_6  and  C_8
REMARK    7  A    between atoms: C_7  and  C_9
REMARK    8  A    between atoms: C_8  and  C_10
REMARK    9  A    between atoms: C_9  and  C_11
REMARK   10  A    between atoms: C_10  and  C_12
REMARK   11  A    between atoms: C_11  and  C_13
REMARK   12  A    between atoms: C_12  and  C_14
REMARK                            x       y       z     vdW  Elec       q    Type
REMARK                         _______ _______ _______ _____ _____    ______ ____
ROOT
ATOM      1  C   UNL     1      -8.533 -15.603   5.908  0.00  0.00    +0.000 C 
ATOM      2  H   UNL     1      -9.583 -15.755   6.186  0.00  0.00    +0.000 HD
ATOM      3  H   UNL     1      -8.495 -15.524   4.815  0.00  0.00    +0.000 HD
ENDROOT
BRANCH   1   4
ATOM      4  C   UNL     1      -7.704 -16.807   6.360  0.00  0.00    +0.000 C 
ATOM      5  H   UNL     1      -7.997 -17.087   7.380  0.00  0.00    +0.000 HD
ATOM      6  H   UNL     1      -7.936 -17.665   5.718  0.00  0.00    +0.000 HD
BRANCH   4   7
ATOM      7  C   UNL     1      -6.194 -16.553   6.330  0.00  0.00    +0.000 C 
ATOM      8  H   UNL     1      -5.685 -17.358   6.875  0.00  0.00    +0.000 HD
ATOM      9  H   UNL     1      -5.978 -15.621   6.865  0.00  0.00    +0.000 HD
BRANCH   7  10
ATOM     10  C   UNL     1      -5.622 -16.463   4.912  0.00  0.00    +0.000 C 
ATOM     11  H   UNL     1      -6.379 -16.052   4.234  0.00  0.00    +0.000 HD
ATOM     12  H   UNL     1      -5.375 -17.468   4.553  0.00  0.00    +0.000 HD
BRANCH  10  13
ATOM     13  C   UNL     1      -4.369 -15.580   4.878  0.00  0.00    +0.000 C 
ATOM     14  H   UNL     1      -3.803 -15.721   5.808  0.00  0.00    +0.000 HD
ATOM     15  H   UNL     1      -4.664 -14.524   4.850  0.00  0.00    +0.000 HD
BRANCH  13  16
ATOM     16  C   UNL     1      -3.470 -15.890   3.685  0.00  0.00    +0.000 C 
ATOM     17  H   UNL     1      -3.958 -16.623   3.032  0.00  0.00    +0.000 HD
ATOM     18  H   UNL     1      -3.288 -14.973   3.113  0.00  0.00    +0.000 HD
BRANCH  16  20
ATOM     19  O   UNL     1      -1.060 -15.934   3.838  0.00  0.00    +0.000 OA
ATOM     20  C   UNL     1      -2.136 -16.457   4.098  0.00  0.00    +0.000 C 
BRANCH  20  21
ATOM     21  O   UNL     1      -2.255 -17.613   4.798  0.00  0.00    +0.000 OA
ATOM     22  H   UNL     1      -2.083 -18.400   4.238  0.00  0.00    +0.000 HD
ENDBRANCH  20  21
ENDBRANCH  16  20
ENDBRANCH  13  16
ENDBRANCH  10  13
ENDBRANCH   7  10
ENDBRANCH   4   7
ENDBRANCH   1   4
BRANCH   1  23
ATOM     23  C   UNL     1      -8.016 -14.306   6.537  0.00  0.00    +0.000 C 
ATOM     24  H   UNL     1      -6.959 -14.422   6.804  0.00  0.00    +0.000 HD
ATOM     25  H   UNL     1      -8.564 -14.100   7.464  0.00  0.00    +0.000 HD
BRANCH  23  26
ATOM     26  C   UNL     1      -8.170 -13.125   5.577  0.00  0.00    +0.000 C 
ATOM     27  H   UNL     1      -9.146 -13.183   5.079  0.00  0.00    +0.000 HD
ATOM     28  H   UNL     1      -8.163 -12.191   6.151  0.00  0.00    +0.000 HD
BRANCH  26  29
ATOM     29  C   UNL     1      -7.074 -13.061   4.509  0.00  0.00    +0.000 C 
ATOM     30  H   UNL     1      -6.755 -12.017   4.395  0.00  0.00    +0.000 HD
ATOM     31  H   UNL     1      -6.199 -13.613   4.875  0.00  0.00    +0.000 HD
BRANCH  29  32
ATOM     32  C   UNL     1      -7.456 -13.604   3.129  0.00  0.00    +0.000 C 
ATOM     33  H   UNL     1      -7.830 -14.629   3.237  0.00  0.00    +0.000 HD
ATOM     34  H   UNL     1      -8.282 -13.007   2.723  0.00  0.00    +0.000 HD
BRANCH  32  35
ATOM     35  C   UNL     1      -6.307 -13.601   2.135  0.00  0.00    +0.000 C 
ATOM     36  H   UNL     1      -6.261 -12.652   1.593  0.00  0.00    +0.000 HD
ATOM     37  H   UNL     1      -5.349 -13.752   2.645  0.00  0.00    +0.000 HD
ATOM     38  H   UNL     1      -6.433 -14.407   1.404  0.00  0.00    +0.000 HD
ENDBRANCH  32  35
ENDBRANCH  29  32
ENDBRANCH  26  29
ENDBRANCH  23  26
ENDBRANCH   1  23
TORSDOF 12
ENDMDL
MODEL 5
REMARK VINA RESULT:    -4.526      1.772      2.913
REMARK INTER + INTRA:          -8.120
REMARK INTER:                  -7.273
REMARK INTRA:                  -0.847
REMARK UNBOUND:                -0.684
REMARK  Name = 3893
REMARK  12 active torsions:
REMARK  status: ('A' for Active; 'I' for Inactive)
REMARK    1  A    between atoms: O_1  and  C_14
REMARK    2  A    between atoms: C_3  and  C_4
REMARK    3  A    between atoms: C_3  and  C_5
REMARK    4  A    between atoms: C_4  and  C_6
REMARK    5  A    between atoms: C_5  and  C_7
REMARK    6  A    between atoms: C_6  and  C_8
REMARK    7  A    between atoms: C_7  and  C_9
REMARK    8  A    between atoms: C_8  and  C_10
REMARK    9  A    between atoms: C_9  and  C_11
REMARK   10  A    between atoms: C_10  and  C_12
REMARK   11  A    between atoms: C_11  and  C_13
REMARK   12  A    between atoms: C_12  and  C_14
REMARK                            x       y       z     vdW  Elec       q    Type
REMARK                         _______ _______ _______ _____ _____    ______ ____
ROOT
ATOM      1  C   UNL     1       4.148   4.096 -21.373  0.00  0.00    +0.000 C 
ATOM      2  H   UNL     1       3.608   5.036 -21.538  0.00  0.00    +0.000 HD
ATOM      3  H   UNL     1       4.998   4.084 -22.066  0.00  0.00    +0.000 HD
ENDROOT
BRANCH   1   4
ATOM      4  C   UNL     1       3.224   2.915 -21.682  0.00  0.00    +0.000 C 
ATOM      5  H   UNL     1       2.445   3.238 -22.384  0.00  0.00    +0.000 HD
ATOM      6  H   UNL     1       3.799   2.130 -22.188  0.00  0.00    +0.000 HD
BRANCH   4   7
ATOM      7  C   UNL     1       2.556   2.322 -20.437  0.00  0.00    +0.000 C 
ATOM      8  H   UNL     1       2.949   2.829 -19.546  0.00  0.00    +0.000 HD
ATOM      9  H   UNL     1       2.837   1.266 -20.351  0.00  0.00    +0.000 HD
BRANCH   7  10
ATOM     10  C   UNL     1       1.030   2.438 -20.453  0.00  0.00    +0.000 C 
ATOM     11  H   UNL     1       0.584   1.483 -20.152  0.00  0.00    +0.000 HD
ATOM     12  H   UNL     1       0.690   2.648 -21.474  0.00  0.00    +0.000 HD
BRANCH  10  13
ATOM     13  C   UNL     1       0.551   3.548 -19.511  0.00  0.00    +0.000 C 
ATOM     14  H   UNL     1       1.186   3.561 -18.616  0.00  0.00    +0.000 HD
ATOM     15  H   UNL     1      -0.467   3.326 -19.168  0.00  0.00    +0.000 HD
BRANCH  13  16
ATOM     16  C   UNL     1       0.576   4.925 -20.171  0.00  0.00    +0.000 C 
ATOM     17  H   UNL     1       1.243   4.907 -21.041  0.00  0.00    +0.000 HD
ATOM     18  H   UNL     1      -0.433   5.192 -20.503  0.00  0.00    +0.000 HD
BRANCH  16  20
ATOM     19  O   UNL     1       2.215   6.423 -19.220  0.00  0.00    +0.000 OA
ATOM     20  C   UNL     1       1.065   6.003 -19.237  0.00  0.00    +0.000 C 
BRANCH  20  21
ATOM     21  O   UNL     1       0.089   6.466 -18.418  0.00  0.00    +0.000 OA
ATOM     22  H   UNL     1       0.423   6.638 -17.511  0.00  0.00    +0.000 HD
ENDBRANCH  20  21
ENDBRANCH  16  20
ENDBRANCH  13  16
ENDBRANCH  10  13
ENDBRANCH   7  10
ENDBRANCH   4   7
ENDBRANCH   1   4
BRANCH   1  23
ATOM     23  C   UNL     1       4.658   4.039 -19.931  0.00  0.00    +0.000 C 
ATOM     24  H   UNL     1       5.065   3.042 -19.724  0.00  0.00    +0.000 HD
ATOM     25  H   UNL     1       3.825   4.199 -19.237  0.00  0.00    +0.000 HD
BRANCH  23  26
ATOM     26  C   UNL     1       5.741   5.091 -19.685  0.00  0.00    +0.000 C 
ATOM     27  H   UNL     1       6.569   4.936 -20.386  0.00  0.00    +0.000 HD
ATOM     28  H   UNL     1       5.330   6.086 -19.895  0.00  0.00    +0.000 HD
BRANCH  26  29
ATOM     29  C   UNL     1       6.294   5.073 -18.256  0.00  0.00    +0.000 C 
ATOM     30  H   UNL     1       6.295   6.099 -17.867  0.00  0.00    +0.000 HD
ATOM     31  H   UNL     1       5.603   4.503 -17.622  0.00  0.00    +0.000 HD
BRANCH  29  32
ATOM     32  C   UNL     1       7.702   4.493 -18.095  0.00  0.00    +0.000 C 
ATOM     33  H   UNL     1       8.268   5.114 -17.390  0.00  0.00    +0.000 HD
ATOM     34  H   UNL     1       7.632   3.493 -17.652  0.00  0.00    +0.000 HD
BRANCH  32  35
ATOM     35  C   UNL     1       8.475   4.403 -19.401  0.00  0.00    +0.000 C 
ATOM     36  H   UNL     1       8.463   5.361 -19.929  0.00  0.00    +0.000 HD
ATOM     37  H   UNL     1       9.518   4.123 -19.219  0.00  0.00    +0.000 HD
ATOM     38  H   UNL     1       8.030   3.647 -20.056  0.00  0.00    +0.000 HD
ENDBRANCH  32  35
ENDBRANCH  29  32
ENDBRANCH  26  29
ENDBRANCH  23  26
ENDBRANCH   1  23
TORSDOF 12
ENDMDL
MODEL 6
REMARK VINA RESULT:    -4.502      2.206      3.587
REMARK INTER + INTRA:          -8.080
REMARK INTER:                  -7.565
REMARK INTRA:                  -0.515
REMARK UNBOUND:                -0.684
REMARK  Name = 3893
REMARK  12 active torsions:
REMARK  status: ('A' for Active; 'I' for Inactive)
REMARK    1  A    between atoms: O_1  and  C_14
REMARK    2  A    between atoms: C_3  and  C_4
REMARK    3  A    between atoms: C_3  and  C_5
REMARK    4  A    between atoms: C_4  and  C_6
REMARK    5  A    between atoms: C_5  and  C_7
REMARK    6  A    between atoms: C_6  and  C_8
REMARK    7  A    between atoms: C_7  and  C_9
REMARK    8  A    between atoms: C_8  and  C_10
REMARK    9  A    between atoms: C_9  and  C_11
REMARK   10  A    between atoms: C_10  and  C_12
REMARK   11  A    between atoms: C_11  and  C_13
REMARK   12  A    between atoms: C_12  and  C_14
REMARK                            x       y       z     vdW  Elec       q    Type
REMARK                         _______ _______ _______ _____ _____    ______ ____
ROOT
ATOM      1  C   UNL     1       3.183   5.881 -19.677  0.00  0.00    +0.000 C 
ATOM      2  H   UNL     1       3.248   5.897 -18.582  0.00  0.00    +0.000 HD
ATOM      3  H   UNL     1       3.922   6.597 -20.056  0.00  0.00    +0.000 HD
ENDROOT
BRANCH   1   4
ATOM      4  C   UNL     1       1.782   6.318 -20.113  0.00  0.00    +0.000 C 
ATOM      5  H   UNL     1       1.473   7.189 -19.521  0.00  0.00    +0.000 HD
ATOM      6  H   UNL     1       1.815   6.643 -21.159  0.00  0.00    +0.000 HD
BRANCH   4   7
ATOM      7  C   UNL     1       0.727   5.217 -19.964  0.00  0.00    +0.000 C 
ATOM      8  H   UNL     1      -0.027   5.541 -19.235  0.00  0.00    +0.000 HD
ATOM      9  H   UNL     1       1.204   4.320 -19.550  0.00  0.00    +0.000 HD
BRANCH   7  10
ATOM     10  C   UNL     1       0.035   4.857 -21.281  0.00  0.00    +0.000 C 
ATOM     11  H   UNL     1       0.761   4.899 -22.103  0.00  0.00    +0.000 HD
ATOM     12  H   UNL     1      -0.745   5.596 -21.498  0.00  0.00    +0.000 HD
BRANCH  10  13
ATOM     13  C   UNL     1      -0.584   3.457 -21.215  0.00  0.00    +0.000 C 
ATOM     14  H   UNL     1      -1.627   3.539 -20.883  0.00  0.00    +0.000 HD
ATOM     15  H   UNL     1      -0.062   2.860 -20.457  0.00  0.00    +0.000 HD
BRANCH  13  16
ATOM     16  C   UNL     1      -0.534   2.732 -22.557  0.00  0.00    +0.000 C 
ATOM     17  H   UNL     1      -1.515   2.294 -22.779  0.00  0.00    +0.000 HD
ATOM     18  H   UNL     1      -0.276   3.443 -23.349  0.00  0.00    +0.000 HD
BRANCH  16  20
ATOM     19  O   UNL     1       1.675   1.785 -22.792  0.00  0.00    +0.000 OA
ATOM     20  C   UNL     1       0.482   1.618 -22.574  0.00  0.00    +0.000 C 
BRANCH  20  21
ATOM     21  O   UNL     1      -0.068   0.406 -22.316  0.00  0.00    +0.000 OA
ATOM     22  H   UNL     1      -1.037   0.465 -22.176  0.00  0.00    +0.000 HD
ENDBRANCH  20  21
ENDBRANCH  16  20
ENDBRANCH  13  16
ENDBRANCH  10  13
ENDBRANCH   7  10
ENDBRANCH   4   7
ENDBRANCH   1   4
BRANCH   1  23
ATOM     23  C   UNL     1       3.512   4.478 -20.193  0.00  0.00    +0.000 C 
ATOM     24  H   UNL     1       3.296   4.420 -21.266  0.00  0.00    +0.000 HD
ATOM     25  H   UNL     1       2.873   3.740 -19.693  0.00  0.00    +0.000 HD
BRANCH  23  26
ATOM     26  C   UNL     1       4.982   4.130 -19.952  0.00  0.00    +0.000 C 
ATOM     27  H   UNL     1       5.054   3.133 -19.501  0.00  0.00    +0.000 HD
ATOM     28  H   UNL     1       5.503   4.080 -20.915  0.00  0.00    +0.000 HD
BRANCH  26  29
ATOM     29  C   UNL     1       5.705   5.134 -19.048  0.00  0.00    +0.000 C 
ATOM     30  H   UNL     1       6.363   5.756 -19.668  0.00  0.00    +0.000 HD
ATOM     31  H   UNL     1       4.959   5.811 -18.613  0.00  0.00    +0.000 HD
BRANCH  29  32
ATOM     32  C   UNL     1       6.539   4.528 -17.915  0.00  0.00    +0.000 C 
ATOM     33  H   UNL     1       6.302   5.046 -16.978  0.00  0.00    +0.000 HD
ATOM     34  H   UNL     1       6.253   3.478 -17.778  0.00  0.00    +0.000 HD
BRANCH  32  35
ATOM     35  C   UNL     1       8.037   4.606 -18.155  0.00  0.00    +0.000 C 
ATOM     36  H   UNL     1       8.499   3.618 -18.066  0.00  0.00    +0.000 HD
ATOM     37  H   UNL     1       8.254   4.998 -19.154  0.00  0.00    +0.000 HD
ATOM     38  H   UNL     1       8.507   5.269 -17.421  0.00  0.00    +0.000 HD
ENDBRANCH  32  35
ENDBRANCH  29  32
ENDBRANCH  26  29
ENDBRANCH  23  26
ENDBRANCH   1  23
TORSDOF 12
ENDMDL
MODEL 7
REMARK VINA RESULT:    -4.449     22.942     24.673
REMARK INTER + INTRA:          -7.994
REMARK INTER:                  -7.280
REMARK INTRA:                  -0.714
REMARK UNBOUND:                -0.684
REMARK  Name = 3893
REMARK  12 active torsions:
REMARK  status: ('A' for Active; 'I' for Inactive)
REMARK    1  A    between atoms: O_1  and  C_14
REMARK    2  A    between atoms: C_3  and  C_4
REMARK    3  A    between atoms: C_3  and  C_5
REMARK    4  A    between atoms: C_4  and  C_6
REMARK    5  A    between atoms: C_5  and  C_7
REMARK    6  A    between atoms: C_6  and  C_8
REMARK    7  A    between atoms: C_7  and  C_9
REMARK    8  A    between atoms: C_8  and  C_10
REMARK    9  A    between atoms: C_9  and  C_11
REMARK   10  A    between atoms: C_10  and  C_12
REMARK   11  A    between atoms: C_11  and  C_13
REMARK   12  A    between atoms: C_12  and  C_14
REMARK                            x       y       z     vdW  Elec       q    Type
REMARK                         _______ _______ _______ _____ _____    ______ ____
ROOT
ATOM      1  C   UNL     1      17.483  -3.934  -2.328  0.00  0.00    +0.000 C 
ATOM      2  H   UNL     1      17.416  -3.315  -1.425  0.00  0.00    +0.000 HD
ATOM      3  H   UNL     1      17.552  -3.251  -3.185  0.00  0.00    +0.000 HD
ENDROOT
BRANCH   1   4
ATOM      4  C   UNL     1      16.218  -4.787  -2.459  0.00  0.00    +0.000 C 
ATOM      5  H   UNL     1      15.505  -4.278  -3.120  0.00  0.00    +0.000 HD
ATOM      6  H   UNL     1      16.474  -5.738  -2.941  0.00  0.00    +0.000 HD
BRANCH   4   7
ATOM      7  C   UNL     1      15.536  -5.073  -1.117  0.00  0.00    +0.000 C 
ATOM      8  H   UNL     1      14.503  -4.706  -1.157  0.00  0.00    +0.000 HD
ATOM      9  H   UNL     1      16.045  -4.504  -0.330  0.00  0.00    +0.000 HD
BRANCH   7  10
ATOM     10  C   UNL     1      15.532  -6.557  -0.743  0.00  0.00    +0.000 C 
ATOM     11  H   UNL     1      16.452  -7.032  -1.104  0.00  0.00    +0.000 HD
ATOM     12  H   UNL     1      14.692  -7.057  -1.239  0.00  0.00    +0.000 HD
BRANCH  10  13
ATOM     13  C   UNL     1      15.419  -6.743   0.774  0.00  0.00    +0.000 C 
ATOM     14  H   UNL     1      14.361  -6.715   1.064  0.00  0.00    +0.000 HD
ATOM     15  H   UNL     1      15.904  -5.902   1.285  0.00  0.00    +0.000 HD
BRANCH  13  16
ATOM     16  C   UNL     1      16.041  -8.053   1.249  0.00  0.00    +0.000 C 
ATOM     17  H   UNL     1      16.222  -8.711   0.391  0.00  0.00    +0.000 HD
ATOM     18  H   UNL     1      16.996  -7.849   1.746  0.00  0.00    +0.000 HD
BRANCH  16  20
ATOM     19  O   UNL     1      13.933  -8.738   2.208  0.00  0.00    +0.000 OA
ATOM     20  C   UNL     1      15.156  -8.794   2.219  0.00  0.00    +0.000 C 
BRANCH  20  21
ATOM     21  O   UNL     1      15.861  -9.539   3.106  0.00  0.00    +0.000 OA
ATOM     22  H   UNL     1      16.496 -10.138   2.658  0.00  0.00    +0.000 HD
ENDBRANCH  20  21
ENDBRANCH  16  20
ENDBRANCH  13  16
ENDBRANCH  10  13
ENDBRANCH   7  10
ENDBRANCH   4   7
ENDBRANCH   1   4
BRANCH   1  23
ATOM     23  C   UNL     1      18.738  -4.808  -2.264  0.00  0.00    +0.000 C 
ATOM     24  H   UNL     1      18.450  -5.866  -2.264  0.00  0.00    +0.000 HD
ATOM     25  H   UNL     1      19.273  -4.618  -1.325  0.00  0.00    +0.000 HD
BRANCH  23  26
ATOM     26  C   UNL     1      19.666  -4.533  -3.448  0.00  0.00    +0.000 C 
ATOM     27  H   UNL     1      19.323  -3.639  -3.983  0.00  0.00    +0.000 HD
ATOM     28  H   UNL     1      20.672  -4.310  -3.073  0.00  0.00    +0.000 HD
BRANCH  26  29
ATOM     29  C   UNL     1      19.751  -5.699  -4.438  0.00  0.00    +0.000 C 
ATOM     30  H   UNL     1      19.666  -5.301  -5.458  0.00  0.00    +0.000 HD
ATOM     31  H   UNL     1      20.750  -6.146  -4.364  0.00  0.00    +0.000 HD
BRANCH  29  32
ATOM     32  C   UNL     1      18.704  -6.802  -4.260  0.00  0.00    +0.000 C 
ATOM     33  H   UNL     1      19.200  -7.778  -4.299  0.00  0.00    +0.000 HD
ATOM     34  H   UNL     1      18.254  -6.714  -3.263  0.00  0.00    +0.000 HD
BRANCH  32  35
ATOM     35  C   UNL     1      17.602  -6.768  -5.305  0.00  0.00    +0.000 C 
ATOM     36  H   UNL     1      16.615  -6.796  -4.834  0.00  0.00    +0.000 HD
ATOM     37  H   UNL     1      17.667  -5.860  -5.913  0.00  0.00    +0.000 HD
ATOM     38  H   UNL     1      17.684  -7.631  -5.974  0.00  0.00    +0.000 HD
ENDBRANCH  32  35
ENDBRANCH  29  32
ENDBRANCH  26  29
ENDBRANCH  23  26
ENDBRANCH   1  23
TORSDOF 12
ENDMDL
MODEL 8
REMARK VINA RESULT:    -4.447     32.214     34.568
REMARK INTER + INTRA:          -7.990
REMARK INTER:                  -7.395
REMARK INTRA:                  -0.595
REMARK UNBOUND:                -0.684
REMARK  Name = 3893
REMARK  12 active torsions:
REMARK  status: ('A' for Active; 'I' for Inactive)
REMARK    1  A    between atoms: O_1  and  C_14
REMARK    2  A    between atoms: C_3  and  C_4
REMARK    3  A    between atoms: C_3  and  C_5
REMARK    4  A    between atoms: C_4  and  C_6
REMARK    5  A    between atoms: C_5  and  C_7
REMARK    6  A    between atoms: C_6  and  C_8
REMARK    7  A    between atoms: C_7  and  C_9
REMARK    8  A    between atoms: C_8  and  C_10
REMARK    9  A    between atoms: C_9  and  C_11
REMARK   10  A    between atoms: C_10  and  C_12
REMARK   11  A    between atoms: C_11  and  C_13
REMARK   12  A    between atoms: C_12  and  C_14
REMARK                            x       y       z     vdW  Elec       q    Type
REMARK                         _______ _______ _______ _____ _____    ______ ____
ROOT
ATOM      1  C   UNL     1      -9.646 -16.311   5.891  0.00  0.00    +0.000 C 
ATOM      2  H   UNL     1      -9.274 -16.182   4.867  0.00  0.00    +0.000 HD
ATOM      3  H   UNL     1     -10.532 -15.673   5.997  0.00  0.00    +0.000 HD
ENDROOT
BRANCH   1   4
ATOM      4  C   UNL     1      -8.573 -15.863   6.886  0.00  0.00    +0.000 C 
ATOM      5  H   UNL     1      -9.054 -15.359   7.735  0.00  0.00    +0.000 HD
ATOM      6  H   UNL     1      -8.064 -16.746   7.290  0.00  0.00    +0.000 HD
BRANCH   4   7
ATOM      7  C   UNL     1      -7.531 -14.921   6.275  0.00  0.00    +0.000 C 
ATOM      8  H   UNL     1      -7.172 -15.350   5.331  0.00  0.00    +0.000 HD
ATOM      9  H   UNL     1      -6.666 -14.863   6.946  0.00  0.00    +0.000 HD
BRANCH   7  10
ATOM     10  C   UNL     1      -8.065 -13.510   6.018  0.00  0.00    +0.000 C 
ATOM     11  H   UNL     1      -7.600 -12.806   6.719  0.00  0.00    +0.000 HD
ATOM     12  H   UNL     1      -9.145 -13.488   6.203  0.00  0.00    +0.000 HD
BRANCH  10  13
ATOM     13  C   UNL     1      -7.779 -13.065   4.579  0.00  0.00    +0.000 C 
ATOM     14  H   UNL     1      -6.948 -12.348   4.581  0.00  0.00    +0.000 HD
ATOM     15  H   UNL     1      -8.650 -12.531   4.180  0.00  0.00    +0.000 HD
BRANCH  13  16
ATOM     16  C   UNL     1      -7.436 -14.237   3.664  0.00  0.00    +0.000 C 
ATOM     17  H   UNL     1      -6.828 -14.968   4.209  0.00  0.00    +0.000 HD
ATOM     18  H   UNL     1      -8.358 -14.724   3.328  0.00  0.00    +0.000 HD
BRANCH  16  20
ATOM     19  O   UNL     1      -5.440 -13.874   2.353  0.00  0.00    +0.000 OA
ATOM     20  C   UNL     1      -6.660 -13.809   2.444  0.00  0.00    +0.000 C 
BRANCH  20  21
ATOM     21  O   UNL     1      -7.460 -13.348   1.451  0.00  0.00    +0.000 OA
ATOM     22  H   UNL     1      -8.327 -13.040   1.792  0.00  0.00    +0.000 HD
ENDBRANCH  20  21
ENDBRANCH  16  20
ENDBRANCH  13  16
ENDBRANCH  10  13
ENDBRANCH   7  10
ENDBRANCH   4   7
ENDBRANCH   1   4
BRANCH   1  23
ATOM     23  C   UNL     1     -10.036 -17.774   6.117  0.00  0.00    +0.000 C 
ATOM     24  H   UNL     1      -9.699 -18.096   7.110  0.00  0.00    +0.000 HD
ATOM     25  H   UNL     1      -9.530 -18.410   5.381  0.00  0.00    +0.000 HD
BRANCH  23  26
ATOM     26  C   UNL     1     -11.549 -17.967   6.008  0.00  0.00    +0.000 C 
ATOM     27  H   UNL     1     -11.765 -18.981   5.648  0.00  0.00    +0.000 HD
ATOM     28  H   UNL     1     -11.996 -17.885   7.006  0.00  0.00    +0.000 HD
BRANCH  26  29
ATOM     29  C   UNL     1     -12.227 -16.958   5.076  0.00  0.00    +0.000 C 
ATOM     30  H   UNL     1     -11.645 -16.027   5.082  0.00  0.00    +0.000 HD
ATOM     31  H   UNL     1     -12.179 -17.345   4.050  0.00  0.00    +0.000 HD
BRANCH  29  32
ATOM     32  C   UNL     1     -13.683 -16.620   5.406  0.00  0.00    +0.000 C 
ATOM     33  H   UNL     1     -14.336 -17.395   4.987  0.00  0.00    +0.000 HD
ATOM     34  H   UNL     1     -13.821 -16.644   6.494  0.00  0.00    +0.000 HD
BRANCH  32  35
ATOM     35  C   UNL     1     -14.127 -15.265   4.880  0.00  0.00    +0.000 C 
ATOM     36  H   UNL     1     -15.081 -15.345   4.351  0.00  0.00    +0.000 HD
ATOM     37  H   UNL     1     -14.248 -14.548   5.699  0.00  0.00    +0.000 HD
ATOM     38  H   UNL     1     -13.384 -14.864   4.184  0.00  0.00    +0.000 HD
ENDBRANCH  32  35
ENDBRANCH  29  32
ENDBRANCH  26  29
ENDBRANCH  23  26
ENDBRANCH   1  23
TORSDOF 12
ENDMDL
MODEL 9
REMARK VINA RESULT:    -4.363     31.117     33.223
REMARK INTER + INTRA:          -7.852
REMARK INTER:                  -7.168
REMARK INTRA:                  -0.684
REMARK UNBOUND:                -0.684
REMARK  Name = 3893
REMARK  12 active torsions:
REMARK  status: ('A' for Active; 'I' for Inactive)
REMARK    1  A    between atoms: O_1  and  C_14
REMARK    2  A    between atoms: C_3  and  C_4
REMARK    3  A    between atoms: C_3  and  C_5
REMARK    4  A    between atoms: C_4  and  C_6
REMARK    5  A    between atoms: C_5  and  C_7
REMARK    6  A    between atoms: C_6  and  C_8
REMARK    7  A    between atoms: C_7  and  C_9
REMARK    8  A    between atoms: C_8  and  C_10
REMARK    9  A    between atoms: C_9  and  C_11
REMARK   10  A    between atoms: C_10  and  C_12
REMARK   11  A    between atoms: C_11  and  C_13
REMARK   12  A    between atoms: C_12  and  C_14
REMARK                            x       y       z     vdW  Elec       q    Type
REMARK                         _______ _______ _______ _____ _____    ______ ____
ROOT
ATOM      1  C   UNL     1      -7.535 -14.875   6.269  0.00  0.00    +0.000 C 
ATOM      2  H   UNL     1      -6.644 -14.673   6.876  0.00  0.00    +0.000 HD
ATOM      3  H   UNL     1      -7.200 -15.405   5.369  0.00  0.00    +0.000 HD
ENDROOT
BRANCH   1   4
ATOM      4  C   UNL     1      -8.190 -13.551   5.866  0.00  0.00    +0.000 C 
ATOM      5  H   UNL     1      -9.269 -13.706   5.735  0.00  0.00    +0.000 HD
ATOM      6  H   UNL     1      -8.071 -12.828   6.681  0.00  0.00    +0.000 HD
BRANCH   4   7
ATOM      7  C   UNL     1      -7.614 -12.954   4.579  0.00  0.00    +0.000 C 
ATOM      8  H   UNL     1      -7.763 -11.867   4.592  0.00  0.00    +0.000 HD
ATOM      9  H   UNL     1      -8.178 -13.341   3.722  0.00  0.00    +0.000 HD
BRANCH   7  10
ATOM     10  C   UNL     1      -6.127 -13.258   4.381  0.00  0.00    +0.000 C 
ATOM     11  H   UNL     1      -5.838 -14.112   5.005  0.00  0.00    +0.000 HD
ATOM     12  H   UNL     1      -5.531 -12.399   4.709  0.00  0.00    +0.000 HD
BRANCH  10  13
ATOM     13  C   UNL     1      -5.818 -13.569   2.912  0.00  0.00    +0.000 C 
ATOM     14  H   UNL     1      -5.286 -14.528   2.850  0.00  0.00    +0.000 HD
ATOM     15  H   UNL     1      -5.137 -12.809   2.510  0.00  0.00    +0.000 HD
BRANCH  13  16
ATOM     16  C   UNL     1      -7.077 -13.630   2.051  0.00  0.00    +0.000 C 
ATOM     17  H   UNL     1      -7.750 -14.408   2.433  0.00  0.00    +0.000 HD
ATOM     18  H   UNL     1      -7.594 -12.666   2.087  0.00  0.00    +0.000 HD
BRANCH  16  20
ATOM     19  O   UNL     1      -6.104 -14.908   0.247  0.00  0.00    +0.000 OA
ATOM     20  C   UNL     1      -6.775 -13.949   0.609  0.00  0.00    +0.000 C 
BRANCH  20  21
ATOM     21  O   UNL     1      -7.334 -13.061  -0.250  0.00  0.00    +0.000 OA
ATOM     22  H   UNL     1      -8.000 -12.492   0.193  0.00  0.00    +0.000 HD
ENDBRANCH  20  21
ENDBRANCH  16  20
ENDBRANCH  13  16
ENDBRANCH  10  13
ENDBRANCH   7  10
ENDBRANCH   4   7
ENDBRANCH   1   4
BRANCH   1  23
ATOM     23  C   UNL     1      -8.507 -15.759   7.055  0.00  0.00    +0.000 C 
ATOM     24  H   UNL     1      -9.479 -15.258   7.132  0.00  0.00    +0.000 HD
ATOM     25  H   UNL     1      -8.134 -15.901   8.077  0.00  0.00    +0.000 HD
BRANCH  23  26
ATOM     26  C   UNL     1      -8.688 -17.119   6.381  0.00  0.00    +0.000 C 
ATOM     27  H   UNL     1      -7.706 -17.536   6.127  0.00  0.00    +0.000 HD
ATOM     28  H   UNL     1      -9.152 -17.814   7.091  0.00  0.00    +0.000 HD
BRANCH  26  29
ATOM     29  C   UNL     1      -9.543 -17.061   5.111  0.00  0.00    +0.000 C 
ATOM     30  H   UNL     1      -9.302 -16.139   4.566  0.00  0.00    +0.000 HD
ATOM     31  H   UNL     1      -9.250 -17.891   4.456  0.00  0.00    +0.000 HD
BRANCH  29  32
ATOM     32  C   UNL     1     -11.058 -17.114   5.326  0.00  0.00    +0.000 C 
ATOM     33  H   UNL     1     -11.382 -16.194   5.826  0.00  0.00    +0.000 HD
ATOM     34  H   UNL     1     -11.560 -17.139   4.351  0.00  0.00    +0.000 HD
BRANCH  32  35
ATOM     35  C   UNL     1     -11.514 -18.308   6.148  0.00  0.00    +0.000 C 
ATOM     36  H   UNL     1     -10.688 -18.712   6.742  0.00  0.00    +0.000 HD
ATOM     37  H   UNL     1     -12.322 -18.027   6.831  0.00  0.00    +0.000 HD
ATOM     38  H   UNL     1     -11.884 -19.103   5.493  0.00  0.00    +0.000 HD
ENDBRANCH  32  35
ENDBRANCH  29  32
ENDBRANCH  26  29
ENDBRANCH  23  26
ENDBRANCH   1  23
TORSDOF 12
ENDMDL
MODEL 10
REMARK VINA RESULT:    -4.276     45.796     47.273
REMARK INTER + INTRA:          -7.710
REMARK INTER:                  -6.802
REMARK INTRA:                  -0.909
REMARK UNBOUND:                -0.684
REMARK  Name = 3893
REMARK  12 active torsions:
REMARK  status: ('A' for Active; 'I' for Inactive)
REMARK    1  A    between atoms: O_1  and  C_14
REMARK    2  A    between atoms: C_3  and  C_4
REMARK    3  A    between atoms: C_3  and  C_5
REMARK    4  A    between atoms: C_4  and  C_6
REMARK    5  A    between atoms: C_5  and  C_7
REMARK    6  A    between atoms: C_6  and  C_8
REMARK    7  A    between atoms: C_7  and  C_9
REMARK    8  A    between atoms: C_8  and  C_10
REMARK    9  A    between atoms: C_9  and  C_11
REMARK   10  A    between atoms: C_10  and  C_12
REMARK   11  A    between atoms: C_11  and  C_13
REMARK   12  A    between atoms: C_12  and  C_14
REMARK                            x       y       z     vdW  Elec       q    Type
REMARK                         _______ _______ _______ _____ _____    ______ ____
ROOT
ATOM      1  C   UNL     1      -0.661   6.348  26.047  0.00  0.00    +0.000 C 
ATOM      2  H   UNL     1      -0.184   7.260  25.667  0.00  0.00    +0.000 HD
ATOM      3  H   UNL     1      -0.186   5.498  25.542  0.00  0.00    +0.000 HD
ENDROOT
BRANCH   1   4
ATOM      4  C   UNL     1      -2.154   6.372  25.708  0.00  0.00    +0.000 C 
ATOM      5  H   UNL     1      -2.724   5.965  26.552  0.00  0.00    +0.000 HD
ATOM      6  H   UNL     1      -2.477   7.412  25.581  0.00  0.00    +0.000 HD
BRANCH   4   7
ATOM      7  C   UNL     1      -2.503   5.581  24.444  0.00  0.00    +0.000 C 
ATOM      8  H   UNL     1      -1.606   5.060  24.088  0.00  0.00    +0.000 HD
ATOM      9  H   UNL     1      -2.797   6.283  23.654  0.00  0.00    +0.000 HD
BRANCH   7  10
ATOM     10  C   UNL     1      -3.628   4.564  24.656  0.00  0.00    +0.000 C 
ATOM     11  H   UNL     1      -3.218   3.548  24.617  0.00  0.00    +0.000 HD
ATOM     12  H   UNL     1      -4.358   4.652  23.844  0.00  0.00    +0.000 HD
BRANCH  10  13
ATOM     13  C   UNL     1      -4.324   4.785  26.004  0.00  0.00    +0.000 C 
ATOM     14  H   UNL     1      -3.998   5.745  26.426  0.00  0.00    +0.000 HD
ATOM     15  H   UNL     1      -4.008   4.010  26.712  0.00  0.00    +0.000 HD
BRANCH  13  16
ATOM     16  C   UNL     1      -5.846   4.775  25.883  0.00  0.00    +0.000 C 
ATOM     17  H   UNL     1      -6.175   5.624  25.272  0.00  0.00    +0.000 HD
ATOM     18  H   UNL     1      -6.170   3.846  25.402  0.00  0.00    +0.000 HD
BRANCH  16  20
ATOM     19  O   UNL     1      -7.064   5.896  27.641  0.00  0.00    +0.000 OA
ATOM     20  C   UNL     1      -6.532   4.876  27.221  0.00  0.00    +0.000 C 
BRANCH  20  21
ATOM     21  O   UNL     1      -6.503   3.710  27.913  0.00  0.00    +0.000 OA
ATOM     22  H   UNL     1      -6.505   3.859  28.883  0.00  0.00    +0.000 HD
ENDBRANCH  20  21
ENDBRANCH  16  20
ENDBRANCH  13  16
ENDBRANCH  10  13
ENDBRANCH   7  10
ENDBRANCH   4   7
ENDBRANCH   1   4
BRANCH   1  23
ATOM     23  C   UNL     1      -0.437   6.241  27.558  0.00  0.00    +0.000 C 
ATOM     24  H   UNL     1      -0.111   7.211  27.952  0.00  0.00    +0.000 HD
ATOM     25  H   UNL     1       0.366   5.522  27.763  0.00  0.00    +0.000 HD
BRANCH  23  26
ATOM     26  C   UNL     1      -1.714   5.803  28.277  0.00  0.00    +0.000 C 
ATOM     27  H   UNL     1      -1.903   6.471  29.127  0.00  0.00    +0.000 HD
ATOM     28  H   UNL     1      -2.566   5.910  27.595  0.00  0.00    +0.000 HD
BRANCH  26  29
ATOM     29  C   UNL     1      -1.662   4.359  28.786  0.00  0.00    +0.000 C 
ATOM     30  H   UNL     1      -2.051   4.333  29.812  0.00  0.00    +0.000 HD
ATOM     31  H   UNL     1      -2.348   3.753  28.181  0.00  0.00    +0.000 HD
BRANCH  29  32
ATOM     32  C   UNL     1      -0.281   3.699  28.775  0.00  0.00    +0.000 C 
ATOM     33  H   UNL     1      -0.308   2.818  28.122  0.00  0.00    +0.000 HD
ATOM     34  H   UNL     1       0.448   4.393  28.339  0.00  0.00    +0.000 HD
BRANCH  32  35
ATOM     35  C   UNL     1       0.201   3.275  30.152  0.00  0.00    +0.000 C 
ATOM     36  H   UNL     1      -0.644   3.050  30.810  0.00  0.00    +0.000 HD
ATOM     37  H   UNL     1       0.833   2.383  30.088  0.00  0.00    +0.000 HD
ATOM     38  H   UNL     1       0.789   4.075  30.614  0.00  0.00    +0.000 HD
ENDBRANCH  32  35
ENDBRANCH  29  32
ENDBRANCH  26  29
ENDBRANCH  23  26
ENDBRANCH   1  23
TORSDOF 12
ENDMDL
