MODEL 1
REMARK VINA RESULT:    -5.676      0.000      0.000
REMARK INTER + INTRA:          -9.967
REMARK INTER:                  -9.406
REMARK INTRA:                  -0.560
REMARK UNBOUND:                -0.807
REMARK  Name = 8194
REMARK  11 active torsions:
REMARK  status: ('A' for Active; 'I' for Inactive)
REMARK    1  A    between atoms: C_2  and  C_3
REMARK    2  A    between atoms: C_2  and  C_4
REMARK    3  A    between atoms: C_3  and  C_5
REMARK    4  A    between atoms: C_4  and  C_6
REMARK    5  A    between atoms: C_5  and  C_7
REMARK    6  A    between atoms: C_6  and  C_8
REMARK    7  A    between atoms: C_7  and  C_9
REMARK    8  A    between atoms: C_8  and  C_10
REMARK    9  A    between atoms: C_9  and  C_11
REMARK   10  A    between atoms: C_10  and  C_12
REMARK   11  A    between atoms: C_11  and  C_13
REMARK                            x       y       z     vdW  Elec       q    Type
REMARK                         _______ _______ _______ _____ _____    ______ ____
ROOT
ATOM      1  C   UNL     1       2.265  -5.932  -7.646  0.00  0.00    +0.000 C 
ATOM      2  H   UNL     1       2.764  -5.066  -8.099  0.00  0.00    +0.000 HD
ATOM      3  H   UNL     1       1.197  -5.825  -7.872  0.00  0.00    +0.000 HD
ENDROOT
BRANCH   1   4
ATOM      4  C   UNL     1       2.448  -5.867  -6.127  0.00  0.00    +0.000 C 
ATOM      5  H   UNL     1       3.283  -5.192  -5.898  0.00  0.00    +0.000 HD
ATOM      6  H   UNL     1       2.736  -6.860  -5.762  0.00  0.00    +0.000 HD
BRANCH   4   7
ATOM      7  C   UNL     1       1.196  -5.400  -5.381  0.00  0.00    +0.000 C 
ATOM      8  H   UNL     1       1.130  -5.915  -4.416  0.00  0.00    +0.000 HD
ATOM      9  H   UNL     1       1.277  -4.327  -5.172  0.00  0.00    +0.000 HD
BRANCH   7  10
ATOM     10  C   UNL     1      -0.069  -5.671  -6.200  0.00  0.00    +0.000 C 
ATOM     11  H   UNL     1       0.087  -5.358  -7.239  0.00  0.00    +0.000 HD
ATOM     12  H   UNL     1      -0.274  -6.748  -6.212  0.00  0.00    +0.000 HD
BRANCH  10  13
ATOM     13  C   UNL     1      -1.275  -4.925  -5.620  0.00  0.00    +0.000 C 
ATOM     14  H   UNL     1      -1.059  -4.637  -4.583  0.00  0.00    +0.000 HD
ATOM     15  H   UNL     1      -2.134  -5.608  -5.581  0.00  0.00    +0.000 HD
BRANCH  13  16
ATOM     16  C   UNL     1      -1.647  -3.685  -6.426  0.00  0.00    +0.000 C 
ATOM     17  H   UNL     1      -2.666  -3.772  -6.819  0.00  0.00    +0.000 HD
ATOM     18  H   UNL     1      -1.594  -2.791  -5.798  0.00  0.00    +0.000 HD
BRANCH  16  20
ATOM     19  O   UNL     1       0.007  -2.493  -7.711  0.00  0.00    +0.000 OA
ATOM     20  C   UNL     1      -0.716  -3.478  -7.593  0.00  0.00    +0.000 C 
ATOM     21  H   UNL     1      -0.710  -4.282  -8.347  0.00  0.00    +0.000 HD
ENDBRANCH  16  20
ENDBRANCH  13  16
ENDBRANCH  10  13
ENDBRANCH   7  10
ENDBRANCH   4   7
ENDBRANCH   1   4
BRANCH   1  22
ATOM     22  C   UNL     1       2.779  -7.206  -8.326  0.00  0.00    +0.000 C 
ATOM     23  H   UNL     1       2.204  -7.380  -9.243  0.00  0.00    +0.000 HD
ATOM     24  H   UNL     1       2.589  -8.063  -7.666  0.00  0.00    +0.000 HD
BRANCH  22  25
ATOM     25  C   UNL     1       4.269  -7.151  -8.670  0.00  0.00    +0.000 C 
ATOM     26  H   UNL     1       4.837  -6.879  -7.771  0.00  0.00    +0.000 HD
ATOM     27  H   UNL     1       4.606  -8.151  -8.969  0.00  0.00    +0.000 HD
BRANCH  25  28
ATOM     28  C   UNL     1       4.596  -6.155  -9.788  0.00  0.00    +0.000 C 
ATOM     29  H   UNL     1       4.017  -5.238  -9.631  0.00  0.00    +0.000 HD
ATOM     30  H   UNL     1       4.267  -6.576 -10.747  0.00  0.00    +0.000 HD
BRANCH  28  31
ATOM     31  C   UNL     1       6.082  -5.808  -9.874  0.00  0.00    +0.000 C 
ATOM     32  H   UNL     1       6.203  -4.730 -10.033  0.00  0.00    +0.000 HD
ATOM     33  H   UNL     1       6.532  -6.317 -10.735  0.00  0.00    +0.000 HD
BRANCH  31  34
ATOM     34  C   UNL     1       6.820  -6.214  -8.607  0.00  0.00    +0.000 C 
ATOM     35  H   UNL     1       7.752  -5.651  -8.500  0.00  0.00    +0.000 HD
ATOM     36  H   UNL     1       7.062  -7.280  -8.619  0.00  0.00    +0.000 HD
ATOM     37  H   UNL     1       6.200  -6.016  -7.728  0.00  0.00    +0.000 HD
ENDBRANCH  31  34
ENDBRANCH  28  31
ENDBRANCH  25  28
ENDBRANCH  22  25
ENDBRANCH   1  22
TORSDOF 11
ENDMDL
MODEL 2
REMARK VINA RESULT:    -5.278      1.790      2.489
REMARK INTER + INTRA:          -9.325
REMARK INTER:                  -8.649
REMARK INTRA:                  -0.676
REMARK UNBOUND:                -0.807
REMARK  Name = 8194
REMARK  11 active torsions:
REMARK  status: ('A' for Active; 'I' for Inactive)
REMARK    1  A    between atoms: C_2  and  C_3
REMARK    2  A    between atoms: C_2  and  C_4
REMARK    3  A    between atoms: C_3  and  C_5
REMARK    4  A    between atoms: C_4  and  C_6
REMARK    5  A    between atoms: C_5  and  C_7
REMARK    6  A    between atoms: C_6  and  C_8
REMARK    7  A    between atoms: C_7  and  C_9
REMARK    8  A    between atoms: C_8  and  C_10
REMARK    9  A    between atoms: C_9  and  C_11
REMARK   10  A    between atoms: C_10  and  C_12
REMARK   11  A    between atoms: C_11  and  C_13
REMARK                            x       y       z     vdW  Elec       q    Type
REMARK                         _______ _______ _______ _____ _____    ______ ____
ROOT
ATOM      1  C   UNL     1       2.503  -6.373  -8.092  0.00  0.00    +0.000 C 
ATOM      2  H   UNL     1       2.286  -5.592  -8.831  0.00  0.00    +0.000 HD
ATOM      3  H   UNL     1       1.883  -7.237  -8.364  0.00  0.00    +0.000 HD
ENDROOT
BRANCH   1   4
ATOM      4  C   UNL     1       2.063  -5.880  -6.710  0.00  0.00    +0.000 C 
ATOM      5  H   UNL     1       2.941  -5.837  -6.053  0.00  0.00    +0.000 HD
ATOM      6  H   UNL     1       1.377  -6.615  -6.272  0.00  0.00    +0.000 HD
BRANCH   4   7
ATOM      7  C   UNL     1       1.382  -4.510  -6.740  0.00  0.00    +0.000 C 
ATOM      8  H   UNL     1       0.786  -4.376  -5.830  0.00  0.00    +0.000 HD
ATOM      9  H   UNL     1       2.146  -3.723  -6.747  0.00  0.00    +0.000 HD
BRANCH   7  10
ATOM     10  C   UNL     1       0.484  -4.366  -7.972  0.00  0.00    +0.000 C 
ATOM     11  H   UNL     1       0.604  -5.239  -8.624  0.00  0.00    +0.000 HD
ATOM     12  H   UNL     1      -0.566  -4.336  -7.659  0.00  0.00    +0.000 HD
BRANCH  10  13
ATOM     13  C   UNL     1       0.821  -3.095  -8.758  0.00  0.00    +0.000 C 
ATOM     14  H   UNL     1       0.666  -3.278  -9.829  0.00  0.00    +0.000 HD
ATOM     15  H   UNL     1       1.888  -2.869  -8.633  0.00  0.00    +0.000 HD
BRANCH  13  16
ATOM     16  C   UNL     1      -0.008  -1.891  -8.321  0.00  0.00    +0.000 C 
ATOM     17  H   UNL     1      -0.519  -1.443  -9.179  0.00  0.00    +0.000 HD
ATOM     18  H   UNL     1      -0.762  -2.193  -7.588  0.00  0.00    +0.000 HD
BRANCH  16  20
ATOM     19  O   UNL     1       1.525  -0.031  -8.325  0.00  0.00    +0.000 OA
ATOM     20  C   UNL     1       0.848  -0.827  -7.682  0.00  0.00    +0.000 C 
ATOM     21  H   UNL     1       0.824  -0.795  -6.580  0.00  0.00    +0.000 HD
ENDBRANCH  16  20
ENDBRANCH  13  16
ENDBRANCH  10  13
ENDBRANCH   7  10
ENDBRANCH   4   7
ENDBRANCH   1   4
BRANCH   1  22
ATOM     22  C   UNL     1       3.976  -6.776  -8.218  0.00  0.00    +0.000 C 
ATOM     23  H   UNL     1       4.118  -7.766  -7.768  0.00  0.00    +0.000 HD
ATOM     24  H   UNL     1       4.589  -6.074  -7.637  0.00  0.00    +0.000 HD
BRANCH  22  25
ATOM     25  C   UNL     1       4.474  -6.806  -9.665  0.00  0.00    +0.000 C 
ATOM     26  H   UNL     1       4.889  -7.798  -9.884  0.00  0.00    +0.000 HD
ATOM     27  H   UNL     1       3.622  -6.663 -10.341  0.00  0.00    +0.000 HD
BRANCH  25  28
ATOM     28  C   UNL     1       5.535  -5.742  -9.963  0.00  0.00    +0.000 C 
ATOM     29  H   UNL     1       6.504  -6.234 -10.109  0.00  0.00    +0.000 HD
ATOM     30  H   UNL     1       5.641  -5.089  -9.088  0.00  0.00    +0.000 HD
BRANCH  28  31
ATOM     31  C   UNL     1       5.211  -4.890 -11.191  0.00  0.00    +0.000 C 
ATOM     32  H   UNL     1       5.467  -5.441 -12.103  0.00  0.00    +0.000 HD
ATOM     33  H   UNL     1       5.820  -3.978 -11.180  0.00  0.00    +0.000 HD
BRANCH  31  34
ATOM     34  C   UNL     1       3.738  -4.512 -11.230  0.00  0.00    +0.000 C 
ATOM     35  H   UNL     1       3.554  -3.728 -11.970  0.00  0.00    +0.000 HD
ATOM     36  H   UNL     1       3.400  -4.150 -10.254  0.00  0.00    +0.000 HD
ATOM     37  H   UNL     1       3.131  -5.383 -11.498  0.00  0.00    +0.000 HD
ENDBRANCH  31  34
ENDBRANCH  28  31
ENDBRANCH  25  28
ENDBRANCH  22  25
ENDBRANCH   1  22
TORSDOF 11
ENDMDL
MODEL 3
REMARK VINA RESULT:    -4.804      3.036      6.900
REMARK INTER + INTRA:          -8.560
REMARK INTER:                  -8.110
REMARK INTRA:                  -0.450
REMARK UNBOUND:                -0.807
REMARK  Name = 8194
REMARK  11 active torsions:
REMARK  status: ('A' for Active; 'I' for Inactive)
REMARK    1  A    between atoms: C_2  and  C_3
REMARK    2  A    between atoms: C_2  and  C_4
REMARK    3  A    between atoms: C_3  and  C_5
REMARK    4  A    between atoms: C_4  and  C_6
REMARK    5  A    between atoms: C_5  and  C_7
REMARK    6  A    between atoms: C_6  and  C_8
REMARK    7  A    between atoms: C_7  and  C_9
REMARK    8  A    between atoms: C_8  and  C_10
REMARK    9  A    between atoms: C_9  and  C_11
REMARK   10  A    between atoms: C_10  and  C_12
REMARK   11  A    between atoms: C_11  and  C_13
REMARK                            x       y       z     vdW  Elec       q    Type
REMARK                         _______ _______ _______ _____ _____    ______ ____
ROOT
ATOM      1  C   UNL     1       2.594  -3.482 -10.310  0.00  0.00    +0.000 C 
ATOM      2  H   UNL     1       2.593  -2.410 -10.544  0.00  0.00    +0.000 HD
ATOM      3  H   UNL     1       3.300  -3.617  -9.480  0.00  0.00    +0.000 HD
ENDROOT
BRANCH   1   4
ATOM      4  C   UNL     1       3.121  -4.251 -11.524  0.00  0.00    +0.000 C 
ATOM      5  H   UNL     1       3.013  -3.623 -12.417  0.00  0.00    +0.000 HD
ATOM      6  H   UNL     1       2.493  -5.137 -11.683  0.00  0.00    +0.000 HD
BRANCH   4   7
ATOM      7  C   UNL     1       4.581  -4.688 -11.383  0.00  0.00    +0.000 C 
ATOM      8  H   UNL     1       4.960  -5.022 -12.355  0.00  0.00    +0.000 HD
ATOM      9  H   UNL     1       5.190  -3.830 -11.074  0.00  0.00    +0.000 HD
BRANCH   7  10
ATOM     10  C   UNL     1       4.724  -5.816 -10.357  0.00  0.00    +0.000 C 
ATOM     11  H   UNL     1       3.923  -5.745  -9.612  0.00  0.00    +0.000 HD
ATOM     12  H   UNL     1       4.617  -6.784 -10.858  0.00  0.00    +0.000 HD
BRANCH  10  13
ATOM     13  C   UNL     1       6.081  -5.753  -9.650  0.00  0.00    +0.000 C 
ATOM     14  H   UNL     1       5.930  -5.483  -8.596  0.00  0.00    +0.000 HD
ATOM     15  H   UNL     1       6.680  -4.947 -10.093  0.00  0.00    +0.000 HD
BRANCH  13  16
ATOM     16  C   UNL     1       6.854  -7.065  -9.734  0.00  0.00    +0.000 C 
ATOM     17  H   UNL     1       7.318  -7.178 -10.719  0.00  0.00    +0.000 HD
ATOM     18  H   UNL     1       7.643  -7.093  -8.976  0.00  0.00    +0.000 HD
BRANCH  16  20
ATOM     19  O   UNL     1       5.680  -8.682  -8.386  0.00  0.00    +0.000 OA
ATOM     20  C   UNL     1       5.959  -8.255  -9.502  0.00  0.00    +0.000 C 
ATOM     21  H   UNL     1       5.550  -8.727 -10.411  0.00  0.00    +0.000 HD
ENDBRANCH  16  20
ENDBRANCH  13  16
ENDBRANCH  10  13
ENDBRANCH   7  10
ENDBRANCH   4   7
ENDBRANCH   1   4
BRANCH   1  22
ATOM     22  C   UNL     1       1.196  -3.880  -9.825  0.00  0.00    +0.000 C 
ATOM     23  H   UNL     1       0.785  -4.641 -10.499  0.00  0.00    +0.000 HD
ATOM     24  H   UNL     1       0.533  -3.008  -9.892  0.00  0.00    +0.000 HD
BRANCH  22  25
ATOM     25  C   UNL     1       1.183  -4.419  -8.392  0.00  0.00    +0.000 C 
ATOM     26  H   UNL     1       2.024  -5.111  -8.259  0.00  0.00    +0.000 HD
ATOM     27  H   UNL     1       1.342  -3.587  -7.694  0.00  0.00    +0.000 HD
BRANCH  25  28
ATOM     28  C   UNL     1      -0.120  -5.138  -8.027  0.00  0.00    +0.000 C 
ATOM     29  H   UNL     1      -0.379  -5.839  -8.829  0.00  0.00    +0.000 HD
ATOM     30  H   UNL     1      -0.932  -4.401  -7.977  0.00  0.00    +0.000 HD
BRANCH  28  31
ATOM     31  C   UNL     1      -0.044  -5.893  -6.699  0.00  0.00    +0.000 C 
ATOM     32  H   UNL     1       0.974  -5.834  -6.296  0.00  0.00    +0.000 HD
ATOM     33  H   UNL     1      -0.269  -6.954  -6.863  0.00  0.00    +0.000 HD
BRANCH  31  34
ATOM     34  C   UNL     1      -1.020  -5.323  -5.681  0.00  0.00    +0.000 C 
ATOM     35  H   UNL     1      -1.203  -4.260  -5.866  0.00  0.00    +0.000 HD
ATOM     36  H   UNL     1      -0.635  -5.434  -4.663  0.00  0.00    +0.000 HD
ATOM     37  H   UNL     1      -1.979  -5.848  -5.741  0.00  0.00    +0.000 HD
ENDBRANCH  31  34
ENDBRANCH  28  31
ENDBRANCH  25  28
ENDBRANCH  22  25
ENDBRANCH   1  22
TORSDOF 11
ENDMDL
MODEL 4
REMARK VINA RESULT:    -4.458     15.273     17.535
REMARK INTER + INTRA:          -8.002
REMARK INTER:                  -6.746
REMARK INTRA:                  -1.256
REMARK UNBOUND:                -0.807
REMARK  Name = 8194
REMARK  11 active torsions:
REMARK  status: ('A' for Active; 'I' for Inactive)
REMARK    1  A    between atoms: C_2  and  C_3
REMARK    2  A    between atoms: C_2  and  C_4
REMARK    3  A    between atoms: C_3  and  C_5
REMARK    4  A    between atoms: C_4  and  C_6
REMARK    5  A    between atoms: C_5  and  C_7
REMARK    6  A    between atoms: C_6  and  C_8
REMARK    7  A    between atoms: C_7  and  C_9
REMARK    8  A    between atoms: C_8  and  C_10
REMARK    9  A    between atoms: C_9  and  C_11
REMARK   10  A    between atoms: C_10  and  C_12
REMARK   11  A    between atoms: C_11  and  C_13
REMARK                            x       y       z     vdW  Elec       q    Type
REMARK                         _______ _______ _______ _____ _____    ______ ____
ROOT
ATOM      1  C   UNL     1      15.337  -6.315  -2.185  0.00  0.00    +0.000 C 
ATOM      2  H   UNL     1      15.962  -7.002  -2.768  0.00  0.00    +0.000 HD
ATOM      3  H   UNL     1      14.318  -6.412  -2.581  0.00  0.00    +0.000 HD
ENDROOT
BRANCH   1   4
ATOM      4  C   UNL     1      15.818  -4.882  -2.431  0.00  0.00    +0.000 C 
ATOM      5  H   UNL     1      15.876  -4.356  -1.470  0.00  0.00    +0.000 HD
ATOM      6  H   UNL     1      15.068  -4.355  -3.034  0.00  0.00    +0.000 HD
BRANCH   4   7
ATOM      7  C   UNL     1      17.174  -4.806  -3.136  0.00  0.00    +0.000 C 
ATOM      8  H   UNL     1      17.203  -3.921  -3.782  0.00  0.00    +0.000 HD
ATOM      9  H   UNL     1      17.967  -4.688  -2.388  0.00  0.00    +0.000 HD
BRANCH   7  10
ATOM     10  C   UNL     1      17.436  -6.064  -3.969  0.00  0.00    +0.000 C 
ATOM     11  H   UNL     1      17.083  -6.949  -3.427  0.00  0.00    +0.000 HD
ATOM     12  H   UNL     1      16.868  -6.009  -4.905  0.00  0.00    +0.000 HD
BRANCH  10  13
ATOM     13  C   UNL     1      18.927  -6.221  -4.282  0.00  0.00    +0.000 C 
ATOM     14  H   UNL     1      19.054  -6.425  -5.353  0.00  0.00    +0.000 HD
ATOM     15  H   UNL     1      19.314  -7.100  -3.751  0.00  0.00    +0.000 HD
BRANCH  13  16
ATOM     16  C   UNL     1      19.745  -4.993  -3.897  0.00  0.00    +0.000 C 
ATOM     17  H   UNL     1      19.540  -4.162  -4.579  0.00  0.00    +0.000 HD
ATOM     18  H   UNL     1      19.499  -4.674  -2.879  0.00  0.00    +0.000 HD
BRANCH  16  20
ATOM     19  O   UNL     1      21.787  -5.788  -4.903  0.00  0.00    +0.000 OA
ATOM     20  C   UNL     1      21.226  -5.273  -3.940  0.00  0.00    +0.000 C 
ATOM     21  H   UNL     1      21.793  -4.975  -3.042  0.00  0.00    +0.000 HD
ENDBRANCH  16  20
ENDBRANCH  13  16
ENDBRANCH  10  13
ENDBRANCH   7  10
ENDBRANCH   4   7
ENDBRANCH   1   4
BRANCH   1  22
ATOM     22  C   UNL     1      15.333  -6.774  -0.722  0.00  0.00    +0.000 C 
ATOM     23  H   UNL     1      15.917  -7.698  -0.635  0.00  0.00    +0.000 HD
ATOM     24  H   UNL     1      14.305  -7.021  -0.429  0.00  0.00    +0.000 HD
BRANCH  22  25
ATOM     25  C   UNL     1      15.900  -5.729   0.241  0.00  0.00    +0.000 C 
ATOM     26  H   UNL     1      16.043  -4.783  -0.295  0.00  0.00    +0.000 HD
ATOM     27  H   UNL     1      15.167  -5.537   1.034  0.00  0.00    +0.000 HD
BRANCH  25  28
ATOM     28  C   UNL     1      17.230  -6.150   0.878  0.00  0.00    +0.000 C 
ATOM     29  H   UNL     1      17.056  -6.410   1.929  0.00  0.00    +0.000 HD
ATOM     30  H   UNL     1      17.913  -5.292   0.874  0.00  0.00    +0.000 HD
BRANCH  28  31
ATOM     31  C   UNL     1      17.896  -7.328   0.167  0.00  0.00    +0.000 C 
ATOM     32  H   UNL     1      17.169  -7.829  -0.482  0.00  0.00    +0.000 HD
ATOM     33  H   UNL     1      18.234  -8.064   0.907  0.00  0.00    +0.000 HD
BRANCH  31  34
ATOM     34  C   UNL     1      19.083  -6.871  -0.668  0.00  0.00    +0.000 C 
ATOM     35  H   UNL     1      18.925  -5.859  -1.053  0.00  0.00    +0.000 HD
ATOM     36  H   UNL     1      19.245  -7.541  -1.518  0.00  0.00    +0.000 HD
ATOM     37  H   UNL     1      19.993  -6.867  -0.061  0.00  0.00    +0.000 HD
ENDBRANCH  31  34
ENDBRANCH  28  31
ENDBRANCH  25  28
ENDBRANCH  22  25
ENDBRANCH   1  22
TORSDOF 11
ENDMDL
MODEL 5
REMARK VINA RESULT:    -4.429     15.136     17.093
REMARK INTER + INTRA:          -7.954
REMARK INTER:                  -7.201
REMARK INTRA:                  -0.753
REMARK UNBOUND:                -0.807
REMARK  Name = 8194
REMARK  11 active torsions:
REMARK  status: ('A' for Active; 'I' for Inactive)
REMARK    1  A    between atoms: C_2  and  C_3
REMARK    2  A    between atoms: C_2  and  C_4
REMARK    3  A    between atoms: C_3  and  C_5
REMARK    4  A    between atoms: C_4  and  C_6
REMARK    5  A    between atoms: C_5  and  C_7
REMARK    6  A    between atoms: C_6  and  C_8
REMARK    7  A    between atoms: C_7  and  C_9
REMARK    8  A    between atoms: C_8  and  C_10
REMARK    9  A    between atoms: C_9  and  C_11
REMARK   10  A    between atoms: C_10  and  C_12
REMARK   11  A    between atoms: C_11  and  C_13
REMARK                            x       y       z     vdW  Elec       q    Type
REMARK                         _______ _______ _______ _____ _____    ______ ____
ROOT
ATOM      1  C   UNL     1      -7.047 -13.647   2.778  0.00  0.00    +0.000 C 
ATOM      2  H   UNL     1      -7.453 -12.838   2.159  0.00  0.00    +0.000 HD
ATOM      3  H   UNL     1      -7.830 -14.414   2.837  0.00  0.00    +0.000 HD
ENDROOT
BRANCH   1   4
ATOM      4  C   UNL     1      -6.792 -13.108   4.189  0.00  0.00    +0.000 C 
ATOM      5  H   UNL     1      -6.346 -12.108   4.111  0.00  0.00    +0.000 HD
ATOM      6  H   UNL     1      -6.050 -13.747   4.684  0.00  0.00    +0.000 HD
BRANCH   4   7
ATOM      7  C   UNL     1      -8.053 -13.037   5.052  0.00  0.00    +0.000 C 
ATOM      8  H   UNL     1      -8.446 -12.014   5.046  0.00  0.00    +0.000 HD
ATOM      9  H   UNL     1      -8.827 -13.684   4.621  0.00  0.00    +0.000 HD
BRANCH   7  10
ATOM     10  C   UNL     1      -7.763 -13.471   6.492  0.00  0.00    +0.000 C 
ATOM     11  H   UNL     1      -6.762 -13.135   6.787  0.00  0.00    +0.000 HD
ATOM     12  H   UNL     1      -8.479 -12.993   7.171  0.00  0.00    +0.000 HD
BRANCH  10  13
ATOM     13  C   UNL     1      -7.853 -14.993   6.640  0.00  0.00    +0.000 C 
ATOM     14  H   UNL     1      -8.024 -15.245   7.695  0.00  0.00    +0.000 HD
ATOM     15  H   UNL     1      -6.887 -15.438   6.368  0.00  0.00    +0.000 HD
BRANCH  13  16
ATOM     16  C   UNL     1      -8.955 -15.608   5.784  0.00  0.00    +0.000 C 
ATOM     17  H   UNL     1      -9.748 -16.023   6.414  0.00  0.00    +0.000 HD
ATOM     18  H   UNL     1      -9.396 -14.851   5.128  0.00  0.00    +0.000 HD
BRANCH  16  20
ATOM     19  O   UNL     1      -7.241 -16.847   4.628  0.00  0.00    +0.000 OA
ATOM     20  C   UNL     1      -8.428 -16.716   4.908  0.00  0.00    +0.000 C 
ATOM     21  H   UNL     1      -9.184 -17.427   4.533  0.00  0.00    +0.000 HD
ENDBRANCH  16  20
ENDBRANCH  13  16
ENDBRANCH  10  13
ENDBRANCH   7  10
ENDBRANCH   4   7
ENDBRANCH   1   4
BRANCH   1  22
ATOM     22  C   UNL     1      -5.831 -14.250   2.066  0.00  0.00    +0.000 C 
ATOM     23  H   UNL     1      -5.596 -13.644   1.183  0.00  0.00    +0.000 HD
ATOM     24  H   UNL     1      -6.092 -15.252   1.701  0.00  0.00    +0.000 HD
BRANCH  22  25
ATOM     25  C   UNL     1      -4.591 -14.341   2.957  0.00  0.00    +0.000 C 
ATOM     26  H   UNL     1      -4.135 -13.347   3.045  0.00  0.00    +0.000 HD
ATOM     27  H   UNL     1      -4.896 -14.641   3.968  0.00  0.00    +0.000 HD
BRANCH  25  28
ATOM     28  C   UNL     1      -3.542 -15.329   2.437  0.00  0.00    +0.000 C 
ATOM     29  H   UNL     1      -4.025 -16.038   1.754  0.00  0.00    +0.000 HD
ATOM     30  H   UNL     1      -3.156 -15.916   3.280  0.00  0.00    +0.000 HD
BRANCH  28  31
ATOM     31  C   UNL     1      -2.374 -14.651   1.719  0.00  0.00    +0.000 C 
ATOM     32  H   UNL     1      -1.473 -14.707   2.340  0.00  0.00    +0.000 HD
ATOM     33  H   UNL     1      -2.600 -13.589   1.566  0.00  0.00    +0.000 HD
BRANCH  31  34
ATOM     34  C   UNL     1      -2.096 -15.306   0.374  0.00  0.00    +0.000 C 
ATOM     35  H   UNL     1      -2.209 -14.586  -0.443  0.00  0.00    +0.000 HD
ATOM     36  H   UNL     1      -2.781 -16.139   0.194  0.00  0.00    +0.000 HD
ATOM     37  H   UNL     1      -1.073 -15.694   0.346  0.00  0.00    +0.000 HD
ENDBRANCH  31  34
ENDBRANCH  28  31
ENDBRANCH  25  28
ENDBRANCH  22  25
ENDBRANCH   1  22
TORSDOF 11
ENDMDL
MODEL 6
REMARK VINA RESULT:    -4.427     15.009     15.972
REMARK INTER + INTRA:          -7.952
REMARK INTER:                  -7.320
REMARK INTRA:                  -0.632
REMARK UNBOUND:                -0.807
REMARK  Name = 8194
REMARK  11 active torsions:
REMARK  status: ('A' for Active; 'I' for Inactive)
REMARK    1  A    between atoms: C_2  and  C_3
REMARK    2  A    between atoms: C_2  and  C_4
REMARK    3  A    between atoms: C_3  and  C_5
REMARK    4  A    between atoms: C_4  and  C_6
REMARK    5  A    between atoms: C_5  and  C_7
REMARK    6  A    between atoms: C_6  and  C_8
REMARK    7  A    between atoms: C_7  and  C_9
REMARK    8  A    between atoms: C_8  and  C_10
REMARK    9  A    between atoms: C_9  and  C_11
REMARK   10  A    between atoms: C_10  and  C_12
REMARK   11  A    between atoms: C_11  and  C_13
REMARK                            x       y       z     vdW  Elec       q    Type
REMARK                         _______ _______ _______ _____ _____    ______ ____
ROOT
ATOM      1  C   UNL     1       4.588   4.989 -19.658  0.00  0.00    +0.000 C 
ATOM      2  H   UNL     1       5.293   4.717 -20.453  0.00  0.00    +0.000 HD
ATOM      3  H   UNL     1       4.247   4.047 -19.211  0.00  0.00    +0.000 HD
ENDROOT
BRANCH   1   4
ATOM      4  C   UNL     1       3.382   5.690 -20.290  0.00  0.00    +0.000 C 
ATOM      5  H   UNL     1       2.786   4.948 -20.836  0.00  0.00    +0.000 HD
ATOM      6  H   UNL     1       3.740   6.415 -21.031  0.00  0.00    +0.000 HD
BRANCH   4   7
ATOM      7  C   UNL     1       2.492   6.409 -19.272  0.00  0.00    +0.000 C 
ATOM      8  H   UNL     1       2.879   6.236 -18.261  0.00  0.00    +0.000 HD
ATOM      9  H   UNL     1       2.530   7.489 -19.454  0.00  0.00    +0.000 HD
BRANCH   7  10
ATOM     10  C   UNL     1       1.044   5.921 -19.362  0.00  0.00    +0.000 C 
ATOM     11  H   UNL     1       0.715   5.550 -18.384  0.00  0.00    +0.000 HD
ATOM     12  H   UNL     1       0.390   6.760 -19.628  0.00  0.00    +0.000 HD
BRANCH  10  13
ATOM     13  C   UNL     1       0.898   4.807 -20.403  0.00  0.00    +0.000 C 
ATOM     14  H   UNL     1       1.868   4.630 -20.884  0.00  0.00    +0.000 HD
ATOM     15  H   UNL     1       0.215   5.142 -21.194  0.00  0.00    +0.000 HD
BRANCH  13  16
ATOM     16  C   UNL     1       0.381   3.502 -19.805  0.00  0.00    +0.000 C 
ATOM     17  H   UNL     1       1.209   2.815 -19.602  0.00  0.00    +0.000 HD
ATOM     18  H   UNL     1      -0.146   3.695 -18.865  0.00  0.00    +0.000 HD
BRANCH  16  20
ATOM     19  O   UNL     1      -0.302   1.788 -21.356  0.00  0.00    +0.000 OA
ATOM     20  C   UNL     1      -0.583   2.807 -20.732  0.00  0.00    +0.000 C 
ATOM     21  H   UNL     1      -1.582   3.268 -20.814  0.00  0.00    +0.000 HD
ENDBRANCH  16  20
ENDBRANCH  13  16
ENDBRANCH  10  13
ENDBRANCH   7  10
ENDBRANCH   4   7
ENDBRANCH   1   4
BRANCH   1  22
ATOM     22  C   UNL     1       5.338   5.789 -18.588  0.00  0.00    +0.000 C 
ATOM     23  H   UNL     1       4.623   6.411 -18.037  0.00  0.00    +0.000 HD
ATOM     24  H   UNL     1       6.040   6.475 -19.080  0.00  0.00    +0.000 HD
BRANCH  22  25
ATOM     25  C   UNL     1       6.102   4.907 -17.597  0.00  0.00    +0.000 C 
ATOM     26  H   UNL     1       6.836   5.520 -17.059  0.00  0.00    +0.000 HD
ATOM     27  H   UNL     1       5.402   4.519 -16.847  0.00  0.00    +0.000 HD
BRANCH  25  28
ATOM     28  C   UNL     1       6.824   3.732 -18.265  0.00  0.00    +0.000 C 
ATOM     29  H   UNL     1       6.316   3.487 -19.204  0.00  0.00    +0.000 HD
ATOM     30  H   UNL     1       6.739   2.849 -17.619  0.00  0.00    +0.000 HD
BRANCH  28  31
ATOM     31  C   UNL     1       8.301   4.009 -18.546  0.00  0.00    +0.000 C 
ATOM     32  H   UNL     1       8.919   3.220 -18.102  0.00  0.00    +0.000 HD
ATOM     33  H   UNL     1       8.597   4.956 -18.077  0.00  0.00    +0.000 HD
BRANCH  31  34
ATOM     34  C   UNL     1       8.577   4.080 -20.041  0.00  0.00    +0.000 C 
ATOM     35  H   UNL     1       8.429   5.096 -20.418  0.00  0.00    +0.000 HD
ATOM     36  H   UNL     1       7.915   3.407 -20.594  0.00  0.00    +0.000 HD
ATOM     37  H   UNL     1       9.610   3.787 -20.249  0.00  0.00    +0.000 HD
ENDBRANCH  31  34
ENDBRANCH  28  31
ENDBRANCH  25  28
ENDBRANCH  22  25
ENDBRANCH   1  22
TORSDOF 11
ENDMDL
MODEL 7
REMARK VINA RESULT:    -4.362     14.888     16.031
REMARK INTER + INTRA:          -7.846
REMARK INTER:                  -6.739
REMARK INTRA:                  -1.107
REMARK UNBOUND:                -0.807
REMARK  Name = 8194
REMARK  11 active torsions:
REMARK  status: ('A' for Active; 'I' for Inactive)
REMARK    1  A    between atoms: C_2  and  C_3
REMARK    2  A    between atoms: C_2  and  C_4
REMARK    3  A    between atoms: C_3  and  C_5
REMARK    4  A    between atoms: C_4  and  C_6
REMARK    5  A    between atoms: C_5  and  C_7
REMARK    6  A    between atoms: C_6  and  C_8
REMARK    7  A    between atoms: C_7  and  C_9
REMARK    8  A    between atoms: C_8  and  C_10
REMARK    9  A    between atoms: C_9  and  C_11
REMARK   10  A    between atoms: C_10  and  C_12
REMARK   11  A    between atoms: C_11  and  C_13
REMARK                            x       y       z     vdW  Elec       q    Type
REMARK                         _______ _______ _______ _____ _____    ______ ____
ROOT
ATOM      1  C   UNL     1       4.143   5.846 -20.751  0.00  0.00    +0.000 C 
ATOM      2  H   UNL     1       3.303   6.227 -21.345  0.00  0.00    +0.000 HD
ATOM      3  H   UNL     1       4.992   6.512 -20.953  0.00  0.00    +0.000 HD
ENDROOT
BRANCH   1   4
ATOM      4  C   UNL     1       4.501   4.442 -21.248  0.00  0.00    +0.000 C 
ATOM      5  H   UNL     1       5.590   4.374 -21.366  0.00  0.00    +0.000 HD
ATOM      6  H   UNL     1       4.066   4.297 -22.245  0.00  0.00    +0.000 HD
BRANCH   4   7
ATOM      7  C   UNL     1       4.018   3.325 -20.320  0.00  0.00    +0.000 C 
ATOM      8  H   UNL     1       4.837   2.619 -20.139  0.00  0.00    +0.000 HD
ATOM      9  H   UNL     1       3.739   3.753 -19.350  0.00  0.00    +0.000 HD
BRANCH   7  10
ATOM     10  C   UNL     1       2.820   2.586 -20.922  0.00  0.00    +0.000 C 
ATOM     11  H   UNL     1       2.464   3.117 -21.812  0.00  0.00    +0.000 HD
ATOM     12  H   UNL     1       3.130   1.585 -21.243  0.00  0.00    +0.000 HD
BRANCH  10  13
ATOM     13  C   UNL     1       1.677   2.467 -19.909  0.00  0.00    +0.000 C 
ATOM     14  H   UNL     1       2.081   2.557 -18.892  0.00  0.00    +0.000 HD
ATOM     15  H   UNL     1       1.237   1.464 -19.980  0.00  0.00    +0.000 HD
BRANCH  13  16
ATOM     16  C   UNL     1       0.589   3.516 -20.119  0.00  0.00    +0.000 C 
ATOM     17  H   UNL     1       0.274   3.944 -19.162  0.00  0.00    +0.000 HD
ATOM     18  H   UNL     1       0.958   4.326 -20.756  0.00  0.00    +0.000 HD
BRANCH  16  20
ATOM     19  O   UNL     1      -0.604   1.891 -21.441  0.00  0.00    +0.000 OA
ATOM     20  C   UNL     1      -0.628   2.930 -20.789  0.00  0.00    +0.000 C 
ATOM     21  H   UNL     1      -1.566   3.494 -20.649  0.00  0.00    +0.000 HD
ENDBRANCH  16  20
ENDBRANCH  13  16
ENDBRANCH  10  13
ENDBRANCH   7  10
ENDBRANCH   4   7
ENDBRANCH   1   4
BRANCH   1  22
ATOM     22  C   UNL     1       3.785   5.955 -19.265  0.00  0.00    +0.000 C 
ATOM     23  H   UNL     1       3.470   4.971 -18.899  0.00  0.00    +0.000 HD
ATOM     24  H   UNL     1       2.923   6.625 -19.154  0.00  0.00    +0.000 HD
BRANCH  22  25
ATOM     25  C   UNL     1       4.940   6.466 -18.400  0.00  0.00    +0.000 C 
ATOM     26  H   UNL     1       5.621   7.061 -19.022  0.00  0.00    +0.000 HD
ATOM     27  H   UNL     1       4.542   7.140 -17.631  0.00  0.00    +0.000 HD
BRANCH  25  28
ATOM     28  C   UNL     1       5.732   5.343 -17.722  0.00  0.00    +0.000 C 
ATOM     29  H   UNL     1       5.094   4.456 -17.638  0.00  0.00    +0.000 HD
ATOM     30  H   UNL     1       5.982   5.651 -16.699  0.00  0.00    +0.000 HD
BRANCH  28  31
ATOM     31  C   UNL     1       7.016   4.974 -18.465  0.00  0.00    +0.000 C 
ATOM     32  H   UNL     1       7.867   5.504 -18.022  0.00  0.00    +0.000 HD
ATOM     33  H   UNL     1       6.944   5.293 -19.512  0.00  0.00    +0.000 HD
BRANCH  31  34
ATOM     34  C   UNL     1       7.276   3.476 -18.412  0.00  0.00    +0.000 C 
ATOM     35  H   UNL     1       8.332   3.255 -18.591  0.00  0.00    +0.000 HD
ATOM     36  H   UNL     1       6.682   2.948 -19.164  0.00  0.00    +0.000 HD
ATOM     37  H   UNL     1       7.007   3.080 -17.428  0.00  0.00    +0.000 HD
ENDBRANCH  31  34
ENDBRANCH  28  31
ENDBRANCH  25  28
ENDBRANCH  22  25
ENDBRANCH   1  22
TORSDOF 11
ENDMDL
MODEL 8
REMARK VINA RESULT:    -4.268     16.968     18.679
REMARK INTER + INTRA:          -7.695
REMARK INTER:                  -6.675
REMARK INTRA:                  -1.020
REMARK UNBOUND:                -0.807
REMARK  Name = 8194
REMARK  11 active torsions:
REMARK  status: ('A' for Active; 'I' for Inactive)
REMARK    1  A    between atoms: C_2  and  C_3
REMARK    2  A    between atoms: C_2  and  C_4
REMARK    3  A    between atoms: C_3  and  C_5
REMARK    4  A    between atoms: C_4  and  C_6
REMARK    5  A    between atoms: C_5  and  C_7
REMARK    6  A    between atoms: C_6  and  C_8
REMARK    7  A    between atoms: C_7  and  C_9
REMARK    8  A    between atoms: C_8  and  C_10
REMARK    9  A    between atoms: C_9  and  C_11
REMARK   10  A    between atoms: C_10  and  C_12
REMARK   11  A    between atoms: C_11  and  C_13
REMARK                            x       y       z     vdW  Elec       q    Type
REMARK                         _______ _______ _______ _____ _____    ______ ____
ROOT
ATOM      1  C   UNL     1      -7.105 -13.682   3.149  0.00  0.00    +0.000 C 
ATOM      2  H   UNL     1      -7.119 -13.034   2.264  0.00  0.00    +0.000 HD
ATOM      3  H   UNL     1      -8.035 -14.265   3.121  0.00  0.00    +0.000 HD
ENDROOT
BRANCH   1   4
ATOM      4  C   UNL     1      -7.122 -12.804   4.403  0.00  0.00    +0.000 C 
ATOM      5  H   UNL     1      -7.179 -11.751   4.099  0.00  0.00    +0.000 HD
ATOM      6  H   UNL     1      -6.171 -12.928   4.936  0.00  0.00    +0.000 HD
BRANCH   4   7
ATOM      7  C   UNL     1      -8.278 -13.121   5.355  0.00  0.00    +0.000 C 
ATOM      8  H   UNL     1      -8.885 -12.222   5.507  0.00  0.00    +0.000 HD
ATOM      9  H   UNL     1      -8.927 -13.878   4.899  0.00  0.00    +0.000 HD
BRANCH   7  10
ATOM     10  C   UNL     1      -7.760 -13.630   6.703  0.00  0.00    +0.000 C 
ATOM     11  H   UNL     1      -6.679 -13.465   6.772  0.00  0.00    +0.000 HD
ATOM     12  H   UNL     1      -8.228 -13.062   7.515  0.00  0.00    +0.000 HD
BRANCH  10  13
ATOM     13  C   UNL     1      -8.058 -15.122   6.883  0.00  0.00    +0.000 C 
ATOM     14  H   UNL     1      -8.561 -15.278   7.847  0.00  0.00    +0.000 HD
ATOM     15  H   UNL     1      -7.111 -15.674   6.935  0.00  0.00    +0.000 HD
BRANCH  13  16
ATOM     16  C   UNL     1      -8.919 -15.694   5.761  0.00  0.00    +0.000 C 
ATOM     17  H   UNL     1      -9.721 -14.997   5.496  0.00  0.00    +0.000 HD
ATOM     18  H   UNL     1      -8.311 -15.877   4.869  0.00  0.00    +0.000 HD
BRANCH  16  20
ATOM     19  O   UNL     1     -10.638 -17.383   5.726  0.00  0.00    +0.000 OA
ATOM     20  C   UNL     1      -9.553 -17.003   6.156  0.00  0.00    +0.000 C 
ATOM     21  H   UNL     1      -8.970 -17.621   6.860  0.00  0.00    +0.000 HD
ENDBRANCH  16  20
ENDBRANCH  13  16
ENDBRANCH  10  13
ENDBRANCH   7  10
ENDBRANCH   4   7
ENDBRANCH   1   4
BRANCH   1  22
ATOM     22  C   UNL     1      -5.924 -14.652   3.030  0.00  0.00    +0.000 C 
ATOM     23  H   UNL     1      -5.241 -14.292   2.252  0.00  0.00    +0.000 HD
ATOM     24  H   UNL     1      -6.296 -15.629   2.698  0.00  0.00    +0.000 HD
BRANCH  22  25
ATOM     25  C   UNL     1      -5.148 -14.823   4.338  0.00  0.00    +0.000 C 
ATOM     26  H   UNL     1      -4.806 -13.840   4.687  0.00  0.00    +0.000 HD
ATOM     27  H   UNL     1      -5.824 -15.215   5.108  0.00  0.00    +0.000 HD
BRANCH  25  28
ATOM     28  C   UNL     1      -3.939 -15.756   4.208  0.00  0.00    +0.000 C 
ATOM     29  H   UNL     1      -3.096 -15.193   3.792  0.00  0.00    +0.000 HD
ATOM     30  H   UNL     1      -4.177 -16.548   3.488  0.00  0.00    +0.000 HD
BRANCH  28  31
ATOM     31  C   UNL     1      -3.518 -16.391   5.534  0.00  0.00    +0.000 C 
ATOM     32  H   UNL     1      -3.017 -15.644   6.161  0.00  0.00    +0.000 HD
ATOM     33  H   UNL     1      -2.798 -17.197   5.347  0.00  0.00    +0.000 HD
BRANCH  31  34
ATOM     34  C   UNL     1      -4.717 -16.951   6.285  0.00  0.00    +0.000 C 
ATOM     35  H   UNL     1      -5.280 -17.650   5.658  0.00  0.00    +0.000 HD
ATOM     36  H   UNL     1      -5.393 -16.150   6.599  0.00  0.00    +0.000 HD
ATOM     37  H   UNL     1      -4.386 -17.488   7.180  0.00  0.00    +0.000 HD
ENDBRANCH  31  34
ENDBRANCH  28  31
ENDBRANCH  25  28
ENDBRANCH  22  25
ENDBRANCH   1  22
TORSDOF 11
ENDMDL
MODEL 9
REMARK VINA RESULT:    -4.235     15.682     17.457
REMARK INTER + INTRA:          -7.641
REMARK INTER:                  -6.233
REMARK INTRA:                  -1.408
REMARK UNBOUND:                -0.807
REMARK  Name = 8194
REMARK  11 active torsions:
REMARK  status: ('A' for Active; 'I' for Inactive)
REMARK    1  A    between atoms: C_2  and  C_3
REMARK    2  A    between atoms: C_2  and  C_4
REMARK    3  A    between atoms: C_3  and  C_5
REMARK    4  A    between atoms: C_4  and  C_6
REMARK    5  A    between atoms: C_5  and  C_7
REMARK    6  A    between atoms: C_6  and  C_8
REMARK    7  A    between atoms: C_7  and  C_9
REMARK    8  A    between atoms: C_8  and  C_10
REMARK    9  A    between atoms: C_9  and  C_11
REMARK   10  A    between atoms: C_10  and  C_12
REMARK   11  A    between atoms: C_11  and  C_13
REMARK                            x       y       z     vdW  Elec       q    Type
REMARK                         _______ _______ _______ _____ _____    ______ ____
ROOT
ATOM      1  C   UNL     1      -0.451   3.453 -21.273  0.00  0.00    +0.000 C 
ATOM      2  H   UNL     1      -0.642   4.014 -20.350  0.00  0.00    +0.000 HD
ATOM      3  H   UNL     1      -1.416   3.032 -21.584  0.00  0.00    +0.000 HD
ENDROOT
BRANCH   1   4
ATOM      4  C   UNL     1       0.503   2.297 -20.959  0.00  0.00    +0.000 C 
ATOM      5  H   UNL     1       1.004   1.989 -21.885  0.00  0.00    +0.000 HD
ATOM      6  H   UNL     1      -0.084   1.436 -20.616  0.00  0.00    +0.000 HD
BRANCH   4   7
ATOM      7  C   UNL     1       1.553   2.643 -19.901  0.00  0.00    +0.000 C 
ATOM      8  H   UNL     1       1.504   3.714 -19.672  0.00  0.00    +0.000 HD
ATOM      9  H   UNL     1       1.329   2.102 -18.974  0.00  0.00    +0.000 HD
BRANCH   7  10
ATOM     10  C   UNL     1       2.961   2.281 -20.381  0.00  0.00    +0.000 C 
ATOM     11  H   UNL     1       3.434   1.598 -19.666  0.00  0.00    +0.000 HD
ATOM     12  H   UNL     1       2.899   1.755 -21.340  0.00  0.00    +0.000 HD
BRANCH  10  13
ATOM     13  C   UNL     1       3.831   3.532 -20.539  0.00  0.00    +0.000 C 
ATOM     14  H   UNL     1       4.709   3.450 -19.885  0.00  0.00    +0.000 HD
ATOM     15  H   UNL     1       3.267   4.408 -20.193  0.00  0.00    +0.000 HD
BRANCH  13  16
ATOM     16  C   UNL     1       4.288   3.758 -21.977  0.00  0.00    +0.000 C 
ATOM     17  H   UNL     1       4.205   4.816 -22.248  0.00  0.00    +0.000 HD
ATOM     18  H   UNL     1       5.331   3.451 -22.099  0.00  0.00    +0.000 HD
BRANCH  16  20
ATOM     19  O   UNL     1       3.805   2.755 -24.116  0.00  0.00    +0.000 OA
ATOM     20  C   UNL     1       3.462   2.962 -22.956  0.00  0.00    +0.000 C 
ATOM     21  H   UNL     1       2.514   2.558 -22.561  0.00  0.00    +0.000 HD
ENDBRANCH  16  20
ENDBRANCH  13  16
ENDBRANCH  10  13
ENDBRANCH   7  10
ENDBRANCH   4   7
ENDBRANCH   1   4
BRANCH   1  22
ATOM     22  C   UNL     1       0.021   4.431 -22.354  0.00  0.00    +0.000 C 
ATOM     23  H   UNL     1      -0.675   4.394 -23.200  0.00  0.00    +0.000 HD
ATOM     24  H   UNL     1       0.996   4.100 -22.733  0.00  0.00    +0.000 HD
BRANCH  22  25
ATOM     25  C   UNL     1       0.131   5.875 -21.858  0.00  0.00    +0.000 C 
ATOM     26  H   UNL     1      -0.286   6.550 -22.616  0.00  0.00    +0.000 HD
ATOM     27  H   UNL     1      -0.482   5.992 -20.956  0.00  0.00    +0.000 HD
BRANCH  25  28
ATOM     28  C   UNL     1       1.570   6.300 -21.546  0.00  0.00    +0.000 C 
ATOM     29  H   UNL     1       1.752   7.291 -21.978  0.00  0.00    +0.000 HD
ATOM     30  H   UNL     1       2.262   5.608 -22.043  0.00  0.00    +0.000 HD
BRANCH  28  31
ATOM     31  C   UNL     1       1.881   6.334 -20.050  0.00  0.00    +0.000 C 
ATOM     32  H   UNL     1       2.508   7.203 -19.820  0.00  0.00    +0.000 HD
ATOM     33  H   UNL     1       2.448   5.439 -19.768  0.00  0.00    +0.000 HD
BRANCH  31  34
ATOM     34  C   UNL     1       0.606   6.404 -19.221  0.00  0.00    +0.000 C 
ATOM     35  H   UNL     1       0.523   7.369 -18.711  0.00  0.00    +0.000 HD
ATOM     36  H   UNL     1       0.586   5.613 -18.466  0.00  0.00    +0.000 HD
ATOM     37  H   UNL     1      -0.271   6.283 -19.865  0.00  0.00    +0.000 HD
ENDBRANCH  31  34
ENDBRANCH  28  31
ENDBRANCH  25  28
ENDBRANCH  22  25
ENDBRANCH   1  22
TORSDOF 11
ENDMDL
MODEL 10
REMARK VINA RESULT:    -4.188     14.156     15.706
REMARK INTER + INTRA:          -7.566
REMARK INTER:                  -6.758
REMARK INTRA:                  -0.807
REMARK UNBOUND:                -0.807
REMARK  Name = 8194
REMARK  11 active torsions:
REMARK  status: ('A' for Active; 'I' for Inactive)
REMARK    1  A    between atoms: C_2  and  C_3
REMARK    2  A    between atoms: C_2  and  C_4
REMARK    3  A    between atoms: C_3  and  C_5
REMARK    4  A    between atoms: C_4  and  C_6
REMARK    5  A    between atoms: C_5  and  C_7
REMARK    6  A    between atoms: C_6  and  C_8
REMARK    7  A    between atoms: C_7  and  C_9
REMARK    8  A    between atoms: C_8  and  C_10
REMARK    9  A    between atoms: C_9  and  C_11
REMARK   10  A    between atoms: C_10  and  C_12
REMARK   11  A    between atoms: C_11  and  C_13
REMARK                            x       y       z     vdW  Elec       q    Type
REMARK                         _______ _______ _______ _____ _____    ______ ____
ROOT
ATOM      1  C   UNL     1      -2.738 -16.450   3.950  0.00  0.00    +0.000 C 
ATOM      2  H   UNL     1      -3.307 -15.874   3.210  0.00  0.00    +0.000 HD
ATOM      3  H   UNL     1      -2.920 -17.508   3.724  0.00  0.00    +0.000 HD
ENDROOT
BRANCH   1   4
ATOM      4  C   UNL     1      -3.296 -16.149   5.344  0.00  0.00    +0.000 C 
ATOM      5  H   UNL     1      -2.707 -15.340   5.795  0.00  0.00    +0.000 HD
ATOM      6  H   UNL     1      -3.157 -17.033   5.980  0.00  0.00    +0.000 HD
BRANCH   4   7
ATOM      7  C   UNL     1      -4.776 -15.760   5.338  0.00  0.00    +0.000 C 
ATOM      8  H   UNL     1      -5.393 -16.666   5.316  0.00  0.00    +0.000 HD
ATOM      9  H   UNL     1      -5.016 -15.227   6.265  0.00  0.00    +0.000 HD
BRANCH   7  10
ATOM     10  C   UNL     1      -5.111 -14.877   4.133  0.00  0.00    +0.000 C 
ATOM     11  H   UNL     1      -4.235 -14.793   3.479  0.00  0.00    +0.000 HD
ATOM     12  H   UNL     1      -5.910 -15.343   3.547  0.00  0.00    +0.000 HD
BRANCH  10  13
ATOM     13  C   UNL     1      -5.550 -13.478   4.577  0.00  0.00    +0.000 C 
ATOM     14  H   UNL     1      -4.858 -12.732   4.164  0.00  0.00    +0.000 HD
ATOM     15  H   UNL     1      -5.467 -13.406   5.670  0.00  0.00    +0.000 HD
BRANCH  13  16
ATOM     16  C   UNL     1      -6.975 -13.142   4.152  0.00  0.00    +0.000 C 
ATOM     17  H   UNL     1      -7.682 -13.370   4.957  0.00  0.00    +0.000 HD
ATOM     18  H   UNL     1      -7.061 -12.079   3.908  0.00  0.00    +0.000 HD
BRANCH  16  20
ATOM     19  O   UNL     1      -7.433 -13.443   1.805  0.00  0.00    +0.000 OA
ATOM     20  C   UNL     1      -7.393 -13.924   2.933  0.00  0.00    +0.000 C 
ATOM     21  H   UNL     1      -7.656 -14.980   3.111  0.00  0.00    +0.000 HD
ENDBRANCH  16  20
ENDBRANCH  13  16
ENDBRANCH  10  13
ENDBRANCH   7  10
ENDBRANCH   4   7
ENDBRANCH   1   4
BRANCH   1  22
ATOM     22  C   UNL     1      -1.245 -16.163   3.753  0.00  0.00    +0.000 C 
ATOM     23  H   UNL     1      -0.687 -17.105   3.820  0.00  0.00    +0.000 HD
ATOM     24  H   UNL     1      -0.892 -15.529   4.576  0.00  0.00    +0.000 HD
BRANCH  22  25
ATOM     25  C   UNL     1      -0.929 -15.486   2.418  0.00  0.00    +0.000 C 
ATOM     26  H   UNL     1      -0.126 -14.753   2.566  0.00  0.00    +0.000 HD
ATOM     27  H   UNL     1      -0.548 -16.237   1.715  0.00  0.00    +0.000 HD
BRANCH  25  28
ATOM     28  C   UNL     1      -2.140 -14.783   1.794  0.00  0.00    +0.000 C 
ATOM     29  H   UNL     1      -1.911 -13.718   1.670  0.00  0.00    +0.000 HD
ATOM     30  H   UNL     1      -2.986 -14.846   2.489  0.00  0.00    +0.000 HD
BRANCH  28  31
ATOM     31  C   UNL     1      -2.552 -15.372   0.444  0.00  0.00    +0.000 C 
ATOM     32  H   UNL     1      -2.619 -14.574  -0.304  0.00  0.00    +0.000 HD
ATOM     33  H   UNL     1      -3.548 -15.826   0.527  0.00  0.00    +0.000 HD
BRANCH  31  34
ATOM     34  C   UNL     1      -1.559 -16.422  -0.029  0.00  0.00    +0.000 C 
ATOM     35  H   UNL     1      -2.073 -17.263  -0.505  0.00  0.00    +0.000 HD
ATOM     36  H   UNL     1      -0.969 -16.809   0.807  0.00  0.00    +0.000 HD
ATOM     37  H   UNL     1      -0.869 -15.989  -0.759  0.00  0.00    +0.000 HD
ENDBRANCH  31  34
ENDBRANCH  28  31
ENDBRANCH  25  28
ENDBRANCH  22  25
ENDBRANCH   1  22
TORSDOF 11
ENDMDL
