MODEL 1
REMARK VINA RESULT:    -4.035      0.000      0.000
REMARK INTER + INTRA:          -6.012
REMARK INTER:                  -5.868
REMARK INTRA:                  -0.144
REMARK UNBOUND:                -0.561
REMARK  Name = 5363374
REMARK  7 active torsions:
REMARK  status: ('A' for Active; 'I' for Inactive)
REMARK    1  A    between atoms: O_1  and  C_8
REMARK    2  A    between atoms: O_1  and  C_9
REMARK    3  A    between atoms: C_3  and  C_4
REMARK    4  A    between atoms: C_3  and  C_5
REMARK    5  A    between atoms: C_4  and  C_6
REMARK    6  A    between atoms: C_7  and  C_8
REMARK    7  A    between atoms: C_9  and  C_10
REMARK                            x       y       z     vdW  Elec       q    Type
REMARK                         _______ _______ _______ _____ _____    ______ ____
ROOT
ATOM      1  C   UNL     1      -8.134 -13.355   5.974  0.00  0.00    +0.000 C 
ATOM      2  C   UNL     1      -7.810 -12.958   4.735  0.00  0.00    +0.000 C 
ATOM      3  H   UNL     1      -8.755 -12.706   6.587  0.00  0.00    +0.000 HD
ATOM      4  H   UNL     1      -8.167 -11.992   4.385  0.00  0.00    +0.000 HD
ENDROOT
BRANCH   1   5
ATOM      5  C   UNL     1      -7.708 -14.665   6.570  0.00  0.00    +0.000 C 
ATOM      6  H   UNL     1      -7.574 -14.512   7.648  0.00  0.00    +0.000 HD
ATOM      7  H   UNL     1      -6.728 -14.989   6.207  0.00  0.00    +0.000 HD
BRANCH   5   8
ATOM      8  C   UNL     1      -8.766 -15.746   6.344  0.00  0.00    +0.000 C 
ATOM      9  H   UNL     1      -8.666 -16.173   5.338  0.00  0.00    +0.000 HD
ATOM     10  H   UNL     1      -9.771 -15.310   6.409  0.00  0.00    +0.000 HD
BRANCH   8  11
ATOM     11  C   UNL     1      -8.644 -16.865   7.366  0.00  0.00    +0.000 C 
ATOM     12  H   UNL     1      -7.802 -16.674   8.040  0.00  0.00    +0.000 HD
ATOM     13  H   UNL     1      -9.552 -16.943   7.973  0.00  0.00    +0.000 HD
ATOM     14  H   UNL     1      -8.474 -17.829   6.875  0.00  0.00    +0.000 HD
ENDBRANCH   8  11
ENDBRANCH   5   8
ENDBRANCH   1   5
BRANCH   2  15
ATOM     15  C   UNL     1      -6.983 -13.771   3.793  0.00  0.00    +0.000 C 
ATOM     16  H   UNL     1      -5.949 -13.408   3.844  0.00  0.00    +0.000 HD
ATOM     17  H   UNL     1      -6.975 -14.840   4.017  0.00  0.00    +0.000 HD
BRANCH  15  18
ATOM     18  O   UNL     1      -7.476 -13.583   2.475  0.00  0.00    +0.000 OA
BRANCH  18  20
ATOM     19  O   UNL     1      -5.520 -14.434   1.587  0.00  0.00    +0.000 OA
ATOM     20  C   UNL     1      -6.601 -13.874   1.464  0.00  0.00    +0.000 C 
BRANCH  20  21
ATOM     21  C   UNL     1      -7.159 -13.403   0.155  0.00  0.00    +0.000 C 
ATOM     22  H   UNL     1      -6.377 -12.902  -0.421  0.00  0.00    +0.000 HD
ATOM     23  H   UNL     1      -8.000 -12.728   0.333  0.00  0.00    +0.000 HD
ATOM     24  H   UNL     1      -7.517 -14.263  -0.417  0.00  0.00    +0.000 HD
ENDBRANCH  20  21
ENDBRANCH  18  20
ENDBRANCH  15  18
ENDBRANCH   2  15
TORSDOF 7
ENDMDL
MODEL 2
REMARK VINA RESULT:    -3.964     25.219     26.568
REMARK INTER + INTRA:          -5.915
REMARK INTER:                  -5.490
REMARK INTRA:                  -0.425
REMARK UNBOUND:                -0.561
REMARK  Name = 5363374
REMARK  7 active torsions:
REMARK  status: ('A' for Active; 'I' for Inactive)
REMARK    1  A    between atoms: O_1  and  C_8
REMARK    2  A    between atoms: O_1  and  C_9
REMARK    3  A    between atoms: C_3  and  C_4
REMARK    4  A    between atoms: C_3  and  C_5
REMARK    5  A    between atoms: C_4  and  C_6
REMARK    6  A    between atoms: C_7  and  C_8
REMARK    7  A    between atoms: C_9  and  C_10
REMARK                            x       y       z     vdW  Elec       q    Type
REMARK                         _______ _______ _______ _____ _____    ______ ____
ROOT
ATOM      1  C   UNL     1      15.395  -5.800  -1.711  0.00  0.00    +0.000 C 
ATOM      2  C   UNL     1      16.000  -4.844  -2.432  0.00  0.00    +0.000 C 
ATOM      3  H   UNL     1      14.313  -5.885  -1.757  0.00  0.00    +0.000 HD
ATOM      4  H   UNL     1      15.388  -4.174  -3.030  0.00  0.00    +0.000 HD
ENDROOT
BRANCH   1   5
ATOM      5  C   UNL     1      16.128  -6.789  -0.852  0.00  0.00    +0.000 C 
ATOM      6  H   UNL     1      17.149  -6.413  -0.710  0.00  0.00    +0.000 HD
ATOM      7  H   UNL     1      16.251  -7.758  -1.345  0.00  0.00    +0.000 HD
BRANCH   5   8
ATOM      8  C   UNL     1      15.455  -6.943   0.513  0.00  0.00    +0.000 C 
ATOM      9  H   UNL     1      15.936  -7.745   1.086  0.00  0.00    +0.000 HD
ATOM     10  H   UNL     1      14.403  -7.226   0.385  0.00  0.00    +0.000 HD
BRANCH   8  11
ATOM     11  C   UNL     1      15.528  -5.654   1.317  0.00  0.00    +0.000 C 
ATOM     12  H   UNL     1      16.410  -5.074   1.025  0.00  0.00    +0.000 HD
ATOM     13  H   UNL     1      14.643  -5.033   1.143  0.00  0.00    +0.000 HD
ATOM     14  H   UNL     1      15.599  -5.863   2.389  0.00  0.00    +0.000 HD
ENDBRANCH   8  11
ENDBRANCH   5   8
ENDBRANCH   1   5
BRANCH   2  15
ATOM     15  C   UNL     1      17.480  -4.645  -2.467  0.00  0.00    +0.000 C 
ATOM     16  H   UNL     1      17.691  -3.596  -2.221  0.00  0.00    +0.000 HD
ATOM     17  H   UNL     1      18.031  -5.273  -1.765  0.00  0.00    +0.000 HD
BRANCH  15  18
ATOM     18  O   UNL     1      17.945  -4.914  -3.782  0.00  0.00    +0.000 OA
BRANCH  18  20
ATOM     19  O   UNL     1      19.229  -6.794  -3.391  0.00  0.00    +0.000 OA
ATOM     20  C   UNL     1      18.364  -6.195  -4.015  0.00  0.00    +0.000 C 
BRANCH  20  21
ATOM     21  C   UNL     1      17.602  -6.780  -5.166  0.00  0.00    +0.000 C 
ATOM     22  H   UNL     1      16.548  -6.883  -4.898  0.00  0.00    +0.000 HD
ATOM     23  H   UNL     1      18.029  -7.749  -5.437  0.00  0.00    +0.000 HD
ATOM     24  H   UNL     1      17.679  -6.111  -6.029  0.00  0.00    +0.000 HD
ENDBRANCH  20  21
ENDBRANCH  18  20
ENDBRANCH  15  18
ENDBRANCH   2  15
TORSDOF 7
ENDMDL
MODEL 3
REMARK VINA RESULT:    -3.935     40.295     41.546
REMARK INTER + INTRA:          -5.876
REMARK INTER:                  -5.652
REMARK INTRA:                  -0.224
REMARK UNBOUND:                -0.561
REMARK  Name = 5363374
REMARK  7 active torsions:
REMARK  status: ('A' for Active; 'I' for Inactive)
REMARK    1  A    between atoms: O_1  and  C_8
REMARK    2  A    between atoms: O_1  and  C_9
REMARK    3  A    between atoms: C_3  and  C_4
REMARK    4  A    between atoms: C_3  and  C_5
REMARK    5  A    between atoms: C_4  and  C_6
REMARK    6  A    between atoms: C_7  and  C_8
REMARK    7  A    between atoms: C_9  and  C_10
REMARK                            x       y       z     vdW  Elec       q    Type
REMARK                         _______ _______ _______ _____ _____    ______ ____
ROOT
ATOM      1  C   UNL     1      11.781  18.431 -11.678  0.00  0.00    +0.000 C 
ATOM      2  C   UNL     1      10.914  19.334 -11.197  0.00  0.00    +0.000 C 
ATOM      3  H   UNL     1      11.620  18.029 -12.674  0.00  0.00    +0.000 HD
ATOM      4  H   UNL     1      10.068  19.627 -11.814  0.00  0.00    +0.000 HD
ENDROOT
BRANCH   1   5
ATOM      5  C   UNL     1      12.988  17.950 -10.927  0.00  0.00    +0.000 C 
ATOM      6  H   UNL     1      12.859  18.231  -9.874  0.00  0.00    +0.000 HD
ATOM      7  H   UNL     1      13.905  18.458 -11.243  0.00  0.00    +0.000 HD
BRANCH   5   8
ATOM      8  C   UNL     1      13.135  16.431 -11.027  0.00  0.00    +0.000 C 
ATOM      9  H   UNL     1      12.200  15.938 -10.732  0.00  0.00    +0.000 HD
ATOM     10  H   UNL     1      13.913  16.081 -10.339  0.00  0.00    +0.000 HD
BRANCH   8  11
ATOM     11  C   UNL     1      13.492  16.000 -12.441  0.00  0.00    +0.000 C 
ATOM     12  H   UNL     1      13.054  15.021 -12.661  0.00  0.00    +0.000 HD
ATOM     13  H   UNL     1      13.110  16.714 -13.178  0.00  0.00    +0.000 HD
ATOM     14  H   UNL     1      14.577  15.922 -12.566  0.00  0.00    +0.000 HD
ENDBRANCH   8  11
ENDBRANCH   5   8
ENDBRANCH   1   5
BRANCH   2  15
ATOM     15  C   UNL     1      11.042  19.973  -9.853  0.00  0.00    +0.000 C 
ATOM     16  H   UNL     1      11.329  19.199  -9.131  0.00  0.00    +0.000 HD
ATOM     17  H   UNL     1      11.789  20.769  -9.808  0.00  0.00    +0.000 HD
BRANCH  15  18
ATOM     18  O   UNL     1       9.780  20.509  -9.481  0.00  0.00    +0.000 OA
BRANCH  18  20
ATOM     19  O   UNL     1       8.701  22.421 -10.201  0.00  0.00    +0.000 OA
ATOM     20  C   UNL     1       9.635  21.859  -9.645  0.00  0.00    +0.000 C 
BRANCH  20  21
ATOM     21  C   UNL     1      10.803  22.576  -9.037  0.00  0.00    +0.000 C 
ATOM     22  H   UNL     1      10.762  23.637  -9.295  0.00  0.00    +0.000 HD
ATOM     23  H   UNL     1      11.736  22.128  -9.389  0.00  0.00    +0.000 HD
ATOM     24  H   UNL     1      10.759  22.480  -7.948  0.00  0.00    +0.000 HD
ENDBRANCH  20  21
ENDBRANCH  18  20
ENDBRANCH  15  18
ENDBRANCH   2  15
TORSDOF 7
ENDMDL
MODEL 4
REMARK VINA RESULT:    -3.808     24.721     26.609
REMARK INTER + INTRA:          -5.705
REMARK INTER:                  -5.388
REMARK INTRA:                  -0.317
REMARK UNBOUND:                -0.561
REMARK  Name = 5363374
REMARK  7 active torsions:
REMARK  status: ('A' for Active; 'I' for Inactive)
REMARK    1  A    between atoms: O_1  and  C_8
REMARK    2  A    between atoms: O_1  and  C_9
REMARK    3  A    between atoms: C_3  and  C_4
REMARK    4  A    between atoms: C_3  and  C_5
REMARK    5  A    between atoms: C_4  and  C_6
REMARK    6  A    between atoms: C_7  and  C_8
REMARK    7  A    between atoms: C_9  and  C_10
REMARK                            x       y       z     vdW  Elec       q    Type
REMARK                         _______ _______ _______ _____ _____    ______ ____
ROOT
ATOM      1  C   UNL     1      16.689  -5.070  -3.408  0.00  0.00    +0.000 C 
ATOM      2  C   UNL     1      15.896  -4.911  -2.339  0.00  0.00    +0.000 C 
ATOM      3  H   UNL     1      16.260  -4.961  -4.400  0.00  0.00    +0.000 HD
ATOM      4  H   UNL     1      14.843  -4.691  -2.497  0.00  0.00    +0.000 HD
ENDROOT
BRANCH   1   5
ATOM      5  C   UNL     1      18.158  -5.369  -3.322  0.00  0.00    +0.000 C 
ATOM      6  H   UNL     1      18.391  -5.588  -2.272  0.00  0.00    +0.000 HD
ATOM      7  H   UNL     1      18.775  -4.501  -3.572  0.00  0.00    +0.000 HD
BRANCH   5   8
ATOM      8  C   UNL     1      18.529  -6.578  -4.181  0.00  0.00    +0.000 C 
ATOM      9  H   UNL     1      18.538  -7.490  -3.572  0.00  0.00    +0.000 HD
ATOM     10  H   UNL     1      19.539  -6.455  -4.590  0.00  0.00    +0.000 HD
BRANCH   8  11
ATOM     11  C   UNL     1      17.548  -6.765  -5.329  0.00  0.00    +0.000 C 
ATOM     12  H   UNL     1      16.802  -5.964  -5.325  0.00  0.00    +0.000 HD
ATOM     13  H   UNL     1      18.065  -6.742  -6.294  0.00  0.00    +0.000 HD
ATOM     14  H   UNL     1      17.020  -7.721  -5.242  0.00  0.00    +0.000 HD
ENDBRANCH   8  11
ENDBRANCH   5   8
ENDBRANCH   1   5
BRANCH   2  15
ATOM     15  C   UNL     1      16.375  -5.013  -0.928  0.00  0.00    +0.000 C 
ATOM     16  H   UNL     1      17.287  -5.624  -0.918  0.00  0.00    +0.000 HD
ATOM     17  H   UNL     1      16.610  -4.051  -0.466  0.00  0.00    +0.000 HD
BRANCH  15  18
ATOM     18  O   UNL     1      15.376  -5.659  -0.152  0.00  0.00    +0.000 OA
BRANCH  18  20
ATOM     19  O   UNL     1      15.073  -7.494   1.219  0.00  0.00    +0.000 OA
ATOM     20  C   UNL     1      15.752  -6.830   0.448  0.00  0.00    +0.000 C 
BRANCH  20  21
ATOM     21  C   UNL     1      17.141  -7.198   0.022  0.00  0.00    +0.000 C 
ATOM     22  H   UNL     1      17.116  -7.660  -0.967  0.00  0.00    +0.000 HD
ATOM     23  H   UNL     1      17.584  -7.877   0.755  0.00  0.00    +0.000 HD
ATOM     24  H   UNL     1      17.755  -6.294  -0.031  0.00  0.00    +0.000 HD
ENDBRANCH  20  21
ENDBRANCH  18  20
ENDBRANCH  15  18
ENDBRANCH   2  15
TORSDOF 7
ENDMDL
MODEL 5
REMARK VINA RESULT:    -3.803     13.274     14.341
REMARK INTER + INTRA:          -5.698
REMARK INTER:                  -5.248
REMARK INTRA:                  -0.450
REMARK UNBOUND:                -0.561
REMARK  Name = 5363374
REMARK  7 active torsions:
REMARK  status: ('A' for Active; 'I' for Inactive)
REMARK    1  A    between atoms: O_1  and  C_8
REMARK    2  A    between atoms: O_1  and  C_9
REMARK    3  A    between atoms: C_3  and  C_4
REMARK    4  A    between atoms: C_3  and  C_5
REMARK    5  A    between atoms: C_4  and  C_6
REMARK    6  A    between atoms: C_7  and  C_8
REMARK    7  A    between atoms: C_9  and  C_10
REMARK                            x       y       z     vdW  Elec       q    Type
REMARK                         _______ _______ _______ _____ _____    ______ ____
ROOT
ATOM      1  C   UNL     1     -16.481  -5.886  -4.463  0.00  0.00    +0.000 C 
ATOM      2  C   UNL     1     -15.782  -6.191  -5.566  0.00  0.00    +0.000 C 
ATOM      3  H   UNL     1     -17.478  -5.468  -4.573  0.00  0.00    +0.000 HD
ATOM      4  H   UNL     1     -16.229  -5.998  -6.538  0.00  0.00    +0.000 HD
ENDROOT
BRANCH   1   5
ATOM      5  C   UNL     1     -15.979  -6.111  -3.067  0.00  0.00    +0.000 C 
ATOM      6  H   UNL     1     -15.426  -5.212  -2.764  0.00  0.00    +0.000 HD
ATOM      7  H   UNL     1     -15.247  -6.923  -3.013  0.00  0.00    +0.000 HD
BRANCH   5   8
ATOM      8  C   UNL     1     -17.134  -6.342  -2.092  0.00  0.00    +0.000 C 
ATOM      9  H   UNL     1     -17.293  -5.451  -1.472  0.00  0.00    +0.000 HD
ATOM     10  H   UNL     1     -16.894  -7.168  -1.411  0.00  0.00    +0.000 HD
BRANCH   8  11
ATOM     11  C   UNL     1     -18.425  -6.665  -2.828  0.00  0.00    +0.000 C 
ATOM     12  H   UNL     1     -18.938  -7.503  -2.345  0.00  0.00    +0.000 HD
ATOM     13  H   UNL     1     -19.104  -5.805  -2.824  0.00  0.00    +0.000 HD
ATOM     14  H   UNL     1     -18.225  -6.942  -3.868  0.00  0.00    +0.000 HD
ENDBRANCH   8  11
ENDBRANCH   5   8
ENDBRANCH   1   5
BRANCH   2  15
ATOM     15  C   UNL     1     -14.414  -6.791  -5.542  0.00  0.00    +0.000 C 
ATOM     16  H   UNL     1     -14.178  -7.064  -4.506  0.00  0.00    +0.000 HD
ATOM     17  H   UNL     1     -14.310  -7.687  -6.158  0.00  0.00    +0.000 HD
BRANCH  15  18
ATOM     18  O   UNL     1     -13.482  -5.818  -5.990  0.00  0.00    +0.000 OA
BRANCH  18  20
ATOM     19  O   UNL     1     -13.091  -3.748  -5.040  0.00  0.00    +0.000 OA
ATOM     20  C   UNL     1     -13.001  -4.968  -5.031  0.00  0.00    +0.000 C 
BRANCH  20  21
ATOM     21  C   UNL     1     -12.332  -5.753  -3.943  0.00  0.00    +0.000 C 
ATOM     22  H   UNL     1     -12.140  -6.773  -4.286  0.00  0.00    +0.000 HD
ATOM     23  H   UNL     1     -12.963  -5.758  -3.050  0.00  0.00    +0.000 HD
ATOM     24  H   UNL     1     -11.377  -5.284  -3.692  0.00  0.00    +0.000 HD
ENDBRANCH  20  21
ENDBRANCH  18  20
ENDBRANCH  15  18
ENDBRANCH   2  15
TORSDOF 7
ENDMDL
MODEL 6
REMARK VINA RESULT:    -3.760     31.702     32.640
REMARK INTER + INTRA:          -5.640
REMARK INTER:                  -5.332
REMARK INTRA:                  -0.308
REMARK UNBOUND:                -0.561
REMARK  Name = 5363374
REMARK  7 active torsions:
REMARK  status: ('A' for Active; 'I' for Inactive)
REMARK    1  A    between atoms: O_1  and  C_8
REMARK    2  A    between atoms: O_1  and  C_9
REMARK    3  A    between atoms: C_3  and  C_4
REMARK    4  A    between atoms: C_3  and  C_5
REMARK    5  A    between atoms: C_4  and  C_6
REMARK    6  A    between atoms: C_7  and  C_8
REMARK    7  A    between atoms: C_9  and  C_10
REMARK                            x       y       z     vdW  Elec       q    Type
REMARK                         _______ _______ _______ _____ _____    ______ ____
ROOT
ATOM      1  C   UNL     1       3.777   6.236 -19.702  0.00  0.00    +0.000 C 
ATOM      2  C   UNL     1       2.525   5.970 -20.101  0.00  0.00    +0.000 C 
ATOM      3  H   UNL     1       4.082   7.272 -19.589  0.00  0.00    +0.000 HD
ATOM      4  H   UNL     1       1.856   6.801 -20.312  0.00  0.00    +0.000 HD
ENDROOT
BRANCH   1   5
ATOM      5  C   UNL     1       4.793   5.179 -19.376  0.00  0.00    +0.000 C 
ATOM      6  H   UNL     1       5.440   5.057 -20.254  0.00  0.00    +0.000 HD
ATOM      7  H   UNL     1       4.336   4.196 -19.225  0.00  0.00    +0.000 HD
BRANCH   5   8
ATOM      8  C   UNL     1       5.647   5.583 -18.174  0.00  0.00    +0.000 C 
ATOM      9  H   UNL     1       5.010   5.774 -17.301  0.00  0.00    +0.000 HD
ATOM     10  H   UNL     1       6.184   6.516 -18.390  0.00  0.00    +0.000 HD
BRANCH   8  11
ATOM     11  C   UNL     1       6.654   4.501 -17.819  0.00  0.00    +0.000 C 
ATOM     12  H   UNL     1       6.765   4.427 -16.733  0.00  0.00    +0.000 HD
ATOM     13  H   UNL     1       6.329   3.525 -18.194  0.00  0.00    +0.000 HD
ATOM     14  H   UNL     1       7.637   4.725 -18.246  0.00  0.00    +0.000 HD
ENDBRANCH   8  11
ENDBRANCH   5   8
ENDBRANCH   1   5
BRANCH   2  15
ATOM     15  C   UNL     1       1.985   4.588 -20.272  0.00  0.00    +0.000 C 
ATOM     16  H   UNL     1       2.449   3.942 -19.517  0.00  0.00    +0.000 HD
ATOM     17  H   UNL     1       0.901   4.516 -20.155  0.00  0.00    +0.000 HD
BRANCH  15  18
ATOM     18  O   UNL     1       2.337   4.117 -21.565  0.00  0.00    +0.000 OA
BRANCH  18  20
ATOM     19  O   UNL     1       2.443   2.089 -22.666  0.00  0.00    +0.000 OA
ATOM     20  C   UNL     1       2.583   2.775 -21.663  0.00  0.00    +0.000 C 
BRANCH  20  21
ATOM     21  C   UNL     1       3.059   2.246 -20.344  0.00  0.00    +0.000 C 
ATOM     22  H   UNL     1       2.724   2.903 -19.538  0.00  0.00    +0.000 HD
ATOM     23  H   UNL     1       4.149   2.166 -20.349  0.00  0.00    +0.000 HD
ATOM     24  H   UNL     1       2.637   1.250 -20.179  0.00  0.00    +0.000 HD
ENDBRANCH  20  21
ENDBRANCH  18  20
ENDBRANCH  15  18
ENDBRANCH   2  15
TORSDOF 7
ENDMDL
MODEL 7
REMARK VINA RESULT:    -3.736     12.949     14.501
REMARK INTER + INTRA:          -5.607
REMARK INTER:                  -5.405
REMARK INTRA:                  -0.202
REMARK UNBOUND:                -0.561
REMARK  Name = 5363374
REMARK  7 active torsions:
REMARK  status: ('A' for Active; 'I' for Inactive)
REMARK    1  A    between atoms: O_1  and  C_8
REMARK    2  A    between atoms: O_1  and  C_9
REMARK    3  A    between atoms: C_3  and  C_4
REMARK    4  A    between atoms: C_3  and  C_5
REMARK    5  A    between atoms: C_4  and  C_6
REMARK    6  A    between atoms: C_7  and  C_8
REMARK    7  A    between atoms: C_9  and  C_10
REMARK                            x       y       z     vdW  Elec       q    Type
REMARK                         _______ _______ _______ _____ _____    ______ ____
ROOT
ATOM      1  C   UNL     1     -17.738  -5.993  -2.194  0.00  0.00    +0.000 C 
ATOM      2  C   UNL     1     -16.438  -6.048  -2.519  0.00  0.00    +0.000 C 
ATOM      3  H   UNL     1     -18.013  -5.714  -1.181  0.00  0.00    +0.000 HD
ATOM      4  H   UNL     1     -15.698  -5.824  -1.755  0.00  0.00    +0.000 HD
ENDROOT
BRANCH   1   5
ATOM      5  C   UNL     1     -18.853  -6.274  -3.159  0.00  0.00    +0.000 C 
ATOM      6  H   UNL     1     -18.712  -7.292  -3.543  0.00  0.00    +0.000 HD
ATOM      7  H   UNL     1     -18.810  -5.631  -4.044  0.00  0.00    +0.000 HD
BRANCH   5   8
ATOM      8  C   UNL     1     -20.216  -6.180  -2.473  0.00  0.00    +0.000 C 
ATOM      9  H   UNL     1     -20.497  -7.152  -2.048  0.00  0.00    +0.000 HD
ATOM     10  H   UNL     1     -20.989  -5.915  -3.205  0.00  0.00    +0.000 HD
BRANCH   8  11
ATOM     11  C   UNL     1     -20.208  -5.143  -1.361  0.00  0.00    +0.000 C 
ATOM     12  H   UNL     1     -21.118  -5.225  -0.758  0.00  0.00    +0.000 HD
ATOM     13  H   UNL     1     -19.349  -5.286  -0.697  0.00  0.00    +0.000 HD
ATOM     14  H   UNL     1     -20.163  -4.129  -1.770  0.00  0.00    +0.000 HD
ENDBRANCH   8  11
ENDBRANCH   5   8
ENDBRANCH   1   5
BRANCH   2  15
ATOM     15  C   UNL     1     -15.938  -6.396  -3.883  0.00  0.00    +0.000 C 
ATOM     16  H   UNL     1     -16.521  -7.248  -4.255  0.00  0.00    +0.000 HD
ATOM     17  H   UNL     1     -16.025  -5.586  -4.610  0.00  0.00    +0.000 HD
BRANCH  15  18
ATOM     18  O   UNL     1     -14.573  -6.777  -3.785  0.00  0.00    +0.000 OA
BRANCH  18  20
ATOM     19  O   UNL     1     -13.896  -5.612  -5.661  0.00  0.00    +0.000 OA
ATOM     20  C   UNL     1     -13.695  -6.043  -4.534  0.00  0.00    +0.000 C 
BRANCH  20  21
ATOM     21  C   UNL     1     -12.423  -5.834  -3.770  0.00  0.00    +0.000 C 
ATOM     22  H   UNL     1     -11.887  -6.781  -3.676  0.00  0.00    +0.000 HD
ATOM     23  H   UNL     1     -12.648  -5.418  -2.784  0.00  0.00    +0.000 HD
ATOM     24  H   UNL     1     -11.788  -5.126  -4.310  0.00  0.00    +0.000 HD
ENDBRANCH  20  21
ENDBRANCH  18  20
ENDBRANCH  15  18
ENDBRANCH   2  15
TORSDOF 7
ENDMDL
MODEL 8
REMARK VINA RESULT:    -3.655     29.282     30.592
REMARK INTER + INTRA:          -5.499
REMARK INTER:                  -5.226
REMARK INTRA:                  -0.273
REMARK UNBOUND:                -0.561
REMARK  Name = 5363374
REMARK  7 active torsions:
REMARK  status: ('A' for Active; 'I' for Inactive)
REMARK    1  A    between atoms: O_1  and  C_8
REMARK    2  A    between atoms: O_1  and  C_9
REMARK    3  A    between atoms: C_3  and  C_4
REMARK    4  A    between atoms: C_3  and  C_5
REMARK    5  A    between atoms: C_4  and  C_6
REMARK    6  A    between atoms: C_7  and  C_8
REMARK    7  A    between atoms: C_9  and  C_10
REMARK                            x       y       z     vdW  Elec       q    Type
REMARK                         _______ _______ _______ _____ _____    ______ ____
ROOT
ATOM      1  C   UNL     1      15.766   4.552   0.226  0.00  0.00    +0.000 C 
ATOM      2  C   UNL     1      15.852   5.602  -0.604  0.00  0.00    +0.000 C 
ATOM      3  H   UNL     1      16.138   4.655   1.241  0.00  0.00    +0.000 HD
ATOM      4  H   UNL     1      16.304   6.521  -0.239  0.00  0.00    +0.000 HD
ENDROOT
BRANCH   1   5
ATOM      5  C   UNL     1      15.159   3.233  -0.156  0.00  0.00    +0.000 C 
ATOM      6  H   UNL     1      15.952   2.476  -0.107  0.00  0.00    +0.000 HD
ATOM      7  H   UNL     1      14.819   3.217  -1.197  0.00  0.00    +0.000 HD
BRANCH   5   8
ATOM      8  C   UNL     1      14.032   2.844   0.801  0.00  0.00    +0.000 C 
ATOM      9  H   UNL     1      14.331   3.034   1.839  0.00  0.00    +0.000 HD
ATOM     10  H   UNL     1      13.822   1.770   0.719  0.00  0.00    +0.000 HD
BRANCH   8  11
ATOM     11  C   UNL     1      12.759   3.622   0.507  0.00  0.00    +0.000 C 
ATOM     12  H   UNL     1      12.069   3.012  -0.085  0.00  0.00    +0.000 HD
ATOM     13  H   UNL     1      12.250   3.907   1.433  0.00  0.00    +0.000 HD
ATOM     14  H   UNL     1      12.979   4.533  -0.060  0.00  0.00    +0.000 HD
ENDBRANCH   8  11
ENDBRANCH   5   8
ENDBRANCH   1   5
BRANCH   2  15
ATOM     15  C   UNL     1      15.355   5.589  -2.013  0.00  0.00    +0.000 C 
ATOM     16  H   UNL     1      15.624   4.625  -2.463  0.00  0.00    +0.000 HD
ATOM     17  H   UNL     1      14.274   5.713  -2.105  0.00  0.00    +0.000 HD
BRANCH  15  18
ATOM     18  O   UNL     1      15.998   6.631  -2.733  0.00  0.00    +0.000 OA
BRANCH  18  20
ATOM     19  O   UNL     1      14.248   7.662  -3.833  0.00  0.00    +0.000 OA
ATOM     20  C   UNL     1      15.208   7.694  -3.075  0.00  0.00    +0.000 C 
BRANCH  20  21
ATOM     21  C   UNL     1      15.687   8.932  -2.379  0.00  0.00    +0.000 C 
ATOM     22  H   UNL     1      15.001   9.758  -2.577  0.00  0.00    +0.000 HD
ATOM     23  H   UNL     1      16.697   9.178  -2.717  0.00  0.00    +0.000 HD
ATOM     24  H   UNL     1      15.715   8.753  -1.300  0.00  0.00    +0.000 HD
ENDBRANCH  20  21
ENDBRANCH  18  20
ENDBRANCH  15  18
ENDBRANCH   2  15
TORSDOF 7
ENDMDL
MODEL 9
REMARK VINA RESULT:    -3.489     30.771     32.156
REMARK INTER + INTRA:          -5.274
REMARK INTER:                  -4.834
REMARK INTRA:                  -0.441
REMARK UNBOUND:                -0.561
REMARK  Name = 5363374
REMARK  7 active torsions:
REMARK  status: ('A' for Active; 'I' for Inactive)
REMARK    1  A    between atoms: O_1  and  C_8
REMARK    2  A    between atoms: O_1  and  C_9
REMARK    3  A    between atoms: C_3  and  C_4
REMARK    4  A    between atoms: C_3  and  C_5
REMARK    5  A    between atoms: C_4  and  C_6
REMARK    6  A    between atoms: C_7  and  C_8
REMARK    7  A    between atoms: C_9  and  C_10
REMARK                            x       y       z     vdW  Elec       q    Type
REMARK                         _______ _______ _______ _____ _____    ______ ____
ROOT
ATOM      1  C   UNL     1       3.024   2.611 -20.527  0.00  0.00    +0.000 C 
ATOM      2  C   UNL     1       1.874   2.228 -19.954  0.00  0.00    +0.000 C 
ATOM      3  H   UNL     1       3.825   1.884 -20.634  0.00  0.00    +0.000 HD
ATOM      4  H   UNL     1       1.782   1.205 -19.600  0.00  0.00    +0.000 HD
ENDROOT
BRANCH   1   5
ATOM      5  C   UNL     1       3.273   3.993 -21.061  0.00  0.00    +0.000 C 
ATOM      6  H   UNL     1       2.297   4.442 -21.286  0.00  0.00    +0.000 HD
ATOM      7  H   UNL     1       3.804   3.980 -22.018  0.00  0.00    +0.000 HD
BRANCH   5   8
ATOM      8  C   UNL     1       4.001   4.860 -20.034  0.00  0.00    +0.000 C 
ATOM      9  H   UNL     1       4.944   5.235 -20.452  0.00  0.00    +0.000 HD
ATOM     10  H   UNL     1       4.257   4.264 -19.150  0.00  0.00    +0.000 HD
BRANCH   8  11
ATOM     11  C   UNL     1       3.150   6.046 -19.605  0.00  0.00    +0.000 C 
ATOM     12  H   UNL     1       3.339   6.904 -20.257  0.00  0.00    +0.000 HD
ATOM     13  H   UNL     1       2.084   5.804 -19.663  0.00  0.00    +0.000 HD
ATOM     14  H   UNL     1       3.381   6.343 -18.577  0.00  0.00    +0.000 HD
ENDBRANCH   8  11
ENDBRANCH   5   8
ENDBRANCH   1   5
BRANCH   2  15
ATOM     15  C   UNL     1       0.697   3.130 -19.773  0.00  0.00    +0.000 C 
ATOM     16  H   UNL     1       0.312   2.991 -18.755  0.00  0.00    +0.000 HD
ATOM     17  H   UNL     1       0.923   4.190 -19.906  0.00  0.00    +0.000 HD
BRANCH  15  18
ATOM     18  O   UNL     1      -0.309   2.758 -20.704  0.00  0.00    +0.000 OA
BRANCH  18  20
ATOM     19  O   UNL     1      -0.331   4.826 -21.734  0.00  0.00    +0.000 OA
ATOM     20  C   UNL     1      -0.493   3.613 -21.755  0.00  0.00    +0.000 C 
BRANCH  20  21
ATOM     21  C   UNL     1      -0.931   2.846 -22.967  0.00  0.00    +0.000 C 
ATOM     22  H   UNL     1      -1.984   2.570 -22.870  0.00  0.00    +0.000 HD
ATOM     23  H   UNL     1      -0.307   1.955 -23.085  0.00  0.00    +0.000 HD
ATOM     24  H   UNL     1      -0.814   3.473 -23.855  0.00  0.00    +0.000 HD
ENDBRANCH  20  21
ENDBRANCH  18  20
ENDBRANCH  15  18
ENDBRANCH   2  15
TORSDOF 7
ENDMDL
MODEL 10
REMARK VINA RESULT:    -3.422     31.155     32.267
REMARK INTER + INTRA:          -5.183
REMARK INTER:                  -4.622
REMARK INTRA:                  -0.561
REMARK UNBOUND:                -0.561
REMARK  Name = 5363374
REMARK  7 active torsions:
REMARK  status: ('A' for Active; 'I' for Inactive)
REMARK    1  A    between atoms: O_1  and  C_8
REMARK    2  A    between atoms: O_1  and  C_9
REMARK    3  A    between atoms: C_3  and  C_4
REMARK    4  A    between atoms: C_3  and  C_5
REMARK    5  A    between atoms: C_4  and  C_6
REMARK    6  A    between atoms: C_7  and  C_8
REMARK    7  A    between atoms: C_9  and  C_10
REMARK                            x       y       z     vdW  Elec       q    Type
REMARK                         _______ _______ _______ _____ _____    ______ ____
ROOT
ATOM      1  C   UNL     1       1.648   2.362 -19.984  0.00  0.00    +0.000 C 
ATOM      2  C   UNL     1       2.781   2.762 -20.580  0.00  0.00    +0.000 C 
ATOM      3  H   UNL     1       1.580   1.340 -19.620  0.00  0.00    +0.000 HD
ATOM      4  H   UNL     1       3.593   2.048 -20.692  0.00  0.00    +0.000 HD
ENDROOT
BRANCH   1   5
ATOM      5  C   UNL     1       0.460   3.253 -19.764  0.00  0.00    +0.000 C 
ATOM      6  H   UNL     1       0.790   4.289 -19.913  0.00  0.00    +0.000 HD
ATOM      7  H   UNL     1       0.100   3.219 -18.731  0.00  0.00    +0.000 HD
BRANCH   5   8
ATOM      8  C   UNL     1      -0.662   2.934 -20.752  0.00  0.00    +0.000 C 
ATOM      9  H   UNL     1      -1.637   2.987 -20.252  0.00  0.00    +0.000 HD
ATOM     10  H   UNL     1      -0.551   1.911 -21.132  0.00  0.00    +0.000 HD
BRANCH   8  11
ATOM     11  C   UNL     1      -0.660   3.902 -21.925  0.00  0.00    +0.000 C 
ATOM     12  H   UNL     1       0.278   3.820 -22.483  0.00  0.00    +0.000 HD
ATOM     13  H   UNL     1      -1.483   3.685 -22.614  0.00  0.00    +0.000 HD
ATOM     14  H   UNL     1      -0.762   4.936 -21.581  0.00  0.00    +0.000 HD
ENDBRANCH   8  11
ENDBRANCH   5   8
ENDBRANCH   1   5
BRANCH   2  15
ATOM     15  C   UNL     1       3.001   4.145 -21.100  0.00  0.00    +0.000 C 
ATOM     16  H   UNL     1       3.610   4.076 -22.010  0.00  0.00    +0.000 HD
ATOM     17  H   UNL     1       2.081   4.678 -21.349  0.00  0.00    +0.000 HD
BRANCH  15  18
ATOM     18  O   UNL     1       3.711   4.892 -20.122  0.00  0.00    +0.000 OA
BRANCH  18  20
ATOM     19  O   UNL     1       3.429   6.723 -18.742  0.00  0.00    +0.000 OA
ATOM     20  C   UNL     1       3.125   6.062 -19.726  0.00  0.00    +0.000 C 
BRANCH  20  21
ATOM     21  C   UNL     1       2.032   6.435 -20.682  0.00  0.00    +0.000 C 
ATOM     22  H   UNL     1       1.895   5.639 -21.417  0.00  0.00    +0.000 HD
ATOM     23  H   UNL     1       2.280   7.379 -21.176  0.00  0.00    +0.000 HD
ATOM     24  H   UNL     1       1.097   6.566 -20.131  0.00  0.00    +0.000 HD
ENDBRANCH  20  21
ENDBRANCH  18  20
ENDBRANCH  15  18
ENDBRANCH   2  15
TORSDOF 7
ENDMDL
