MODEL 1
REMARK VINA RESULT:    -5.051      0.000      0.000
REMARK INTER + INTRA:          -6.712
REMARK INTER:                  -6.312
REMARK INTRA:                  -0.400
REMARK UNBOUND:                -0.480
REMARK  Name = 6877
REMARK  5 active torsions:
REMARK  status: ('A' for Active; 'I' for Inactive)
REMARK    1  A    between atoms: O_1  and  C_8
REMARK    2  A    between atoms: O_1  and  C_10
REMARK    3  A    between atoms: N_3  and  C_5
REMARK    4  A    between atoms: C_4  and  C_8
REMARK    5  A    between atoms: C_10  and  C_12
REMARK                            x       y       z     vdW  Elec       q    Type
REMARK                         _______ _______ _______ _____ _____    ______ ____
ROOT
ATOM      1  C   UNL     1      14.814   5.364  -1.212  0.00  0.00    +0.000 A 
ATOM      2  C   UNL     1      13.584   5.577  -0.589  0.00  0.00    +0.000 A 
ATOM      3  C   UNL     1      15.551   4.215  -0.926  0.00  0.00    +0.000 A 
ATOM      4  C   UNL     1      13.091   4.640   0.320  0.00  0.00    +0.000 A 
ATOM      5  C   UNL     1      15.058   3.279  -0.016  0.00  0.00    +0.000 A 
ATOM      6  C   UNL     1      13.829   3.491   0.606  0.00  0.00    +0.000 A 
ATOM      7  H   UNL     1      16.506   4.012  -1.403  0.00  0.00    +0.000 HD
ATOM      8  H   UNL     1      12.134   4.793   0.811  0.00  0.00    +0.000 HD
ATOM      9  H   UNL     1      15.631   2.383   0.203  0.00  0.00    +0.000 HD
ATOM     10  H   UNL     1      13.445   2.761   1.313  0.00  0.00    +0.000 HD
ENDROOT
BRANCH   2  11
ATOM     11  N   UNL     1      12.821   6.734  -0.865  0.00  0.00    +0.000 N 
ATOM     12  H   UNL     1      13.211   7.496  -1.401  0.00  0.00    +0.000 HD
ATOM     13  H   UNL     1      11.877   6.807  -0.510  0.00  0.00    +0.000 HD
ENDBRANCH   2  11
BRANCH   1  15
ATOM     14  O   UNL     1      14.756   6.725  -3.169  0.00  0.00    +0.000 OA
ATOM     15  C   UNL     1      15.356   6.324  -2.166  0.00  0.00    +0.000 C 
BRANCH  15  16
ATOM     16  O   UNL     1      16.614   6.725  -1.811  0.00  0.00    +0.000 OA
BRANCH  16  17
ATOM     17  C   UNL     1      16.941   8.099  -2.045  0.00  0.00    +0.000 C 
ATOM     18  H   UNL     1      16.061   8.620  -2.437  0.00  0.00    +0.000 HD
ATOM     19  H   UNL     1      17.251   8.565  -1.103  0.00  0.00    +0.000 HD
BRANCH  17  20
ATOM     20  C   UNL     1      18.071   8.172  -3.049  0.00  0.00    +0.000 C 
ATOM     21  H   UNL     1      18.776   8.967  -2.789  0.00  0.00    +0.000 HD
ATOM     22  H   UNL     1      18.612   7.221  -3.090  0.00  0.00    +0.000 HD
ATOM     23  H   UNL     1      17.682   8.359  -4.055  0.00  0.00    +0.000 HD
ENDBRANCH  17  20
ENDBRANCH  16  17
ENDBRANCH  15  16
ENDBRANCH   1  15
TORSDOF 5
ENDMDL
MODEL 2
REMARK VINA RESULT:    -4.884     28.539     29.942
REMARK INTER + INTRA:          -6.506
REMARK INTER:                  -6.094
REMARK INTRA:                  -0.412
REMARK UNBOUND:                -0.480
REMARK  Name = 6877
REMARK  5 active torsions:
REMARK  status: ('A' for Active; 'I' for Inactive)
REMARK    1  A    between atoms: O_1  and  C_8
REMARK    2  A    between atoms: O_1  and  C_10
REMARK    3  A    between atoms: N_3  and  C_5
REMARK    4  A    between atoms: C_4  and  C_8
REMARK    5  A    between atoms: C_10  and  C_12
REMARK                            x       y       z     vdW  Elec       q    Type
REMARK                         _______ _______ _______ _____ _____    ______ ____
ROOT
ATOM      1  C   UNL     1      -6.472 -13.761   4.554  0.00  0.00    +0.000 A 
ATOM      2  C   UNL     1      -6.109 -15.070   4.871  0.00  0.00    +0.000 A 
ATOM      3  C   UNL     1      -7.480 -13.123   5.275  0.00  0.00    +0.000 A 
ATOM      4  C   UNL     1      -6.753 -15.739   5.912  0.00  0.00    +0.000 A 
ATOM      5  C   UNL     1      -8.125 -13.793   6.315  0.00  0.00    +0.000 A 
ATOM      6  C   UNL     1      -7.761 -15.100   6.634  0.00  0.00    +0.000 A 
ATOM      7  H   UNL     1      -7.779 -12.099   5.063  0.00  0.00    +0.000 HD
ATOM      8  H   UNL     1      -6.479 -16.759   6.171  0.00  0.00    +0.000 HD
ATOM      9  H   UNL     1      -8.907 -13.293   6.880  0.00  0.00    +0.000 HD
ATOM     10  H   UNL     1      -8.262 -15.622   7.445  0.00  0.00    +0.000 HD
ENDROOT
BRANCH   2  11
ATOM     11  N   UNL     1      -5.090 -15.735   4.152  0.00  0.00    +0.000 N 
ATOM     12  H   UNL     1      -4.852 -16.695   4.358  0.00  0.00    +0.000 HD
ATOM     13  H   UNL     1      -4.582 -15.240   3.431  0.00  0.00    +0.000 HD
ENDBRANCH   2  11
BRANCH   1  15
ATOM     14  O   UNL     1      -5.213 -11.967   3.616  0.00  0.00    +0.000 OA
ATOM     15  C   UNL     1      -5.819 -13.034   3.472  0.00  0.00    +0.000 C 
BRANCH  15  16
ATOM     16  O   UNL     1      -5.960 -13.683   2.277  0.00  0.00    +0.000 OA
BRANCH  16  17
ATOM     17  C   UNL     1      -7.253 -13.630   1.664  0.00  0.00    +0.000 C 
ATOM     18  H   UNL     1      -7.851 -14.482   2.005  0.00  0.00    +0.000 HD
ATOM     19  H   UNL     1      -7.753 -12.698   1.949  0.00  0.00    +0.000 HD
BRANCH  17  20
ATOM     20  C   UNL     1      -7.088 -13.685   0.161  0.00  0.00    +0.000 C 
ATOM     21  H   UNL     1      -6.752 -14.676  -0.159  0.00  0.00    +0.000 HD
ATOM     22  H   UNL     1      -8.035 -13.455  -0.340  0.00  0.00    +0.000 HD
ATOM     23  H   UNL     1      -6.361 -12.939  -0.176  0.00  0.00    +0.000 HD
ENDBRANCH  17  20
ENDBRANCH  16  17
ENDBRANCH  15  16
ENDBRANCH   1  15
TORSDOF 5
ENDMDL
MODEL 3
REMARK VINA RESULT:    -4.713     23.403     24.309
REMARK INTER + INTRA:          -6.294
REMARK INTER:                  -5.806
REMARK INTRA:                  -0.488
REMARK UNBOUND:                -0.480
REMARK  Name = 6877
REMARK  5 active torsions:
REMARK  status: ('A' for Active; 'I' for Inactive)
REMARK    1  A    between atoms: O_1  and  C_8
REMARK    2  A    between atoms: O_1  and  C_10
REMARK    3  A    between atoms: N_3  and  C_5
REMARK    4  A    between atoms: C_4  and  C_8
REMARK    5  A    between atoms: C_10  and  C_12
REMARK                            x       y       z     vdW  Elec       q    Type
REMARK                         _______ _______ _______ _____ _____    ______ ____
ROOT
ATOM      1  C   UNL     1       1.297   4.505 -20.403  0.00  0.00    +0.000 A 
ATOM      2  C   UNL     1       1.398   5.808 -19.916  0.00  0.00    +0.000 A 
ATOM      3  C   UNL     1       2.444   3.725 -20.550  0.00  0.00    +0.000 A 
ATOM      4  C   UNL     1       2.646   6.331 -19.575  0.00  0.00    +0.000 A 
ATOM      5  C   UNL     1       3.691   4.248 -20.210  0.00  0.00    +0.000 A 
ATOM      6  C   UNL     1       3.793   5.550 -19.722  0.00  0.00    +0.000 A 
ATOM      7  H   UNL     1       2.399   2.701 -20.913  0.00  0.00    +0.000 HD
ATOM      8  H   UNL     1       2.739   7.344 -19.194  0.00  0.00    +0.000 HD
ATOM      9  H   UNL     1       4.583   3.638 -20.321  0.00  0.00    +0.000 HD
ATOM     10  H   UNL     1       4.764   5.957 -19.457  0.00  0.00    +0.000 HD
ENDROOT
BRANCH   2  11
ATOM     11  N   UNL     1       0.249   6.616 -19.760  0.00  0.00    +0.000 N 
ATOM     12  H   UNL     1      -0.674   6.205 -19.738  0.00  0.00    +0.000 HD
ATOM     13  H   UNL     1       0.349   7.619 -19.682  0.00  0.00    +0.000 HD
ENDBRANCH   2  11
BRANCH   1  15
ATOM     14  O   UNL     1      -0.483   2.928 -20.237  0.00  0.00    +0.000 OA
ATOM     15  C   UNL     1       0.008   3.930 -20.768  0.00  0.00    +0.000 C 
BRANCH  15  16
ATOM     16  O   UNL     1      -0.590   4.641 -21.772  0.00  0.00    +0.000 OA
BRANCH  16  17
ATOM     17  C   UNL     1      -0.102   4.413 -23.099  0.00  0.00    +0.000 C 
ATOM     18  H   UNL     1      -0.248   5.319 -23.699  0.00  0.00    +0.000 HD
ATOM     19  H   UNL     1       0.964   4.170 -23.059  0.00  0.00    +0.000 HD
BRANCH  17  20
ATOM     20  C   UNL     1      -0.869   3.262 -23.715  0.00  0.00    +0.000 C 
ATOM     21  H   UNL     1      -0.975   3.396 -24.795  0.00  0.00    +0.000 HD
ATOM     22  H   UNL     1      -0.357   2.313 -23.524  0.00  0.00    +0.000 HD
ATOM     23  H   UNL     1      -1.866   3.181 -23.269  0.00  0.00    +0.000 HD
ENDBRANCH  17  20
ENDBRANCH  16  17
ENDBRANCH  15  16
ENDBRANCH   1  15
TORSDOF 5
ENDMDL
MODEL 4
REMARK VINA RESULT:    -4.693     29.442     30.545
REMARK INTER + INTRA:          -6.270
REMARK INTER:                  -5.827
REMARK INTRA:                  -0.442
REMARK UNBOUND:                -0.480
REMARK  Name = 6877
REMARK  5 active torsions:
REMARK  status: ('A' for Active; 'I' for Inactive)
REMARK    1  A    between atoms: O_1  and  C_8
REMARK    2  A    between atoms: O_1  and  C_10
REMARK    3  A    between atoms: N_3  and  C_5
REMARK    4  A    between atoms: C_4  and  C_8
REMARK    5  A    between atoms: C_10  and  C_12
REMARK                            x       y       z     vdW  Elec       q    Type
REMARK                         _______ _______ _______ _____ _____    ______ ____
ROOT
ATOM      1  C   UNL     1      -7.014 -14.024   2.531  0.00  0.00    +0.000 A 
ATOM      2  C   UNL     1      -7.195 -15.404   2.440  0.00  0.00    +0.000 A 
ATOM      3  C   UNL     1      -6.988 -13.246   1.374  0.00  0.00    +0.000 A 
ATOM      4  C   UNL     1      -7.350 -16.006   1.191  0.00  0.00    +0.000 A 
ATOM      5  C   UNL     1      -7.142 -13.848   0.125  0.00  0.00    +0.000 A 
ATOM      6  C   UNL     1      -7.324 -15.228   0.033  0.00  0.00    +0.000 A 
ATOM      7  H   UNL     1      -6.862 -12.167   1.410  0.00  0.00    +0.000 HD
ATOM      8  H   UNL     1      -7.492 -17.080   1.106  0.00  0.00    +0.000 HD
ATOM      9  H   UNL     1      -7.125 -13.242  -0.775  0.00  0.00    +0.000 HD
ATOM     10  H   UNL     1      -7.445 -15.697  -0.939  0.00  0.00    +0.000 HD
ENDROOT
BRANCH   2  11
ATOM     11  N   UNL     1      -7.224 -16.211   3.600  0.00  0.00    +0.000 N 
ATOM     12  H   UNL     1      -6.382 -16.392   4.127  0.00  0.00    +0.000 HD
ATOM     13  H   UNL     1      -8.098 -16.623   3.900  0.00  0.00    +0.000 HD
ENDBRANCH   2  11
BRANCH   1  15
ATOM     14  O   UNL     1      -5.778 -12.912   4.240  0.00  0.00    +0.000 OA
ATOM     15  C   UNL     1      -6.848 -13.365   3.821  0.00  0.00    +0.000 C 
BRANCH  15  16
ATOM     16  O   UNL     1      -8.029 -13.311   4.509  0.00  0.00    +0.000 OA
BRANCH  16  17
ATOM     17  C   UNL     1      -7.939 -13.189   5.933  0.00  0.00    +0.000 C 
ATOM     18  H   UNL     1      -6.988 -12.713   6.197  0.00  0.00    +0.000 HD
ATOM     19  H   UNL     1      -8.768 -12.576   6.300  0.00  0.00    +0.000 HD
BRANCH  17  20
ATOM     20  C   UNL     1      -8.009 -14.570   6.550  0.00  0.00    +0.000 C 
ATOM     21  H   UNL     1      -7.409 -14.622   7.463  0.00  0.00    +0.000 HD
ATOM     22  H   UNL     1      -9.045 -14.831   6.792  0.00  0.00    +0.000 HD
ATOM     23  H   UNL     1      -7.648 -15.326   5.845  0.00  0.00    +0.000 HD
ENDBRANCH  17  20
ENDBRANCH  16  17
ENDBRANCH  15  16
ENDBRANCH   1  15
TORSDOF 5
ENDMDL
MODEL 5
REMARK VINA RESULT:    -4.663     10.835     12.121
REMARK INTER + INTRA:          -6.233
REMARK INTER:                  -5.768
REMARK INTRA:                  -0.465
REMARK UNBOUND:                -0.480
REMARK  Name = 6877
REMARK  5 active torsions:
REMARK  status: ('A' for Active; 'I' for Inactive)
REMARK    1  A    between atoms: O_1  and  C_8
REMARK    2  A    between atoms: O_1  and  C_10
REMARK    3  A    between atoms: N_3  and  C_5
REMARK    4  A    between atoms: C_4  and  C_8
REMARK    5  A    between atoms: C_10  and  C_12
REMARK                            x       y       z     vdW  Elec       q    Type
REMARK                         _______ _______ _______ _____ _____    ______ ____
ROOT
ATOM      1  C   UNL     1      17.819  -5.069  -2.951  0.00  0.00    +0.000 A 
ATOM      2  C   UNL     1      18.799  -4.078  -2.882  0.00  0.00    +0.000 A 
ATOM      3  C   UNL     1      18.021  -6.194  -3.751  0.00  0.00    +0.000 A 
ATOM      4  C   UNL     1      19.980  -4.213  -3.612  0.00  0.00    +0.000 A 
ATOM      5  C   UNL     1      19.202  -6.328  -4.481  0.00  0.00    +0.000 A 
ATOM      6  C   UNL     1      20.181  -5.339  -4.412  0.00  0.00    +0.000 A 
ATOM      7  H   UNL     1      17.285  -6.992  -3.817  0.00  0.00    +0.000 HD
ATOM      8  H   UNL     1      20.751  -3.449  -3.566  0.00  0.00    +0.000 HD
ATOM      9  H   UNL     1      19.360  -7.207  -5.100  0.00  0.00    +0.000 HD
ATOM     10  H   UNL     1      21.101  -5.444  -4.979  0.00  0.00    +0.000 HD
ENDROOT
BRANCH   2  11
ATOM     11  N   UNL     1      18.614  -2.931  -2.078  0.00  0.00    +0.000 N 
ATOM     12  H   UNL     1      19.396  -2.495  -1.609  0.00  0.00    +0.000 HD
ATOM     13  H   UNL     1      17.686  -2.547  -1.959  0.00  0.00    +0.000 HD
ENDBRANCH   2  11
BRANCH   1  15
ATOM     14  O   UNL     1      15.457  -4.848  -2.718  0.00  0.00    +0.000 OA
ATOM     15  C   UNL     1      16.574  -4.958  -2.201  0.00  0.00    +0.000 C 
BRANCH  15  16
ATOM     16  O   UNL     1      16.799  -4.992  -0.853  0.00  0.00    +0.000 OA
BRANCH  16  17
ATOM     17  C   UNL     1      16.905  -6.287  -0.251  0.00  0.00    +0.000 C 
ATOM     18  H   UNL     1      17.337  -6.988  -0.973  0.00  0.00    +0.000 HD
ATOM     19  H   UNL     1      17.551  -6.226   0.631  0.00  0.00    +0.000 HD
BRANCH  17  20
ATOM     20  C   UNL     1      15.524  -6.755   0.156  0.00  0.00    +0.000 C 
ATOM     21  H   UNL     1      15.553  -7.785   0.523  0.00  0.00    +0.000 HD
ATOM     22  H   UNL     1      15.115  -6.112   0.942  0.00  0.00    +0.000 HD
ATOM     23  H   UNL     1      14.833  -6.701  -0.691  0.00  0.00    +0.000 HD
ENDBRANCH  17  20
ENDBRANCH  16  17
ENDBRANCH  15  16
ENDBRANCH   1  15
TORSDOF 5
ENDMDL
MODEL 6
REMARK VINA RESULT:    -4.596     23.073     24.004
REMARK INTER + INTRA:          -6.150
REMARK INTER:                  -5.627
REMARK INTRA:                  -0.523
REMARK UNBOUND:                -0.480
REMARK  Name = 6877
REMARK  5 active torsions:
REMARK  status: ('A' for Active; 'I' for Inactive)
REMARK    1  A    between atoms: O_1  and  C_8
REMARK    2  A    between atoms: O_1  and  C_10
REMARK    3  A    between atoms: N_3  and  C_5
REMARK    4  A    between atoms: C_4  and  C_8
REMARK    5  A    between atoms: C_10  and  C_12
REMARK                            x       y       z     vdW  Elec       q    Type
REMARK                         _______ _______ _______ _____ _____    ______ ____
ROOT
ATOM      1  C   UNL     1       1.714   4.362 -20.233  0.00  0.00    +0.000 A 
ATOM      2  C   UNL     1       2.781   3.491 -20.455  0.00  0.00    +0.000 A 
ATOM      3  C   UNL     1       1.956   5.667 -19.806  0.00  0.00    +0.000 A 
ATOM      4  C   UNL     1       4.091   3.927 -20.252  0.00  0.00    +0.000 A 
ATOM      5  C   UNL     1       3.266   6.102 -19.602  0.00  0.00    +0.000 A 
ATOM      6  C   UNL     1       4.333   5.233 -19.824  0.00  0.00    +0.000 A 
ATOM      7  H   UNL     1       1.149   6.376 -19.637  0.00  0.00    +0.000 HD
ATOM      8  H   UNL     1       4.931   3.259 -20.422  0.00  0.00    +0.000 HD
ATOM      9  H   UNL     1       3.454   7.120 -19.273  0.00  0.00    +0.000 HD
ATOM     10  H   UNL     1       5.352   5.572 -19.666  0.00  0.00    +0.000 HD
ENDROOT
BRANCH   2  11
ATOM     11  N   UNL     1       2.558   2.165 -20.888  0.00  0.00    +0.000 N 
ATOM     12  H   UNL     1       2.847   1.379 -20.323  0.00  0.00    +0.000 HD
ATOM     13  H   UNL     1       2.114   1.998 -21.782  0.00  0.00    +0.000 HD
ENDBRANCH   2  11
BRANCH   1  15
ATOM     14  O   UNL     1      -0.214   3.024 -19.810  0.00  0.00    +0.000 OA
ATOM     15  C   UNL     1       0.334   3.937 -20.437  0.00  0.00    +0.000 C 
BRANCH  15  16
ATOM     16  O   UNL     1      -0.278   4.677 -21.410  0.00  0.00    +0.000 OA
BRANCH  16  17
ATOM     17  C   UNL     1      -0.301   4.116 -22.727  0.00  0.00    +0.000 C 
ATOM     18  H   UNL     1       0.308   3.205 -22.744  0.00  0.00    +0.000 HD
ATOM     19  H   UNL     1      -1.333   3.869 -22.999  0.00  0.00    +0.000 HD
BRANCH  17  20
ATOM     20  C   UNL     1       0.260   5.128 -23.703  0.00  0.00    +0.000 C 
ATOM     21  H   UNL     1      -0.448   5.944 -23.870  0.00  0.00    +0.000 HD
ATOM     22  H   UNL     1       1.200   5.545 -23.327  0.00  0.00    +0.000 HD
ATOM     23  H   UNL     1       0.485   4.653 -24.664  0.00  0.00    +0.000 HD
ENDBRANCH  17  20
ENDBRANCH  16  17
ENDBRANCH  15  16
ENDBRANCH   1  15
TORSDOF 5
ENDMDL
MODEL 7
REMARK VINA RESULT:    -4.573     23.625     24.359
REMARK INTER + INTRA:          -6.123
REMARK INTER:                  -5.638
REMARK INTRA:                  -0.484
REMARK UNBOUND:                -0.480
REMARK  Name = 6877
REMARK  5 active torsions:
REMARK  status: ('A' for Active; 'I' for Inactive)
REMARK    1  A    between atoms: O_1  and  C_8
REMARK    2  A    between atoms: O_1  and  C_10
REMARK    3  A    between atoms: N_3  and  C_5
REMARK    4  A    between atoms: C_4  and  C_8
REMARK    5  A    between atoms: C_10  and  C_12
REMARK                            x       y       z     vdW  Elec       q    Type
REMARK                         _______ _______ _______ _____ _____    ______ ____
ROOT
ATOM      1  C   UNL     1       0.364   4.710 -20.669  0.00  0.00    +0.000 A 
ATOM      2  C   UNL     1      -0.242   4.966 -21.899  0.00  0.00    +0.000 A 
ATOM      3  C   UNL     1       0.476   3.399 -20.207  0.00  0.00    +0.000 A 
ATOM      4  C   UNL     1      -0.734   3.912 -22.668  0.00  0.00    +0.000 A 
ATOM      5  C   UNL     1      -0.017   2.344 -20.975  0.00  0.00    +0.000 A 
ATOM      6  C   UNL     1      -0.621   2.600 -22.205  0.00  0.00    +0.000 A 
ATOM      7  H   UNL     1       0.954   3.162 -19.259  0.00  0.00    +0.000 HD
ATOM      8  H   UNL     1      -1.207   4.097 -23.628  0.00  0.00    +0.000 HD
ATOM      9  H   UNL     1       0.074   1.323 -20.617  0.00  0.00    +0.000 HD
ATOM     10  H   UNL     1      -1.004   1.779 -22.804  0.00  0.00    +0.000 HD
ENDROOT
BRANCH   2  11
ATOM     11  N   UNL     1      -0.366   6.288 -22.385  0.00  0.00    +0.000 N 
ATOM     12  H   UNL     1       0.438   6.897 -22.442  0.00  0.00    +0.000 HD
ATOM     13  H   UNL     1      -1.273   6.634 -22.668  0.00  0.00    +0.000 HD
ENDBRANCH   2  11
BRANCH   1  15
ATOM     14  O   UNL     1       0.493   6.048 -18.700  0.00  0.00    +0.000 OA
ATOM     15  C   UNL     1       0.888   5.790 -19.842  0.00  0.00    +0.000 C 
BRANCH  15  16
ATOM     16  O   UNL     1       1.872   6.483 -20.490  0.00  0.00    +0.000 OA
BRANCH  16  17
ATOM     17  C   UNL     1       3.185   5.912 -20.464  0.00  0.00    +0.000 C 
ATOM     18  H   UNL     1       3.105   4.821 -20.388  0.00  0.00    +0.000 HD
ATOM     19  H   UNL     1       3.716   6.175 -21.385  0.00  0.00    +0.000 HD
BRANCH  17  20
ATOM     20  C   UNL     1       3.935   6.455 -19.266  0.00  0.00    +0.000 C 
ATOM     21  H   UNL     1       3.267   6.576 -18.409  0.00  0.00    +0.000 HD
ATOM     22  H   UNL     1       4.752   5.783 -18.986  0.00  0.00    +0.000 HD
ATOM     23  H   UNL     1       4.386   7.425 -19.502  0.00  0.00    +0.000 HD
ENDBRANCH  17  20
ENDBRANCH  16  17
ENDBRANCH  15  16
ENDBRANCH   1  15
TORSDOF 5
ENDMDL
MODEL 8
REMARK VINA RESULT:    -4.541     29.135     30.535
REMARK INTER + INTRA:          -6.083
REMARK INTER:                  -5.533
REMARK INTRA:                  -0.550
REMARK UNBOUND:                -0.480
REMARK  Name = 6877
REMARK  5 active torsions:
REMARK  status: ('A' for Active; 'I' for Inactive)
REMARK    1  A    between atoms: O_1  and  C_8
REMARK    2  A    between atoms: O_1  and  C_10
REMARK    3  A    between atoms: N_3  and  C_5
REMARK    4  A    between atoms: C_4  and  C_8
REMARK    5  A    between atoms: C_10  and  C_12
REMARK                            x       y       z     vdW  Elec       q    Type
REMARK                         _______ _______ _______ _____ _____    ______ ____
ROOT
ATOM      1  C   UNL     1      -7.396 -14.294   3.787  0.00  0.00    +0.000 A 
ATOM      2  C   UNL     1      -7.762 -15.525   4.331  0.00  0.00    +0.000 A 
ATOM      3  C   UNL     1      -7.438 -13.144   4.575  0.00  0.00    +0.000 A 
ATOM      4  C   UNL     1      -8.169 -15.606   5.663  0.00  0.00    +0.000 A 
ATOM      5  C   UNL     1      -7.847 -13.225   5.906  0.00  0.00    +0.000 A 
ATOM      6  C   UNL     1      -8.212 -14.455   6.450  0.00  0.00    +0.000 A 
ATOM      7  H   UNL     1      -7.147 -12.171   4.187  0.00  0.00    +0.000 HD
ATOM      8  H   UNL     1      -8.456 -16.559   6.099  0.00  0.00    +0.000 HD
ATOM      9  H   UNL     1      -7.876 -12.329   6.520  0.00  0.00    +0.000 HD
ATOM     10  H   UNL     1      -8.529 -14.519   7.487  0.00  0.00    +0.000 HD
ENDROOT
BRANCH   2  11
ATOM     11  N   UNL     1      -7.725 -16.703   3.551  0.00  0.00    +0.000 N 
ATOM     12  H   UNL     1      -7.924 -16.675   2.560  0.00  0.00    +0.000 HD
ATOM     13  H   UNL     1      -7.511 -17.588   3.991  0.00  0.00    +0.000 HD
ENDBRANCH   2  11
BRANCH   1  15
ATOM     14  O   UNL     1      -7.484 -13.420   1.571  0.00  0.00    +0.000 OA
ATOM     15  C   UNL     1      -6.965 -14.176   2.399  0.00  0.00    +0.000 C 
BRANCH  15  16
ATOM     16  O   UNL     1      -5.914 -15.008   2.130  0.00  0.00    +0.000 OA
BRANCH  16  17
ATOM     17  C   UNL     1      -4.609 -14.530   2.477  0.00  0.00    +0.000 C 
ATOM     18  H   UNL     1      -4.011 -14.417   1.566  0.00  0.00    +0.000 HD
ATOM     19  H   UNL     1      -4.698 -13.560   2.977  0.00  0.00    +0.000 HD
BRANCH  17  20
ATOM     20  C   UNL     1      -3.949 -15.528   3.404  0.00  0.00    +0.000 C 
ATOM     21  H   UNL     1      -3.874 -16.511   2.930  0.00  0.00    +0.000 HD
ATOM     22  H   UNL     1      -2.945 -15.191   3.681  0.00  0.00    +0.000 HD
ATOM     23  H   UNL     1      -4.520 -15.627   4.333  0.00  0.00    +0.000 HD
ENDBRANCH  17  20
ENDBRANCH  16  17
ENDBRANCH  15  16
ENDBRANCH   1  15
TORSDOF 5
ENDMDL
MODEL 9
REMARK VINA RESULT:    -4.509      2.596      4.205
REMARK INTER + INTRA:          -6.043
REMARK INTER:                  -5.557
REMARK INTRA:                  -0.485
REMARK UNBOUND:                -0.480
REMARK  Name = 6877
REMARK  5 active torsions:
REMARK  status: ('A' for Active; 'I' for Inactive)
REMARK    1  A    between atoms: O_1  and  C_8
REMARK    2  A    between atoms: O_1  and  C_10
REMARK    3  A    between atoms: N_3  and  C_5
REMARK    4  A    between atoms: C_4  and  C_8
REMARK    5  A    between atoms: C_10  and  C_12
REMARK                            x       y       z     vdW  Elec       q    Type
REMARK                         _______ _______ _______ _____ _____    ______ ____
ROOT
ATOM      1  C   UNL     1      13.879   5.483  -0.492  0.00  0.00    +0.000 A 
ATOM      2  C   UNL     1      13.567   6.757  -0.968  0.00  0.00    +0.000 A 
ATOM      3  C   UNL     1      15.039   4.842  -0.926  0.00  0.00    +0.000 A 
ATOM      4  C   UNL     1      14.416   7.389  -1.876  0.00  0.00    +0.000 A 
ATOM      5  C   UNL     1      15.888   5.474  -1.834  0.00  0.00    +0.000 A 
ATOM      6  C   UNL     1      15.577   6.748  -2.309  0.00  0.00    +0.000 A 
ATOM      7  H   UNL     1      15.319   3.855  -0.565  0.00  0.00    +0.000 HD
ATOM      8  H   UNL     1      14.186   8.382  -2.253  0.00  0.00    +0.000 HD
ATOM      9  H   UNL     1      16.793   4.976  -2.168  0.00  0.00    +0.000 HD
ATOM     10  H   UNL     1      16.238   7.241  -3.016  0.00  0.00    +0.000 HD
ENDROOT
BRANCH   2  11
ATOM     11  N   UNL     1      12.396   7.424  -0.541  0.00  0.00    +0.000 N 
ATOM     12  H   UNL     1      11.745   6.977   0.088  0.00  0.00    +0.000 HD
ATOM     13  H   UNL     1      12.201   8.356  -0.880  0.00  0.00    +0.000 HD
ENDBRANCH   2  11
BRANCH   1  15
ATOM     14  O   UNL     1      12.583   3.646   0.303  0.00  0.00    +0.000 OA
ATOM     15  C   UNL     1      13.012   4.795   0.457  0.00  0.00    +0.000 C 
BRANCH  15  16
ATOM     16  O   UNL     1      12.735   5.581   1.541  0.00  0.00    +0.000 OA
BRANCH  16  17
ATOM     17  C   UNL     1      13.778   5.732   2.510  0.00  0.00    +0.000 C 
ATOM     18  H   UNL     1      13.643   4.990   3.305  0.00  0.00    +0.000 HD
ATOM     19  H   UNL     1      14.749   5.578   2.028  0.00  0.00    +0.000 HD
BRANCH  17  20
ATOM     20  C   UNL     1      13.710   7.128   3.093  0.00  0.00    +0.000 C 
ATOM     21  H   UNL     1      14.712   7.513   3.303  0.00  0.00    +0.000 HD
ATOM     22  H   UNL     1      13.207   7.810   2.400  0.00  0.00    +0.000 HD
ATOM     23  H   UNL     1      13.128   7.130   4.020  0.00  0.00    +0.000 HD
ENDBRANCH  17  20
ENDBRANCH  16  17
ENDBRANCH  15  16
ENDBRANCH   1  15
TORSDOF 5
ENDMDL
MODEL 10
REMARK VINA RESULT:    -4.482     15.949     17.156
REMARK INTER + INTRA:          -6.009
REMARK INTER:                  -5.529
REMARK INTRA:                  -0.480
REMARK UNBOUND:                -0.480
REMARK  Name = 6877
REMARK  5 active torsions:
REMARK  status: ('A' for Active; 'I' for Inactive)
REMARK    1  A    between atoms: O_1  and  C_8
REMARK    2  A    between atoms: O_1  and  C_10
REMARK    3  A    between atoms: N_3  and  C_5
REMARK    4  A    between atoms: C_4  and  C_8
REMARK    5  A    between atoms: C_10  and  C_12
REMARK                            x       y       z     vdW  Elec       q    Type
REMARK                         _______ _______ _______ _____ _____    ______ ____
ROOT
ATOM      1  C   UNL     1      12.469  18.240 -11.735  0.00  0.00    +0.000 A 
ATOM      2  C   UNL     1      13.558  18.996 -12.168  0.00  0.00    +0.000 A 
ATOM      3  C   UNL     1      12.526  16.847 -11.779  0.00  0.00    +0.000 A 
ATOM      4  C   UNL     1      14.705  18.360 -12.644  0.00  0.00    +0.000 A 
ATOM      5  C   UNL     1      13.672  16.211 -12.256  0.00  0.00    +0.000 A 
ATOM      6  C   UNL     1      14.761  16.966 -12.688  0.00  0.00    +0.000 A 
ATOM      7  H   UNL     1      11.701  16.227 -11.437  0.00  0.00    +0.000 HD
ATOM      8  H   UNL     1      15.561  18.937 -12.983  0.00  0.00    +0.000 HD
ATOM      9  H   UNL     1      13.717  15.126 -12.287  0.00  0.00    +0.000 HD
ATOM     10  H   UNL     1      15.654  16.471 -13.058  0.00  0.00    +0.000 HD
ENDROOT
BRANCH   2  11
ATOM     11  N   UNL     1      13.521  20.409 -12.131  0.00  0.00    +0.000 N 
ATOM     12  H   UNL     1      14.276  20.957 -12.519  0.00  0.00    +0.000 HD
ATOM     13  H   UNL     1      12.736  20.877 -11.699  0.00  0.00    +0.000 HD
ENDBRANCH   2  11
BRANCH   1  15
ATOM     14  O   UNL     1      10.155  18.810 -11.788  0.00  0.00    +0.000 OA
ATOM     15  C   UNL     1      11.257  18.875 -11.233  0.00  0.00    +0.000 C 
BRANCH  15  16
ATOM     16  O   UNL     1      11.493  19.551 -10.068  0.00  0.00    +0.000 OA
BRANCH  16  17
ATOM     17  C   UNL     1      10.503  20.504  -9.665  0.00  0.00    +0.000 C 
ATOM     18  H   UNL     1       9.556  20.278 -10.168  0.00  0.00    +0.000 HD
ATOM     19  H   UNL     1      10.362  20.446  -8.580  0.00  0.00    +0.000 HD
BRANCH  17  20
ATOM     20  C   UNL     1      10.970  21.892 -10.048  0.00  0.00    +0.000 C 
ATOM     21  H   UNL     1      11.825  22.199  -9.439  0.00  0.00    +0.000 HD
ATOM     22  H   UNL     1      11.259  21.922 -11.104  0.00  0.00    +0.000 HD
ATOM     23  H   UNL     1      10.163  22.620  -9.919  0.00  0.00    +0.000 HD
ENDBRANCH  17  20
ENDBRANCH  16  17
ENDBRANCH  15  16
ENDBRANCH   1  15
TORSDOF 5
ENDMDL
