MODEL 1
REMARK VINA RESULT:    -4.728      0.000      0.000
REMARK INTER + INTRA:          -6.016
REMARK INTER:                  -5.810
REMARK INTRA:                  -0.207
REMARK UNBOUND:                -0.182
REMARK  Name = 8467
REMARK  5 active torsions:
REMARK  status: ('A' for Active; 'I' for Inactive)
REMARK    1  A    between atoms: O_1  and  C_4
REMARK    2  A    between atoms: O_1  and  C_8
REMARK    3  A    between atoms: O_2  and  C_6
REMARK    4  A    between atoms: C_7  and  C_12
REMARK    5  A    between atoms: C_8  and  C_11
REMARK                            x       y       z     vdW  Elec       q    Type
REMARK                         _______ _______ _______ _____ _____    ______ ____
ROOT
ATOM      1  C   UNL     1      15.579   6.180  -0.868  0.00  0.00    +0.000 A 
ATOM      2  C   UNL     1      16.788   6.705  -1.325  0.00  0.00    +0.000 A 
ATOM      3  C   UNL     1      14.378   6.585  -1.449  0.00  0.00    +0.000 A 
ATOM      4  C   UNL     1      16.796   7.635  -2.364  0.00  0.00    +0.000 A 
ATOM      5  C   UNL     1      14.386   7.515  -2.489  0.00  0.00    +0.000 A 
ATOM      6  C   UNL     1      15.594   8.040  -2.946  0.00  0.00    +0.000 A 
ATOM      7  H   UNL     1      17.719   6.391  -0.859  0.00  0.00    +0.000 HD
ATOM      8  H   UNL     1      13.457   7.839  -2.952  0.00  0.00    +0.000 HD
ATOM      9  H   UNL     1      15.584   8.764  -3.757  0.00  0.00    +0.000 HD
ENDROOT
BRANCH   4  11
ATOM     10  O   UNL     1      18.127   9.029  -3.736  0.00  0.00    +0.000 OA
ATOM     11  C   UNL     1      18.055   8.181  -2.842  0.00  0.00    +0.000 C 
ATOM     12  H   UNL     1      18.974   7.802  -2.362  0.00  0.00    +0.000 HD
ENDBRANCH   4  11
BRANCH   3  13
ATOM     13  O   UNL     1      13.192   6.080  -1.011  0.00  0.00    +0.000 OA
ATOM     14  H   UNL     1      13.367   5.324  -0.423  0.00  0.00    +0.000 HD
ENDBRANCH   3  13
BRANCH   1  15
ATOM     15  O   UNL     1      15.584   5.272   0.148  0.00  0.00    +0.000 OA
BRANCH  15  16
ATOM     16  C   UNL     1      15.838   3.912  -0.199  0.00  0.00    +0.000 C 
ATOM     17  H   UNL     1      16.021   3.809  -1.275  0.00  0.00    +0.000 HD
ATOM     18  H   UNL     1      16.725   3.566   0.345  0.00  0.00    +0.000 HD
BRANCH  16  19
ATOM     19  C   UNL     1      14.639   3.072   0.186  0.00  0.00    +0.000 C 
ATOM     20  H   UNL     1      14.545   2.201  -0.469  0.00  0.00    +0.000 HD
ATOM     21  H   UNL     1      14.727   2.727   1.222  0.00  0.00    +0.000 HD
ATOM     22  H   UNL     1      13.720   3.663   0.124  0.00  0.00    +0.000 HD
ENDBRANCH  16  19
ENDBRANCH  15  16
ENDBRANCH   1  15
TORSDOF 5
ENDMDL
MODEL 2
REMARK VINA RESULT:    -4.576     24.371     25.766
REMARK INTER + INTRA:          -5.828
REMARK INTER:                  -5.655
REMARK INTRA:                  -0.174
REMARK UNBOUND:                -0.182
REMARK  Name = 8467
REMARK  5 active torsions:
REMARK  status: ('A' for Active; 'I' for Inactive)
REMARK    1  A    between atoms: O_1  and  C_4
REMARK    2  A    between atoms: O_1  and  C_8
REMARK    3  A    between atoms: O_2  and  C_6
REMARK    4  A    between atoms: C_7  and  C_12
REMARK    5  A    between atoms: C_8  and  C_11
REMARK                            x       y       z     vdW  Elec       q    Type
REMARK                         _______ _______ _______ _____ _____    ______ ____
ROOT
ATOM      1  C   UNL     1       0.448   4.308 -21.068  0.00  0.00    +0.000 A 
ATOM      2  C   UNL     1       0.876   4.640 -22.353  0.00  0.00    +0.000 A 
ATOM      3  C   UNL     1      -0.528   3.328 -20.889  0.00  0.00    +0.000 A 
ATOM      4  C   UNL     1       0.328   3.992 -23.460  0.00  0.00    +0.000 A 
ATOM      5  C   UNL     1      -1.077   2.680 -21.995  0.00  0.00    +0.000 A 
ATOM      6  C   UNL     1      -0.650   3.012 -23.281  0.00  0.00    +0.000 A 
ATOM      7  H   UNL     1       1.631   5.412 -22.485  0.00  0.00    +0.000 HD
ATOM      8  H   UNL     1      -1.838   1.914 -21.870  0.00  0.00    +0.000 HD
ATOM      9  H   UNL     1      -1.086   2.497 -24.133  0.00  0.00    +0.000 HD
ENDROOT
BRANCH   4  11
ATOM     10  O   UNL     1       0.753   3.541 -25.743  0.00  0.00    +0.000 OA
ATOM     11  C   UNL     1       0.774   4.337 -24.799  0.00  0.00    +0.000 C 
ATOM     12  H   UNL     1       1.141   5.366 -24.949  0.00  0.00    +0.000 HD
ENDBRANCH   4  11
BRANCH   3  13
ATOM     13  O   UNL     1      -0.954   2.996 -19.638  0.00  0.00    +0.000 OA
ATOM     14  H   UNL     1      -0.179   2.843 -19.070  0.00  0.00    +0.000 HD
ENDBRANCH   3  13
BRANCH   1  15
ATOM     15  O   UNL     1       0.991   4.948 -19.994  0.00  0.00    +0.000 OA
BRANCH  15  16
ATOM     16  C   UNL     1       1.505   6.260 -20.213  0.00  0.00    +0.000 C 
ATOM     17  H   UNL     1       1.534   6.497 -21.283  0.00  0.00    +0.000 HD
ATOM     18  H   UNL     1       0.856   6.985 -19.708  0.00  0.00    +0.000 HD
BRANCH  16  19
ATOM     19  C   UNL     1       2.906   6.342 -19.647  0.00  0.00    +0.000 C 
ATOM     20  H   UNL     1       2.891   6.709 -18.616  0.00  0.00    +0.000 HD
ATOM     21  H   UNL     1       3.387   5.358 -19.664  0.00  0.00    +0.000 HD
ATOM     22  H   UNL     1       3.527   7.010 -20.252  0.00  0.00    +0.000 HD
ENDBRANCH  16  19
ENDBRANCH  15  16
ENDBRANCH   1  15
TORSDOF 5
ENDMDL
MODEL 3
REMARK VINA RESULT:    -4.502     23.152     24.116
REMARK INTER + INTRA:          -5.737
REMARK INTER:                  -5.494
REMARK INTRA:                  -0.243
REMARK UNBOUND:                -0.182
REMARK  Name = 8467
REMARK  5 active torsions:
REMARK  status: ('A' for Active; 'I' for Inactive)
REMARK    1  A    between atoms: O_1  and  C_4
REMARK    2  A    between atoms: O_1  and  C_8
REMARK    3  A    between atoms: O_2  and  C_6
REMARK    4  A    between atoms: C_7  and  C_12
REMARK    5  A    between atoms: C_8  and  C_11
REMARK                            x       y       z     vdW  Elec       q    Type
REMARK                         _______ _______ _______ _____ _____    ______ ____
ROOT
ATOM      1  C   UNL     1       1.266   3.509 -20.613  0.00  0.00    +0.000 A 
ATOM      2  C   UNL     1       2.216   4.227 -21.339  0.00  0.00    +0.000 A 
ATOM      3  C   UNL     1       0.566   4.127 -19.577  0.00  0.00    +0.000 A 
ATOM      4  C   UNL     1       2.466   5.564 -21.030  0.00  0.00    +0.000 A 
ATOM      5  C   UNL     1       0.816   5.464 -19.267  0.00  0.00    +0.000 A 
ATOM      6  C   UNL     1       1.766   6.182 -19.993  0.00  0.00    +0.000 A 
ATOM      7  H   UNL     1       2.764   3.735 -22.139  0.00  0.00    +0.000 HD
ATOM      8  H   UNL     1       0.277   5.958 -18.463  0.00  0.00    +0.000 HD
ATOM      9  H   UNL     1       1.950   7.223 -19.740  0.00  0.00    +0.000 HD
ENDROOT
BRANCH   4  11
ATOM     10  O   UNL     1       4.352   6.974 -21.254  0.00  0.00    +0.000 OA
ATOM     11  C   UNL     1       3.456   6.313 -21.786  0.00  0.00    +0.000 C 
ATOM     12  H   UNL     1       3.377   6.267 -22.886  0.00  0.00    +0.000 HD
ENDBRANCH   4  11
BRANCH   3  13
ATOM     13  O   UNL     1      -0.364   3.436 -18.862  0.00  0.00    +0.000 OA
ATOM     14  H   UNL     1      -0.771   2.763 -19.436  0.00  0.00    +0.000 HD
ENDBRANCH   3  13
BRANCH   1  15
ATOM     15  O   UNL     1       1.030   2.203 -20.925  0.00  0.00    +0.000 OA
BRANCH  15  16
ATOM     16  C   UNL     1       0.455   1.936 -22.203  0.00  0.00    +0.000 C 
ATOM     17  H   UNL     1       0.778   2.678 -22.943  0.00  0.00    +0.000 HD
ATOM     18  H   UNL     1       0.776   0.942 -22.536  0.00  0.00    +0.000 HD
BRANCH  16  19
ATOM     19  C   UNL     1      -1.053   1.977 -22.084  0.00  0.00    +0.000 C 
ATOM     20  H   UNL     1      -1.489   0.996 -22.296  0.00  0.00    +0.000 HD
ATOM     21  H   UNL     1      -1.352   2.285 -21.076  0.00  0.00    +0.000 HD
ATOM     22  H   UNL     1      -1.474   2.709 -22.779  0.00  0.00    +0.000 HD
ENDBRANCH  16  19
ENDBRANCH  15  16
ENDBRANCH   1  15
TORSDOF 5
ENDMDL
MODEL 4
REMARK VINA RESULT:    -4.490     23.943     25.391
REMARK INTER + INTRA:          -5.722
REMARK INTER:                  -5.504
REMARK INTRA:                  -0.218
REMARK UNBOUND:                -0.182
REMARK  Name = 8467
REMARK  5 active torsions:
REMARK  status: ('A' for Active; 'I' for Inactive)
REMARK    1  A    between atoms: O_1  and  C_4
REMARK    2  A    between atoms: O_1  and  C_8
REMARK    3  A    between atoms: O_2  and  C_6
REMARK    4  A    between atoms: C_7  and  C_12
REMARK    5  A    between atoms: C_8  and  C_11
REMARK                            x       y       z     vdW  Elec       q    Type
REMARK                         _______ _______ _______ _____ _____    ______ ____
ROOT
ATOM      1  C   UNL     1       1.614   3.320 -22.398  0.00  0.00    +0.000 A 
ATOM      2  C   UNL     1       1.595   4.450 -21.580  0.00  0.00    +0.000 A 
ATOM      3  C   UNL     1       0.903   2.179 -22.027  0.00  0.00    +0.000 A 
ATOM      4  C   UNL     1       0.863   4.439 -20.392  0.00  0.00    +0.000 A 
ATOM      5  C   UNL     1       0.172   2.168 -20.840  0.00  0.00    +0.000 A 
ATOM      6  C   UNL     1       0.152   3.297 -20.022  0.00  0.00    +0.000 A 
ATOM      7  H   UNL     1       2.159   5.333 -21.871  0.00  0.00    +0.000 HD
ATOM      8  H   UNL     1      -0.388   1.285 -20.540  0.00  0.00    +0.000 HD
ATOM      9  H   UNL     1      -0.423   3.273 -19.100  0.00  0.00    +0.000 HD
ENDROOT
BRANCH   4  11
ATOM     10  O   UNL     1       1.839   6.312 -19.325  0.00  0.00    +0.000 OA
ATOM     11  C   UNL     1       0.842   5.616 -19.540  0.00  0.00    +0.000 C 
ATOM     12  H   UNL     1      -0.127   5.877 -19.079  0.00  0.00    +0.000 HD
ENDBRANCH   4  11
BRANCH   3  13
ATOM     13  O   UNL     1       0.915   1.070 -22.818  0.00  0.00    +0.000 OA
ATOM     14  H   UNL     1       1.108   0.291 -22.268  0.00  0.00    +0.000 HD
ENDBRANCH   3  13
BRANCH   1  15
ATOM     15  O   UNL     1       2.332   3.343 -23.555  0.00  0.00    +0.000 OA
BRANCH  15  16
ATOM     16  C   UNL     1       2.281   4.542 -24.326  0.00  0.00    +0.000 C 
ATOM     17  H   UNL     1       2.161   5.420 -23.680  0.00  0.00    +0.000 HD
ATOM     18  H   UNL     1       3.216   4.643 -24.890  0.00  0.00    +0.000 HD
BRANCH  16  19
ATOM     19  C   UNL     1       1.111   4.464 -25.282  0.00  0.00    +0.000 C 
ATOM     20  H   UNL     1       1.403   4.787 -26.286  0.00  0.00    +0.000 HD
ATOM     21  H   UNL     1       0.726   3.440 -25.338  0.00  0.00    +0.000 HD
ATOM     22  H   UNL     1       0.287   5.095 -24.934  0.00  0.00    +0.000 HD
ENDBRANCH  16  19
ENDBRANCH  15  16
ENDBRANCH   1  15
TORSDOF 5
ENDMDL
MODEL 5
REMARK VINA RESULT:    -4.437     22.891     24.159
REMARK INTER + INTRA:          -5.657
REMARK INTER:                  -5.426
REMARK INTRA:                  -0.230
REMARK UNBOUND:                -0.182
REMARK  Name = 8467
REMARK  5 active torsions:
REMARK  status: ('A' for Active; 'I' for Inactive)
REMARK    1  A    between atoms: O_1  and  C_4
REMARK    2  A    between atoms: O_1  and  C_8
REMARK    3  A    between atoms: O_2  and  C_6
REMARK    4  A    between atoms: C_7  and  C_12
REMARK    5  A    between atoms: C_8  and  C_11
REMARK                            x       y       z     vdW  Elec       q    Type
REMARK                         _______ _______ _______ _____ _____    ______ ____
ROOT
ATOM      1  C   UNL     1       1.616   3.021 -20.869  0.00  0.00    +0.000 A 
ATOM      2  C   UNL     1       1.990   4.149 -20.139  0.00  0.00    +0.000 A 
ATOM      3  C   UNL     1       2.396   2.595 -21.944  0.00  0.00    +0.000 A 
ATOM      4  C   UNL     1       3.145   4.851 -20.483  0.00  0.00    +0.000 A 
ATOM      5  C   UNL     1       3.551   3.297 -22.288  0.00  0.00    +0.000 A 
ATOM      6  C   UNL     1       3.926   4.425 -21.559  0.00  0.00    +0.000 A 
ATOM      7  H   UNL     1       1.371   4.480 -19.308  0.00  0.00    +0.000 HD
ATOM      8  H   UNL     1       4.169   2.976 -23.123  0.00  0.00    +0.000 HD
ATOM      9  H   UNL     1       4.829   4.961 -21.839  0.00  0.00    +0.000 HD
ENDROOT
BRANCH   4  11
ATOM     10  O   UNL     1       4.380   6.836 -20.117  0.00  0.00    +0.000 OA
ATOM     11  C   UNL     1       3.536   6.026 -19.722  0.00  0.00    +0.000 C 
ATOM     12  H   UNL     1       3.036   6.175 -18.749  0.00  0.00    +0.000 HD
ENDBRANCH   4  11
BRANCH   3  13
ATOM     13  O   UNL     1       2.041   1.495 -22.665  0.00  0.00    +0.000 OA
ATOM     14  H   UNL     1       1.876   0.756 -22.054  0.00  0.00    +0.000 HD
ENDBRANCH   3  13
BRANCH   1  15
ATOM     15  O   UNL     1       0.486   2.343 -20.524  0.00  0.00    +0.000 OA
BRANCH  15  16
ATOM     16  C   UNL     1      -0.761   2.947 -20.860  0.00  0.00    +0.000 C 
ATOM     17  H   UNL     1      -1.455   2.917 -20.011  0.00  0.00    +0.000 HD
ATOM     18  H   UNL     1      -0.587   3.994 -21.137  0.00  0.00    +0.000 HD
BRANCH  16  19
ATOM     19  C   UNL     1      -1.372   2.202 -22.028  0.00  0.00    +0.000 C 
ATOM     20  H   UNL     1      -2.054   1.420 -21.680  0.00  0.00    +0.000 HD
ATOM     21  H   UNL     1      -1.925   2.889 -22.677  0.00  0.00    +0.000 HD
ATOM     22  H   UNL     1      -0.591   1.743 -22.642  0.00  0.00    +0.000 HD
ENDBRANCH  16  19
ENDBRANCH  15  16
ENDBRANCH   1  15
TORSDOF 5
ENDMDL
MODEL 6
REMARK VINA RESULT:    -4.414     15.163     16.703
REMARK INTER + INTRA:          -5.628
REMARK INTER:                  -5.386
REMARK INTRA:                  -0.242
REMARK UNBOUND:                -0.182
REMARK  Name = 8467
REMARK  5 active torsions:
REMARK  status: ('A' for Active; 'I' for Inactive)
REMARK    1  A    between atoms: O_1  and  C_4
REMARK    2  A    between atoms: O_1  and  C_8
REMARK    3  A    between atoms: O_2  and  C_6
REMARK    4  A    between atoms: C_7  and  C_12
REMARK    5  A    between atoms: C_8  and  C_11
REMARK                            x       y       z     vdW  Elec       q    Type
REMARK                         _______ _______ _______ _____ _____    ______ ____
ROOT
ATOM      1  C   UNL     1      14.530  18.769 -12.590  0.00  0.00    +0.000 A 
ATOM      2  C   UNL     1      13.323  19.298 -12.132  0.00  0.00    +0.000 A 
ATOM      3  C   UNL     1      14.713  17.387 -12.636  0.00  0.00    +0.000 A 
ATOM      4  C   UNL     1      12.299  18.445 -11.722  0.00  0.00    +0.000 A 
ATOM      5  C   UNL     1      13.688  16.534 -12.226  0.00  0.00    +0.000 A 
ATOM      6  C   UNL     1      12.482  17.062 -11.768  0.00  0.00    +0.000 A 
ATOM      7  H   UNL     1      13.192  20.377 -12.090  0.00  0.00    +0.000 HD
ATOM      8  H   UNL     1      13.817  15.455 -12.258  0.00  0.00    +0.000 HD
ATOM      9  H   UNL     1      11.693  16.385 -11.452  0.00  0.00    +0.000 HD
ENDROOT
BRANCH   4  11
ATOM     10  O   UNL     1      10.012  19.015 -11.928  0.00  0.00    +0.000 OA
ATOM     11  C   UNL     1      11.041  18.996 -11.246  0.00  0.00    +0.000 C 
ATOM     12  H   UNL     1      11.036  19.409 -10.223  0.00  0.00    +0.000 HD
ENDBRANCH   4  11
BRANCH   3  13
ATOM     13  O   UNL     1      15.887  16.859 -13.081  0.00  0.00    +0.000 OA
ATOM     14  H   UNL     1      16.456  16.662 -12.316  0.00  0.00    +0.000 HD
ENDBRANCH   3  13
BRANCH   1  15
ATOM     15  O   UNL     1      15.524  19.612 -12.988  0.00  0.00    +0.000 OA
BRANCH  15  16
ATOM     16  C   UNL     1      15.928  20.621 -12.064  0.00  0.00    +0.000 C 
ATOM     17  H   UNL     1      16.530  21.390 -12.562  0.00  0.00    +0.000 HD
ATOM     18  H   UNL     1      15.034  21.092 -11.639  0.00  0.00    +0.000 HD
BRANCH  16  19
ATOM     19  C   UNL     1      16.746  19.983 -10.963  0.00  0.00    +0.000 C 
ATOM     20  H   UNL     1      16.101  19.489 -10.231  0.00  0.00    +0.000 HD
ATOM     21  H   UNL     1      17.439  19.242 -11.378  0.00  0.00    +0.000 HD
ATOM     22  H   UNL     1      17.354  20.734 -10.450  0.00  0.00    +0.000 HD
ENDBRANCH  16  19
ENDBRANCH  15  16
ENDBRANCH   1  15
TORSDOF 5
ENDMDL
MODEL 7
REMARK VINA RESULT:    -4.317     21.967     23.300
REMARK INTER + INTRA:          -5.509
REMARK INTER:                  -5.342
REMARK INTRA:                  -0.167
REMARK UNBOUND:                -0.182
REMARK  Name = 8467
REMARK  5 active torsions:
REMARK  status: ('A' for Active; 'I' for Inactive)
REMARK    1  A    between atoms: O_1  and  C_4
REMARK    2  A    between atoms: O_1  and  C_8
REMARK    3  A    between atoms: O_2  and  C_6
REMARK    4  A    between atoms: C_7  and  C_12
REMARK    5  A    between atoms: C_8  and  C_11
REMARK                            x       y       z     vdW  Elec       q    Type
REMARK                         _______ _______ _______ _____ _____    ______ ____
ROOT
ATOM      1  C   UNL     1       1.276   4.861 -20.443  0.00  0.00    +0.000 A 
ATOM      2  C   UNL     1       2.493   4.184 -20.524  0.00  0.00    +0.000 A 
ATOM      3  C   UNL     1       1.204   6.092 -19.793  0.00  0.00    +0.000 A 
ATOM      4  C   UNL     1       3.638   4.739 -19.954  0.00  0.00    +0.000 A 
ATOM      5  C   UNL     1       2.350   6.648 -19.223  0.00  0.00    +0.000 A 
ATOM      6  C   UNL     1       3.567   5.972 -19.303  0.00  0.00    +0.000 A 
ATOM      7  H   UNL     1       2.538   3.219 -21.024  0.00  0.00    +0.000 HD
ATOM      8  H   UNL     1       2.308   7.607 -18.714  0.00  0.00    +0.000 HD
ATOM      9  H   UNL     1       4.451   6.417 -18.855  0.00  0.00    +0.000 HD
ENDROOT
BRANCH   4  11
ATOM     10  O   UNL     1       5.679   3.920 -19.082  0.00  0.00    +0.000 OA
ATOM     11  C   UNL     1       4.907   4.035 -20.038  0.00  0.00    +0.000 C 
ATOM     12  H   UNL     1       5.163   3.591 -21.016  0.00  0.00    +0.000 HD
ENDBRANCH   4  11
BRANCH   3  13
ATOM     13  O   UNL     1       0.021   6.762 -19.708  0.00  0.00    +0.000 OA
ATOM     14  H   UNL     1      -0.481   6.624 -20.530  0.00  0.00    +0.000 HD
ENDBRANCH   3  13
BRANCH   1  15
ATOM     15  O   UNL     1       0.163   4.309 -21.004  0.00  0.00    +0.000 OA
BRANCH  15  16
ATOM     16  C   UNL     1      -0.282   3.063 -20.470  0.00  0.00    +0.000 C 
ATOM     17  H   UNL     1       0.567   2.446 -20.152  0.00  0.00    +0.000 HD
ATOM     18  H   UNL     1      -0.923   3.257 -19.601  0.00  0.00    +0.000 HD
BRANCH  16  19
ATOM     19  C   UNL     1      -1.065   2.323 -21.532  0.00  0.00    +0.000 C 
ATOM     20  H   UNL     1      -1.229   2.955 -22.409  0.00  0.00    +0.000 HD
ATOM     21  H   UNL     1      -0.532   1.418 -21.843  0.00  0.00    +0.000 HD
ATOM     22  H   UNL     1      -2.035   2.001 -21.141  0.00  0.00    +0.000 HD
ENDBRANCH  16  19
ENDBRANCH  15  16
ENDBRANCH   1  15
TORSDOF 5
ENDMDL
MODEL 8
REMARK VINA RESULT:    -4.116     14.920     16.338
REMARK INTER + INTRA:          -5.261
REMARK INTER:                  -5.084
REMARK INTRA:                  -0.177
REMARK UNBOUND:                -0.182
REMARK  Name = 8467
REMARK  5 active torsions:
REMARK  status: ('A' for Active; 'I' for Inactive)
REMARK    1  A    between atoms: O_1  and  C_4
REMARK    2  A    between atoms: O_1  and  C_8
REMARK    3  A    between atoms: O_2  and  C_6
REMARK    4  A    between atoms: C_7  and  C_12
REMARK    5  A    between atoms: C_8  and  C_11
REMARK                            x       y       z     vdW  Elec       q    Type
REMARK                         _______ _______ _______ _____ _____    ______ ____
ROOT
ATOM      1  C   UNL     1      14.606  17.577 -12.676  0.00  0.00    +0.000 A 
ATOM      2  C   UNL     1      14.333  18.929 -12.468  0.00  0.00    +0.000 A 
ATOM      3  C   UNL     1      13.667  16.612 -12.310  0.00  0.00    +0.000 A 
ATOM      4  C   UNL     1      13.122  19.317 -11.896  0.00  0.00    +0.000 A 
ATOM      5  C   UNL     1      12.456  17.000 -11.738  0.00  0.00    +0.000 A 
ATOM      6  C   UNL     1      12.183  18.351 -11.530  0.00  0.00    +0.000 A 
ATOM      7  H   UNL     1      15.074  19.675 -12.747  0.00  0.00    +0.000 HD
ATOM      8  H   UNL     1      11.715  16.258 -11.449  0.00  0.00    +0.000 HD
ATOM      9  H   UNL     1      11.234  18.638 -11.083  0.00  0.00    +0.000 HD
ENDROOT
BRANCH   4  11
ATOM     10  O   UNL     1      13.715  21.592 -11.635  0.00  0.00    +0.000 OA
ATOM     11  C   UNL     1      12.837  20.726 -11.680  0.00  0.00    +0.000 C 
ATOM     12  H   UNL     1      11.776  21.004 -11.556  0.00  0.00    +0.000 HD
ENDBRANCH   4  11
BRANCH   3  13
ATOM     13  O   UNL     1      13.922  15.289 -12.508  0.00  0.00    +0.000 OA
ATOM     14  H   UNL     1      13.198  14.766 -12.122  0.00  0.00    +0.000 HD
ENDBRANCH   3  13
BRANCH   1  15
ATOM     15  O   UNL     1      15.793  17.211 -13.236  0.00  0.00    +0.000 OA
BRANCH  15  16
ATOM     16  C   UNL     1      16.980  17.717 -12.629  0.00  0.00    +0.000 C 
ATOM     17  H   UNL     1      16.746  18.508 -11.906  0.00  0.00    +0.000 HD
ATOM     18  H   UNL     1      17.488  16.899 -12.104  0.00  0.00    +0.000 HD
BRANCH  16  19
ATOM     19  C   UNL     1      17.884  18.278 -13.705  0.00  0.00    +0.000 C 
ATOM     20  H   UNL     1      18.076  17.533 -14.483  0.00  0.00    +0.000 HD
ATOM     21  H   UNL     1      17.430  19.161 -14.167  0.00  0.00    +0.000 HD
ATOM     22  H   UNL     1      18.839  18.598 -13.277  0.00  0.00    +0.000 HD
ENDBRANCH  16  19
ENDBRANCH  15  16
ENDBRANCH   1  15
TORSDOF 5
ENDMDL
MODEL 9
REMARK VINA RESULT:    -4.105      2.450      4.858
REMARK INTER + INTRA:          -5.246
REMARK INTER:                  -5.064
REMARK INTRA:                  -0.182
REMARK UNBOUND:                -0.182
REMARK  Name = 8467
REMARK  5 active torsions:
REMARK  status: ('A' for Active; 'I' for Inactive)
REMARK    1  A    between atoms: O_1  and  C_4
REMARK    2  A    between atoms: O_1  and  C_8
REMARK    3  A    between atoms: O_2  and  C_6
REMARK    4  A    between atoms: C_7  and  C_12
REMARK    5  A    between atoms: C_8  and  C_11
REMARK                            x       y       z     vdW  Elec       q    Type
REMARK                         _______ _______ _______ _____ _____    ______ ____
ROOT
ATOM      1  C   UNL     1      14.300   7.669  -0.633  0.00  0.00    +0.000 A 
ATOM      2  C   UNL     1      13.907   6.490   0.001  0.00  0.00    +0.000 A 
ATOM      3  C   UNL     1      15.004   7.613  -1.836  0.00  0.00    +0.000 A 
ATOM      4  C   UNL     1      14.217   5.255  -0.569  0.00  0.00    +0.000 A 
ATOM      5  C   UNL     1      15.314   6.378  -2.406  0.00  0.00    +0.000 A 
ATOM      6  C   UNL     1      14.922   5.199  -1.773  0.00  0.00    +0.000 A 
ATOM      7  H   UNL     1      13.368   6.541   0.943  0.00  0.00    +0.000 HD
ATOM      8  H   UNL     1      15.861   6.321  -3.344  0.00  0.00    +0.000 HD
ATOM      9  H   UNL     1      15.170   4.245  -2.230  0.00  0.00    +0.000 HD
ENDROOT
BRANCH   4  11
ATOM     10  O   UNL     1      12.627   3.738   0.306  0.00  0.00    +0.000 OA
ATOM     11  C   UNL     1      13.807   4.026   0.090  0.00  0.00    +0.000 C 
ATOM     12  H   UNL     1      14.613   3.338   0.400  0.00  0.00    +0.000 HD
ENDBRANCH   4  11
BRANCH   3  13
ATOM     13  O   UNL     1      15.393   8.758  -2.464  0.00  0.00    +0.000 OA
ATOM     14  H   UNL     1      14.669   9.067  -3.035  0.00  0.00    +0.000 HD
ENDBRANCH   3  13
BRANCH   1  15
ATOM     15  O   UNL     1      13.992   8.869  -0.067  0.00  0.00    +0.000 OA
BRANCH  15  16
ATOM     16  C   UNL     1      14.908   9.387   0.895  0.00  0.00    +0.000 C 
ATOM     17  H   UNL     1      14.445   9.446   1.887  0.00  0.00    +0.000 HD
ATOM     18  H   UNL     1      15.779   8.724   0.950  0.00  0.00    +0.000 HD
BRANCH  16  19
ATOM     19  C   UNL     1      15.343  10.772   0.466  0.00  0.00    +0.000 C 
ATOM     20  H   UNL     1      16.351  10.996   0.828  0.00  0.00    +0.000 HD
ATOM     21  H   UNL     1      15.333  10.858  -0.626  0.00  0.00    +0.000 HD
ATOM     22  H   UNL     1      14.652  11.529   0.851  0.00  0.00    +0.000 HD
ENDBRANCH  16  19
ENDBRANCH  15  16
ENDBRANCH   1  15
TORSDOF 5
ENDMDL
MODEL 10
REMARK VINA RESULT:    -4.086     35.202     36.877
REMARK INTER + INTRA:          -5.224
REMARK INTER:                  -5.070
REMARK INTRA:                  -0.154
REMARK UNBOUND:                -0.182
REMARK  Name = 8467
REMARK  5 active torsions:
REMARK  status: ('A' for Active; 'I' for Inactive)
REMARK    1  A    between atoms: O_1  and  C_4
REMARK    2  A    between atoms: O_1  and  C_8
REMARK    3  A    between atoms: O_2  and  C_6
REMARK    4  A    between atoms: C_7  and  C_12
REMARK    5  A    between atoms: C_8  and  C_11
REMARK                            x       y       z     vdW  Elec       q    Type
REMARK                         _______ _______ _______ _____ _____    ______ ____
ROOT
ATOM      1  C   UNL     1     -16.383  -1.323  13.406  0.00  0.00    +0.000 A 
ATOM      2  C   UNL     1     -17.199  -1.405  14.534  0.00  0.00    +0.000 A 
ATOM      3  C   UNL     1     -15.812  -0.103  13.045  0.00  0.00    +0.000 A 
ATOM      4  C   UNL     1     -17.443  -0.267  15.303  0.00  0.00    +0.000 A 
ATOM      5  C   UNL     1     -16.056   1.035  13.814  0.00  0.00    +0.000 A 
ATOM      6  C   UNL     1     -16.872   0.954  14.942  0.00  0.00    +0.000 A 
ATOM      7  H   UNL     1     -17.648  -2.358  14.803  0.00  0.00    +0.000 HD
ATOM      8  H   UNL     1     -15.616   1.993  13.545  0.00  0.00    +0.000 HD
ATOM      9  H   UNL     1     -17.052   1.849  15.531  0.00  0.00    +0.000 HD
ENDROOT
BRANCH   4  11
ATOM     10  O   UNL     1     -18.250   0.465  17.403  0.00  0.00    +0.000 OA
ATOM     11  C   UNL     1     -18.292  -0.353  16.479  0.00  0.00    +0.000 C 
ATOM     12  H   UNL     1     -19.000  -1.199  16.519  0.00  0.00    +0.000 HD
ENDBRANCH   4  11
BRANCH   3  13
ATOM     13  O   UNL     1     -15.013  -0.010  11.946  0.00  0.00    +0.000 OA
ATOM     14  H   UNL     1     -15.451  -0.453  11.198  0.00  0.00    +0.000 HD
ENDBRANCH   3  13
BRANCH   1  15
ATOM     15  O   UNL     1     -16.151  -2.441  12.663  0.00  0.00    +0.000 OA
BRANCH  15  16
ATOM     16  C   UNL     1     -16.083  -3.682  13.363  0.00  0.00    +0.000 C 
ATOM     17  H   UNL     1     -15.764  -3.531  14.401  0.00  0.00    +0.000 HD
ATOM     18  H   UNL     1     -17.077  -4.146  13.363  0.00  0.00    +0.000 HD
BRANCH  16  19
ATOM     19  C   UNL     1     -15.092  -4.589  12.665  0.00  0.00    +0.000 C 
ATOM     20  H   UNL     1     -15.455  -4.875  11.673  0.00  0.00    +0.000 HD
ATOM     21  H   UNL     1     -14.124  -4.089  12.556  0.00  0.00    +0.000 HD
ATOM     22  H   UNL     1     -14.918  -5.494  13.254  0.00  0.00    +0.000 HD
ENDBRANCH  16  19
ENDBRANCH  15  16
ENDBRANCH   1  15
TORSDOF 5
ENDMDL
