MODEL 1
REMARK VINA RESULT:    -4.747      0.000      0.000
REMARK INTER + INTRA:          -7.231
REMARK INTER:                  -6.747
REMARK INTRA:                  -0.484
REMARK UNBOUND:                -0.680
REMARK  Name = 7334
REMARK  9 active torsions:
REMARK  status: ('A' for Active; 'I' for Inactive)
REMARK    1  A    between atoms: O_1  and  C_9
REMARK    2  A    between atoms: O_1  and  C_13
REMARK    3  A    between atoms: C_3  and  C_6
REMARK    4  A    between atoms: C_3  and  C_7
REMARK    5  A    between atoms: C_4  and  C_8
REMARK    6  A    between atoms: C_5  and  C_9
REMARK    7  A    between atoms: C_10  and  C_11
REMARK    8  A    between atoms: C_10  and  C_12
REMARK    9  A    between atoms: C_13  and  C_14
REMARK                            x       y       z     vdW  Elec       q    Type
REMARK                         _______ _______ _______ _____ _____    ______ ____
ROOT
ATOM      1  C   UNL     1       2.636   3.924 -21.694  0.00  0.00    +0.000 C 
ATOM      2  C   UNL     1       3.200   4.462 -20.425  0.00  0.00    +0.000 C 
ATOM      3  C   UNL     1       2.086   3.474 -20.373  0.00  0.00    +0.000 C 
ATOM      4  H   UNL     1       2.978   5.492 -20.161  0.00  0.00    +0.000 HD
ATOM      5  H   UNL     1       2.321   2.461 -20.059  0.00  0.00    +0.000 HD
ENDROOT
BRANCH   1   6
ATOM      6  C   UNL     1       1.838   4.869 -22.530  0.00  0.00    +0.000 C 
ATOM      7  H   UNL     1       2.449   5.438 -23.239  0.00  0.00    +0.000 HD
ATOM      8  H   UNL     1       1.093   4.322 -23.117  0.00  0.00    +0.000 HD
ATOM      9  H   UNL     1       1.306   5.587 -21.896  0.00  0.00    +0.000 HD
ENDBRANCH   1   6
BRANCH   1  10
ATOM     10  C   UNL     1       3.400   2.923 -22.495  0.00  0.00    +0.000 C 
ATOM     11  H   UNL     1       4.170   3.416 -23.098  0.00  0.00    +0.000 HD
ATOM     12  H   UNL     1       3.892   2.162 -21.879  0.00  0.00    +0.000 HD
ATOM     13  H   UNL     1       2.729   2.390 -23.179  0.00  0.00    +0.000 HD
ENDBRANCH   1  10
BRANCH   2  14
ATOM     14  C   UNL     1       4.534   4.023 -19.972  0.00  0.00    +0.000 C 
ATOM     15  C   UNL     1       5.362   4.652 -19.116  0.00  0.00    +0.000 C 
ATOM     16  H   UNL     1       4.869   3.070 -20.380  0.00  0.00    +0.000 HD
BRANCH  15  17
ATOM     17  C   UNL     1       6.699   4.067 -18.756  0.00  0.00    +0.000 C 
ATOM     18  H   UNL     1       7.134   3.555 -19.621  0.00  0.00    +0.000 HD
ATOM     19  H   UNL     1       7.387   4.858 -18.438  0.00  0.00    +0.000 HD
ATOM     20  H   UNL     1       6.631   3.339 -17.941  0.00  0.00    +0.000 HD
ENDBRANCH  15  17
BRANCH  15  21
ATOM     21  C   UNL     1       5.042   5.963 -18.455  0.00  0.00    +0.000 C 
ATOM     22  H   UNL     1       4.301   5.815 -17.662  0.00  0.00    +0.000 HD
ATOM     23  H   UNL     1       5.946   6.391 -18.010  0.00  0.00    +0.000 HD
ATOM     24  H   UNL     1       4.635   6.702 -19.150  0.00  0.00    +0.000 HD
ENDBRANCH  15  21
ENDBRANCH   2  14
BRANCH   3  26
ATOM     25  O   UNL     1       0.534   5.072 -19.520  0.00  0.00    +0.000 OA
ATOM     26  C   UNL     1       0.763   3.938 -19.919  0.00  0.00    +0.000 C 
BRANCH  26  27
ATOM     27  O   UNL     1      -0.137   2.919 -20.015  0.00  0.00    +0.000 OA
BRANCH  27  28
ATOM     28  C   UNL     1      -1.024   2.985 -21.136  0.00  0.00    +0.000 C 
ATOM     29  H   UNL     1      -2.061   2.920 -20.785  0.00  0.00    +0.000 HD
ATOM     30  H   UNL     1      -0.877   3.935 -21.662  0.00  0.00    +0.000 HD
BRANCH  28  31
ATOM     31  C   UNL     1      -0.727   1.831 -22.070  0.00  0.00    +0.000 C 
ATOM     32  H   UNL     1       0.172   1.293 -21.753  0.00  0.00    +0.000 HD
ATOM     33  H   UNL     1      -1.568   1.131 -22.097  0.00  0.00    +0.000 HD
ATOM     34  H   UNL     1      -0.580   2.192 -23.093  0.00  0.00    +0.000 HD
ENDBRANCH  28  31
ENDBRANCH  27  28
ENDBRANCH  26  27
ENDBRANCH   3  26
TORSDOF 9
ENDMDL
MODEL 2
REMARK VINA RESULT:    -4.714      2.735      3.826
REMARK INTER + INTRA:          -7.185
REMARK INTER:                  -6.572
REMARK INTRA:                  -0.614
REMARK UNBOUND:                -0.680
REMARK  Name = 7334
REMARK  9 active torsions:
REMARK  status: ('A' for Active; 'I' for Inactive)
REMARK    1  A    between atoms: O_1  and  C_9
REMARK    2  A    between atoms: O_1  and  C_13
REMARK    3  A    between atoms: C_3  and  C_6
REMARK    4  A    between atoms: C_3  and  C_7
REMARK    5  A    between atoms: C_4  and  C_8
REMARK    6  A    between atoms: C_5  and  C_9
REMARK    7  A    between atoms: C_10  and  C_11
REMARK    8  A    between atoms: C_10  and  C_12
REMARK    9  A    between atoms: C_13  and  C_14
REMARK                            x       y       z     vdW  Elec       q    Type
REMARK                         _______ _______ _______ _____ _____    ______ ____
ROOT
ATOM      1  C   UNL     1       1.989   2.675 -21.212  0.00  0.00    +0.000 C 
ATOM      2  C   UNL     1       0.952   3.745 -21.183  0.00  0.00    +0.000 C 
ATOM      3  C   UNL     1       0.533   2.316 -21.258  0.00  0.00    +0.000 C 
ATOM      4  H   UNL     1       0.825   4.358 -22.071  0.00  0.00    +0.000 HD
ATOM      5  H   UNL     1       0.105   1.867 -20.366  0.00  0.00    +0.000 HD
ENDROOT
BRANCH   1   6
ATOM      6  C   UNL     1       2.805   2.562 -22.455  0.00  0.00    +0.000 C 
ATOM      7  H   UNL     1       2.690   1.595 -22.960  0.00  0.00    +0.000 HD
ATOM      8  H   UNL     1       2.513   3.334 -23.175  0.00  0.00    +0.000 HD
ATOM      9  H   UNL     1       3.869   2.695 -22.231  0.00  0.00    +0.000 HD
ENDBRANCH   1   6
BRANCH   1  10
ATOM     10  C   UNL     1       2.742   2.322 -19.972  0.00  0.00    +0.000 C 
ATOM     11  H   UNL     1       3.498   1.559 -20.184  0.00  0.00    +0.000 HD
ATOM     12  H   UNL     1       3.248   3.179 -19.515  0.00  0.00    +0.000 HD
ATOM     13  H   UNL     1       2.060   1.916 -19.215  0.00  0.00    +0.000 HD
ENDBRANCH   1  10
BRANCH   2  14
ATOM     14  C   UNL     1       0.688   4.477 -19.930  0.00  0.00    +0.000 C 
ATOM     15  C   UNL     1       0.822   5.799 -19.704  0.00  0.00    +0.000 C 
ATOM     16  H   UNL     1       0.335   3.863 -19.103  0.00  0.00    +0.000 HD
BRANCH  15  17
ATOM     17  C   UNL     1       0.510   6.392 -18.359  0.00  0.00    +0.000 C 
ATOM     18  H   UNL     1       1.436   6.573 -17.801  0.00  0.00    +0.000 HD
ATOM     19  H   UNL     1      -0.015   7.345 -18.477  0.00  0.00    +0.000 HD
ATOM     20  H   UNL     1      -0.121   5.737 -17.749  0.00  0.00    +0.000 HD
ENDBRANCH  15  17
BRANCH  15  21
ATOM     21  C   UNL     1       1.281   6.782 -20.743  0.00  0.00    +0.000 C 
ATOM     22  H   UNL     1       0.492   7.513 -20.946  0.00  0.00    +0.000 HD
ATOM     23  H   UNL     1       2.167   7.317 -20.389  0.00  0.00    +0.000 HD
ATOM     24  H   UNL     1       1.541   6.307 -21.694  0.00  0.00    +0.000 HD
ENDBRANCH  15  21
ENDBRANCH   2  14
BRANCH   3  26
ATOM     25  O   UNL     1       0.078   0.704 -22.957  0.00  0.00    +0.000 OA
ATOM     26  C   UNL     1      -0.077   1.833 -22.510  0.00  0.00    +0.000 C 
BRANCH  26  27
ATOM     27  O   UNL     1      -0.821   2.829 -23.070  0.00  0.00    +0.000 OA
BRANCH  27  28
ATOM     28  C   UNL     1      -0.600   3.052 -24.466  0.00  0.00    +0.000 C 
ATOM     29  H   UNL     1      -0.196   2.141 -24.922  0.00  0.00    +0.000 HD
ATOM     30  H   UNL     1      -1.548   3.312 -24.949  0.00  0.00    +0.000 HD
BRANCH  28  31
ATOM     31  C   UNL     1       0.387   4.188 -24.633  0.00  0.00    +0.000 C 
ATOM     32  H   UNL     1       0.544   4.418 -25.691  0.00  0.00    +0.000 HD
ATOM     33  H   UNL     1       0.027   5.089 -24.125  0.00  0.00    +0.000 HD
ATOM     34  H   UNL     1       1.351   3.931 -24.180  0.00  0.00    +0.000 HD
ENDBRANCH  28  31
ENDBRANCH  27  28
ENDBRANCH  26  27
ENDBRANCH   3  26
TORSDOF 9
ENDMDL
MODEL 3
REMARK VINA RESULT:    -4.651     29.767     30.666
REMARK INTER + INTRA:          -7.098
REMARK INTER:                  -6.679
REMARK INTRA:                  -0.419
REMARK UNBOUND:                -0.680
REMARK  Name = 7334
REMARK  9 active torsions:
REMARK  status: ('A' for Active; 'I' for Inactive)
REMARK    1  A    between atoms: O_1  and  C_9
REMARK    2  A    between atoms: O_1  and  C_13
REMARK    3  A    between atoms: C_3  and  C_6
REMARK    4  A    between atoms: C_3  and  C_7
REMARK    5  A    between atoms: C_4  and  C_8
REMARK    6  A    between atoms: C_5  and  C_9
REMARK    7  A    between atoms: C_10  and  C_11
REMARK    8  A    between atoms: C_10  and  C_12
REMARK    9  A    between atoms: C_13  and  C_14
REMARK                            x       y       z     vdW  Elec       q    Type
REMARK                         _______ _______ _______ _____ _____    ______ ____
ROOT
ATOM      1  C   UNL     1      -6.142 -14.700   1.964  0.00  0.00    +0.000 C 
ATOM      2  C   UNL     1      -4.702 -14.339   1.851  0.00  0.00    +0.000 C 
ATOM      3  C   UNL     1      -5.330 -14.442   3.199  0.00  0.00    +0.000 C 
ATOM      4  H   UNL     1      -4.450 -13.348   1.483  0.00  0.00    +0.000 HD
ATOM      5  H   UNL     1      -5.074 -15.302   3.812  0.00  0.00    +0.000 HD
ENDROOT
BRANCH   1   6
ATOM      6  C   UNL     1      -7.131 -13.675   1.518  0.00  0.00    +0.000 C 
ATOM      7  H   UNL     1      -7.737 -13.276   2.338  0.00  0.00    +0.000 HD
ATOM      8  H   UNL     1      -6.617 -12.825   1.058  0.00  0.00    +0.000 HD
ATOM      9  H   UNL     1      -7.814 -14.098   0.774  0.00  0.00    +0.000 HD
ENDBRANCH   1   6
BRANCH   1  10
ATOM     10  C   UNL     1      -6.590 -16.103   1.720  0.00  0.00    +0.000 C 
ATOM     11  H   UNL     1      -7.182 -16.166   0.801  0.00  0.00    +0.000 HD
ATOM     12  H   UNL     1      -5.759 -16.812   1.634  0.00  0.00    +0.000 HD
ATOM     13  H   UNL     1      -7.219 -16.452   2.548  0.00  0.00    +0.000 HD
ENDBRANCH   1  10
BRANCH   2  14
ATOM     14  C   UNL     1      -3.716 -15.367   1.467  0.00  0.00    +0.000 C 
ATOM     15  C   UNL     1      -2.380 -15.229   1.358  0.00  0.00    +0.000 C 
ATOM     16  H   UNL     1      -4.134 -16.352   1.262  0.00  0.00    +0.000 HD
BRANCH  15  17
ATOM     17  C   UNL     1      -1.510 -16.386   0.952  0.00  0.00    +0.000 C 
ATOM     18  H   UNL     1      -2.095 -17.311   0.933  0.00  0.00    +0.000 HD
ATOM     19  H   UNL     1      -1.096 -16.216  -0.048  0.00  0.00    +0.000 HD
ATOM     20  H   UNL     1      -0.671 -16.538   1.638  0.00  0.00    +0.000 HD
ENDBRANCH  15  17
BRANCH  15  21
ATOM     21  C   UNL     1      -1.649 -13.944   1.623  0.00  0.00    +0.000 C 
ATOM     22  H   UNL     1      -0.929 -13.747   0.821  0.00  0.00    +0.000 HD
ATOM     23  H   UNL     1      -2.356 -13.110   1.667  0.00  0.00    +0.000 HD
ATOM     24  H   UNL     1      -1.095 -13.955   2.566  0.00  0.00    +0.000 HD
ENDBRANCH  15  21
ENDBRANCH   2  14
BRANCH   3  26
ATOM     25  O   UNL     1      -5.141 -12.100   3.610  0.00  0.00    +0.000 OA
ATOM     26  C   UNL     1      -5.524 -13.203   3.974  0.00  0.00    +0.000 C 
BRANCH  26  27
ATOM     27  O   UNL     1      -6.183 -13.488   5.133  0.00  0.00    +0.000 OA
BRANCH  27  28
ATOM     28  C   UNL     1      -7.572 -13.146   5.151  0.00  0.00    +0.000 C 
ATOM     29  H   UNL     1      -7.716 -12.233   5.739  0.00  0.00    +0.000 HD
ATOM     30  H   UNL     1      -7.919 -12.977   4.125  0.00  0.00    +0.000 HD
BRANCH  28  31
ATOM     31  C   UNL     1      -8.352 -14.284   5.774  0.00  0.00    +0.000 C 
ATOM     32  H   UNL     1      -8.632 -15.026   5.020  0.00  0.00    +0.000 HD
ATOM     33  H   UNL     1      -7.760 -14.777   6.552  0.00  0.00    +0.000 HD
ATOM     34  H   UNL     1      -9.262 -13.909   6.256  0.00  0.00    +0.000 HD
ENDBRANCH  28  31
ENDBRANCH  27  28
ENDBRANCH  26  27
ENDBRANCH   3  26
TORSDOF 9
ENDMDL
MODEL 4
REMARK VINA RESULT:    -4.644      1.664      2.294
REMARK INTER + INTRA:          -7.089
REMARK INTER:                  -6.308
REMARK INTRA:                  -0.780
REMARK UNBOUND:                -0.680
REMARK  Name = 7334
REMARK  9 active torsions:
REMARK  status: ('A' for Active; 'I' for Inactive)
REMARK    1  A    between atoms: O_1  and  C_9
REMARK    2  A    between atoms: O_1  and  C_13
REMARK    3  A    between atoms: C_3  and  C_6
REMARK    4  A    between atoms: C_3  and  C_7
REMARK    5  A    between atoms: C_4  and  C_8
REMARK    6  A    between atoms: C_5  and  C_9
REMARK    7  A    between atoms: C_10  and  C_11
REMARK    8  A    between atoms: C_10  and  C_12
REMARK    9  A    between atoms: C_13  and  C_14
REMARK                            x       y       z     vdW  Elec       q    Type
REMARK                         _______ _______ _______ _____ _____    ______ ____
ROOT
ATOM      1  C   UNL     1       3.972   4.888 -21.462  0.00  0.00    +0.000 C 
ATOM      2  C   UNL     1       4.085   4.085 -20.212  0.00  0.00    +0.000 C 
ATOM      3  C   UNL     1       3.930   3.389 -21.521  0.00  0.00    +0.000 C 
ATOM      4  H   UNL     1       3.240   4.078 -19.530  0.00  0.00    +0.000 HD
ATOM      5  H   UNL     1       4.800   2.885 -21.934  0.00  0.00    +0.000 HD
ENDROOT
BRANCH   1   6
ATOM      6  C   UNL     1       2.709   5.658 -21.655  0.00  0.00    +0.000 C 
ATOM      7  H   UNL     1       2.292   6.044 -20.718  0.00  0.00    +0.000 HD
ATOM      8  H   UNL     1       2.885   6.521 -22.306  0.00  0.00    +0.000 HD
ATOM      9  H   UNL     1       1.944   5.031 -22.127  0.00  0.00    +0.000 HD
ENDBRANCH   1   6
BRANCH   1  10
ATOM     10  C   UNL     1       5.173   5.562 -22.037  0.00  0.00    +0.000 C 
ATOM     11  H   UNL     1       5.607   6.261 -21.314  0.00  0.00    +0.000 HD
ATOM     12  H   UNL     1       5.959   4.860 -22.339  0.00  0.00    +0.000 HD
ATOM     13  H   UNL     1       4.898   6.132 -22.932  0.00  0.00    +0.000 HD
ENDBRANCH   1  10
BRANCH   2  14
ATOM     14  C   UNL     1       5.386   3.979 -19.524  0.00  0.00    +0.000 C 
ATOM     15  C   UNL     1       5.905   4.821 -18.609  0.00  0.00    +0.000 C 
ATOM     16  H   UNL     1       5.980   3.106 -19.792  0.00  0.00    +0.000 HD
BRANCH  15  17
ATOM     17  C   UNL     1       7.256   4.568 -18.000  0.00  0.00    +0.000 C 
ATOM     18  H   UNL     1       7.444   3.492 -17.928  0.00  0.00    +0.000 HD
ATOM     19  H   UNL     1       8.041   5.017 -18.618  0.00  0.00    +0.000 HD
ATOM     20  H   UNL     1       7.345   4.988 -16.993  0.00  0.00    +0.000 HD
ENDBRANCH  15  17
BRANCH  15  21
ATOM     21  C   UNL     1       5.207   6.058 -18.121  0.00  0.00    +0.000 C 
ATOM     22  H   UNL     1       5.781   6.949 -18.398  0.00  0.00    +0.000 HD
ATOM     23  H   UNL     1       4.213   6.133 -18.572  0.00  0.00    +0.000 HD
ATOM     24  H   UNL     1       5.079   6.075 -17.035  0.00  0.00    +0.000 HD
ENDBRANCH  15  21
ENDBRANCH   2  14
BRANCH   3  26
ATOM     25  O   UNL     1       2.229   2.464 -22.914  0.00  0.00    +0.000 OA
ATOM     26  C   UNL     1       2.661   2.688 -21.792  0.00  0.00    +0.000 C 
BRANCH  26  27
ATOM     27  O   UNL     1       2.070   2.342 -20.614  0.00  0.00    +0.000 OA
BRANCH  27  28
ATOM     28  C   UNL     1       0.661   2.579 -20.540  0.00  0.00    +0.000 C 
ATOM     29  H   UNL     1       0.299   2.936 -21.510  0.00  0.00    +0.000 HD
ATOM     30  H   UNL     1       0.147   1.646 -20.281  0.00  0.00    +0.000 HD
BRANCH  28  31
ATOM     31  C   UNL     1       0.391   3.623 -19.477  0.00  0.00    +0.000 C 
ATOM     32  H   UNL     1      -0.205   3.205 -18.660  0.00  0.00    +0.000 HD
ATOM     33  H   UNL     1       1.330   4.009 -19.069  0.00  0.00    +0.000 HD
ATOM     34  H   UNL     1      -0.145   4.477 -19.904  0.00  0.00    +0.000 HD
ENDBRANCH  28  31
ENDBRANCH  27  28
ENDBRANCH  26  27
ENDBRANCH   3  26
TORSDOF 9
ENDMDL
MODEL 5
REMARK VINA RESULT:    -4.577     29.747     30.904
REMARK INTER + INTRA:          -6.996
REMARK INTER:                  -6.613
REMARK INTRA:                  -0.383
REMARK UNBOUND:                -0.680
REMARK  Name = 7334
REMARK  9 active torsions:
REMARK  status: ('A' for Active; 'I' for Inactive)
REMARK    1  A    between atoms: O_1  and  C_9
REMARK    2  A    between atoms: O_1  and  C_13
REMARK    3  A    between atoms: C_3  and  C_6
REMARK    4  A    between atoms: C_3  and  C_7
REMARK    5  A    between atoms: C_4  and  C_8
REMARK    6  A    between atoms: C_5  and  C_9
REMARK    7  A    between atoms: C_10  and  C_11
REMARK    8  A    between atoms: C_10  and  C_12
REMARK    9  A    between atoms: C_13  and  C_14
REMARK                            x       y       z     vdW  Elec       q    Type
REMARK                         _______ _______ _______ _____ _____    ______ ____
ROOT
ATOM      1  C   UNL     1      -6.702 -14.620   0.932  0.00  0.00    +0.000 C 
ATOM      2  C   UNL     1      -6.792 -14.978   2.376  0.00  0.00    +0.000 C 
ATOM      3  C   UNL     1      -5.465 -14.649   1.782  0.00  0.00    +0.000 C 
ATOM      4  H   UNL     1      -6.989 -16.014   2.634  0.00  0.00    +0.000 HD
ATOM      5  H   UNL     1      -5.018 -13.692   2.038  0.00  0.00    +0.000 HD
ENDROOT
BRANCH   1   6
ATOM      6  C   UNL     1      -6.934 -15.718  -0.050  0.00  0.00    +0.000 C 
ATOM      7  H   UNL     1      -7.898 -15.638  -0.566  0.00  0.00    +0.000 HD
ATOM      8  H   UNL     1      -6.157 -15.710  -0.822  0.00  0.00    +0.000 HD
ATOM      9  H   UNL     1      -6.903 -16.693   0.449  0.00  0.00    +0.000 HD
ENDBRANCH   1   6
BRANCH   1  10
ATOM     10  C   UNL     1      -7.173 -13.286   0.455  0.00  0.00    +0.000 C 
ATOM     11  H   UNL     1      -8.182 -13.360   0.036  0.00  0.00    +0.000 HD
ATOM     12  H   UNL     1      -7.192 -12.527   1.244  0.00  0.00    +0.000 HD
ATOM     13  H   UNL     1      -6.510 -12.908  -0.332  0.00  0.00    +0.000 HD
ENDBRANCH   1  10
BRANCH   2  14
ATOM     14  C   UNL     1      -7.377 -14.020   3.333  0.00  0.00    +0.000 C 
ATOM     15  C   UNL     1      -7.436 -14.128   4.675  0.00  0.00    +0.000 C 
ATOM     16  H   UNL     1      -7.797 -13.120   2.886  0.00  0.00    +0.000 HD
BRANCH  15  17
ATOM     17  C   UNL     1      -8.073 -13.055   5.513  0.00  0.00    +0.000 C 
ATOM     18  H   UNL     1      -8.042 -13.333   6.572  0.00  0.00    +0.000 HD
ATOM     19  H   UNL     1      -7.537 -12.108   5.387  0.00  0.00    +0.000 HD
ATOM     20  H   UNL     1      -9.120 -12.882   5.246  0.00  0.00    +0.000 HD
ENDBRANCH  15  17
BRANCH  15  21
ATOM     21  C   UNL     1      -6.889 -15.297   5.444  0.00  0.00    +0.000 C 
ATOM     22  H   UNL     1      -7.709 -15.921   5.814  0.00  0.00    +0.000 HD
ATOM     23  H   UNL     1      -6.252 -15.908   4.798  0.00  0.00    +0.000 HD
ATOM     24  H   UNL     1      -6.290 -14.995   6.307  0.00  0.00    +0.000 HD
ENDBRANCH  15  21
ENDBRANCH   2  14
BRANCH   3  26
ATOM     25  O   UNL     1      -4.483 -16.761   2.297  0.00  0.00    +0.000 OA
ATOM     26  C   UNL     1      -4.481 -15.736   1.629  0.00  0.00    +0.000 C 
BRANCH  26  27
ATOM     27  O   UNL     1      -3.593 -15.414   0.646  0.00  0.00    +0.000 OA
BRANCH  27  28
ATOM     28  C   UNL     1      -2.213 -15.573   0.987  0.00  0.00    +0.000 C 
ATOM     29  H   UNL     1      -2.107 -16.392   1.707  0.00  0.00    +0.000 HD
ATOM     30  H   UNL     1      -1.639 -15.808   0.083  0.00  0.00    +0.000 HD
BRANCH  28  31
ATOM     31  C   UNL     1      -1.703 -14.285   1.598  0.00  0.00    +0.000 C 
ATOM     32  H   UNL     1      -1.404 -14.437   2.639  0.00  0.00    +0.000 HD
ATOM     33  H   UNL     1      -0.844 -13.906   1.034  0.00  0.00    +0.000 HD
ATOM     34  H   UNL     1      -2.476 -13.510   1.561  0.00  0.00    +0.000 HD
ENDBRANCH  28  31
ENDBRANCH  27  28
ENDBRANCH  26  27
ENDBRANCH   3  26
TORSDOF 9
ENDMDL
MODEL 6
REMARK VINA RESULT:    -4.541     30.605     31.715
REMARK INTER + INTRA:          -6.946
REMARK INTER:                  -6.508
REMARK INTRA:                  -0.439
REMARK UNBOUND:                -0.680
REMARK  Name = 7334
REMARK  9 active torsions:
REMARK  status: ('A' for Active; 'I' for Inactive)
REMARK    1  A    between atoms: O_1  and  C_9
REMARK    2  A    between atoms: O_1  and  C_13
REMARK    3  A    between atoms: C_3  and  C_6
REMARK    4  A    between atoms: C_3  and  C_7
REMARK    5  A    between atoms: C_4  and  C_8
REMARK    6  A    between atoms: C_5  and  C_9
REMARK    7  A    between atoms: C_10  and  C_11
REMARK    8  A    between atoms: C_10  and  C_12
REMARK    9  A    between atoms: C_13  and  C_14
REMARK                            x       y       z     vdW  Elec       q    Type
REMARK                         _______ _______ _______ _____ _____    ______ ____
ROOT
ATOM      1  C   UNL     1      -5.794 -13.919   3.761  0.00  0.00    +0.000 C 
ATOM      2  C   UNL     1      -7.260 -14.178   3.791  0.00  0.00    +0.000 C 
ATOM      3  C   UNL     1      -6.437 -14.741   2.684  0.00  0.00    +0.000 C 
ATOM      4  H   UNL     1      -7.930 -13.356   3.558  0.00  0.00    +0.000 HD
ATOM      5  H   UNL     1      -6.239 -15.810   2.692  0.00  0.00    +0.000 HD
ENDROOT
BRANCH   1   6
ATOM      6  C   UNL     1      -5.363 -12.525   3.451  0.00  0.00    +0.000 C 
ATOM      7  H   UNL     1      -4.321 -12.324   3.726  0.00  0.00    +0.000 HD
ATOM      8  H   UNL     1      -5.452 -12.328   2.377  0.00  0.00    +0.000 HD
ATOM      9  H   UNL     1      -5.992 -11.801   3.979  0.00  0.00    +0.000 HD
ENDBRANCH   1   6
BRANCH   1  10
ATOM     10  C   UNL     1      -4.883 -14.625   4.710  0.00  0.00    +0.000 C 
ATOM     11  H   UNL     1      -5.372 -15.513   5.125  0.00  0.00    +0.000 HD
ATOM     12  H   UNL     1      -3.942 -14.944   4.248  0.00  0.00    +0.000 HD
ATOM     13  H   UNL     1      -4.618 -13.967   5.545  0.00  0.00    +0.000 HD
ENDBRANCH   1  10
BRANCH   2  14
ATOM     14  C   UNL     1      -7.819 -15.117   4.783  0.00  0.00    +0.000 C 
ATOM     15  C   UNL     1      -8.093 -14.878   6.080  0.00  0.00    +0.000 C 
ATOM     16  H   UNL     1      -8.039 -16.113   4.402  0.00  0.00    +0.000 HD
BRANCH  15  17
ATOM     17  C   UNL     1      -8.663 -15.953   6.964  0.00  0.00    +0.000 C 
ATOM     18  H   UNL     1      -8.130 -15.979   7.920  0.00  0.00    +0.000 HD
ATOM     19  H   UNL     1      -9.723 -15.757   7.163  0.00  0.00    +0.000 HD
ATOM     20  H   UNL     1      -8.587 -16.948   6.514  0.00  0.00    +0.000 HD
ENDBRANCH  15  17
BRANCH  15  21
ATOM     21  C   UNL     1      -7.863 -13.555   6.753  0.00  0.00    +0.000 C 
ATOM     22  H   UNL     1      -6.857 -13.187   6.528  0.00  0.00    +0.000 HD
ATOM     23  H   UNL     1      -8.590 -12.819   6.396  0.00  0.00    +0.000 HD
ATOM     24  H   UNL     1      -7.957 -13.609   7.841  0.00  0.00    +0.000 HD
ENDBRANCH  15  21
ENDBRANCH   2  14
BRANCH   3  26
ATOM     25  O   UNL     1      -7.423 -13.309   1.050  0.00  0.00    +0.000 OA
ATOM     26  C   UNL     1      -6.617 -14.187   1.330  0.00  0.00    +0.000 C 
BRANCH  26  27
ATOM     27  O   UNL     1      -5.760 -14.802   0.467  0.00  0.00    +0.000 OA
BRANCH  27  28
ATOM     28  C   UNL     1      -4.891 -15.776   1.052  0.00  0.00    +0.000 C 
ATOM     29  H   UNL     1      -5.061 -15.815   2.134  0.00  0.00    +0.000 HD
ATOM     30  H   UNL     1      -5.098 -16.759   0.616  0.00  0.00    +0.000 HD
BRANCH  28  31
ATOM     31  C   UNL     1      -3.455 -15.386   0.774  0.00  0.00    +0.000 C 
ATOM     32  H   UNL     1      -3.404 -14.427   0.250  0.00  0.00    +0.000 HD
ATOM     33  H   UNL     1      -2.889 -15.308   1.709  0.00  0.00    +0.000 HD
ATOM     34  H   UNL     1      -2.959 -16.149   0.165  0.00  0.00    +0.000 HD
ENDBRANCH  28  31
ENDBRANCH  27  28
ENDBRANCH  26  27
ENDBRANCH   3  26
TORSDOF 9
ENDMDL
MODEL 7
REMARK VINA RESULT:    -4.529     30.262     31.197
REMARK INTER + INTRA:          -6.930
REMARK INTER:                  -6.292
REMARK INTRA:                  -0.637
REMARK UNBOUND:                -0.680
REMARK  Name = 7334
REMARK  9 active torsions:
REMARK  status: ('A' for Active; 'I' for Inactive)
REMARK    1  A    between atoms: O_1  and  C_9
REMARK    2  A    between atoms: O_1  and  C_13
REMARK    3  A    between atoms: C_3  and  C_6
REMARK    4  A    between atoms: C_3  and  C_7
REMARK    5  A    between atoms: C_4  and  C_8
REMARK    6  A    between atoms: C_5  and  C_9
REMARK    7  A    between atoms: C_10  and  C_11
REMARK    8  A    between atoms: C_10  and  C_12
REMARK    9  A    between atoms: C_13  and  C_14
REMARK                            x       y       z     vdW  Elec       q    Type
REMARK                         _______ _______ _______ _____ _____    ______ ____
ROOT
ATOM      1  C   UNL     1      -5.746 -13.833   2.707  0.00  0.00    +0.000 C 
ATOM      2  C   UNL     1      -4.401 -14.474   2.671  0.00  0.00    +0.000 C 
ATOM      3  C   UNL     1      -5.526 -15.165   3.363  0.00  0.00    +0.000 C 
ATOM      4  H   UNL     1      -3.614 -14.047   3.285  0.00  0.00    +0.000 HD
ATOM      5  H   UNL     1      -5.963 -16.034   2.877  0.00  0.00    +0.000 HD
ENDROOT
BRANCH   1   6
ATOM      6  C   UNL     1      -5.889 -12.618   3.561  0.00  0.00    +0.000 C 
ATOM      7  H   UNL     1      -6.933 -12.329   3.726  0.00  0.00    +0.000 HD
ATOM      8  H   UNL     1      -5.446 -12.791   4.547  0.00  0.00    +0.000 HD
ATOM      9  H   UNL     1      -5.375 -11.765   3.105  0.00  0.00    +0.000 HD
ENDBRANCH   1   6
BRANCH   1  10
ATOM     10  C   UNL     1      -6.601 -13.805   1.484  0.00  0.00    +0.000 C 
ATOM     11  H   UNL     1      -7.562 -13.325   1.697  0.00  0.00    +0.000 HD
ATOM     12  H   UNL     1      -6.138 -13.275   0.645  0.00  0.00    +0.000 HD
ATOM     13  H   UNL     1      -6.806 -14.825   1.139  0.00  0.00    +0.000 HD
ENDBRANCH   1  10
BRANCH   2  14
ATOM     14  C   UNL     1      -3.902 -15.059   1.412  0.00  0.00    +0.000 C 
ATOM     15  C   UNL     1      -2.627 -15.119   0.979  0.00  0.00    +0.000 C 
ATOM     16  H   UNL     1      -4.667 -15.498   0.772  0.00  0.00    +0.000 HD
BRANCH  15  17
ATOM     17  C   UNL     1      -2.283 -15.753  -0.340  0.00  0.00    +0.000 C 
ATOM     18  H   UNL     1      -1.299 -16.232  -0.285  0.00  0.00    +0.000 HD
ATOM     19  H   UNL     1      -3.026 -16.515  -0.599  0.00  0.00    +0.000 HD
ATOM     20  H   UNL     1      -2.253 -15.026  -1.157  0.00  0.00    +0.000 HD
ENDBRANCH  15  17
BRANCH  15  21
ATOM     21  C   UNL     1      -1.457 -14.575   1.749  0.00  0.00    +0.000 C 
ATOM     22  H   UNL     1      -1.071 -15.336   2.436  0.00  0.00    +0.000 HD
ATOM     23  H   UNL     1      -0.655 -14.289   1.062  0.00  0.00    +0.000 HD
ATOM     24  H   UNL     1      -1.712 -13.694   2.344  0.00  0.00    +0.000 HD
ENDBRANCH  15  21
ENDBRANCH   2  14
BRANCH   3  26
ATOM     25  O   UNL     1      -6.468 -15.399   5.542  0.00  0.00    +0.000 OA
ATOM     26  C   UNL     1      -5.479 -15.274   4.832  0.00  0.00    +0.000 C 
BRANCH  26  27
ATOM     27  O   UNL     1      -4.184 -15.215   5.253  0.00  0.00    +0.000 OA
BRANCH  27  28
ATOM     28  C   UNL     1      -3.649 -16.436   5.774  0.00  0.00    +0.000 C 
ATOM     29  H   UNL     1      -3.233 -16.256   6.771  0.00  0.00    +0.000 HD
ATOM     30  H   UNL     1      -4.448 -17.184   5.843  0.00  0.00    +0.000 HD
BRANCH  28  31
ATOM     31  C   UNL     1      -2.561 -16.933   4.847  0.00  0.00    +0.000 C 
ATOM     32  H   UNL     1      -2.070 -17.820   5.260  0.00  0.00    +0.000 HD
ATOM     33  H   UNL     1      -2.976 -17.183   3.865  0.00  0.00    +0.000 HD
ATOM     34  H   UNL     1      -1.807 -16.155   4.685  0.00  0.00    +0.000 HD
ENDBRANCH  28  31
ENDBRANCH  27  28
ENDBRANCH  26  27
ENDBRANCH   3  26
TORSDOF 9
ENDMDL
MODEL 8
REMARK VINA RESULT:    -4.490      1.782      2.515
REMARK INTER + INTRA:          -6.875
REMARK INTER:                  -6.123
REMARK INTRA:                  -0.753
REMARK UNBOUND:                -0.680
REMARK  Name = 7334
REMARK  9 active torsions:
REMARK  status: ('A' for Active; 'I' for Inactive)
REMARK    1  A    between atoms: O_1  and  C_9
REMARK    2  A    between atoms: O_1  and  C_13
REMARK    3  A    between atoms: C_3  and  C_6
REMARK    4  A    between atoms: C_3  and  C_7
REMARK    5  A    between atoms: C_4  and  C_8
REMARK    6  A    between atoms: C_5  and  C_9
REMARK    7  A    between atoms: C_10  and  C_11
REMARK    8  A    between atoms: C_10  and  C_12
REMARK    9  A    between atoms: C_13  and  C_14
REMARK                            x       y       z     vdW  Elec       q    Type
REMARK                         _______ _______ _______ _____ _____    ______ ____
ROOT
ATOM      1  C   UNL     1       2.495   3.034 -21.016  0.00  0.00    +0.000 C 
ATOM      2  C   UNL     1       2.083   4.449 -20.798  0.00  0.00    +0.000 C 
ATOM      3  C   UNL     1       1.162   3.346 -20.401  0.00  0.00    +0.000 C 
ATOM      4  H   UNL     1       1.817   5.044 -21.667  0.00  0.00    +0.000 HD
ATOM      5  H   UNL     1       1.046   3.140 -19.341  0.00  0.00    +0.000 HD
ENDROOT
BRANCH   1   6
ATOM      6  C   UNL     1       2.550   2.558 -22.429  0.00  0.00    +0.000 C 
ATOM      7  H   UNL     1       2.487   1.468 -22.519  0.00  0.00    +0.000 HD
ATOM      8  H   UNL     1       1.716   2.975 -23.004  0.00  0.00    +0.000 HD
ATOM      9  H   UNL     1       3.482   2.879 -22.907  0.00  0.00    +0.000 HD
ENDBRANCH   1   6
BRANCH   1  10
ATOM     10  C   UNL     1       3.524   2.404 -20.136  0.00  0.00    +0.000 C 
ATOM     11  H   UNL     1       4.366   2.034 -20.731  0.00  0.00    +0.000 HD
ATOM     12  H   UNL     1       3.922   3.088 -19.379  0.00  0.00    +0.000 HD
ATOM     13  H   UNL     1       3.094   1.552 -19.597  0.00  0.00    +0.000 HD
ENDBRANCH   1  10
BRANCH   2  14
ATOM     14  C   UNL     1       2.715   5.240 -19.725  0.00  0.00    +0.000 C 
ATOM     15  C   UNL     1       3.773   6.068 -19.826  0.00  0.00    +0.000 C 
ATOM     16  H   UNL     1       2.254   5.138 -18.744  0.00  0.00    +0.000 HD
BRANCH  15  17
ATOM     17  C   UNL     1       4.299   6.806 -18.627  0.00  0.00    +0.000 C 
ATOM     18  H   UNL     1       5.394   6.824 -18.644  0.00  0.00    +0.000 HD
ATOM     19  H   UNL     1       3.935   7.839 -18.626  0.00  0.00    +0.000 HD
ATOM     20  H   UNL     1       3.991   6.343 -17.684  0.00  0.00    +0.000 HD
ENDBRANCH  15  17
BRANCH  15  21
ATOM     21  C   UNL     1       4.509   6.331 -21.109  0.00  0.00    +0.000 C 
ATOM     22  H   UNL     1       3.869   6.884 -21.805  0.00  0.00    +0.000 HD
ATOM     23  H   UNL     1       5.406   6.927 -20.914  0.00  0.00    +0.000 HD
ATOM     24  H   UNL     1       4.826   5.414 -21.613  0.00  0.00    +0.000 HD
ENDBRANCH  15  21
ENDBRANCH   2  14
BRANCH   3  26
ATOM     25  O   UNL     1      -0.687   2.101 -21.252  0.00  0.00    +0.000 OA
ATOM     26  C   UNL     1      -0.078   3.160 -21.176  0.00  0.00    +0.000 C 
BRANCH  26  27
ATOM     27  O   UNL     1      -0.422   4.335 -21.775  0.00  0.00    +0.000 OA
BRANCH  27  28
ATOM     28  C   UNL     1      -0.678   4.257 -23.181  0.00  0.00    +0.000 C 
ATOM     29  H   UNL     1      -0.572   3.218 -23.514  0.00  0.00    +0.000 HD
ATOM     30  H   UNL     1      -1.698   4.602 -23.386  0.00  0.00    +0.000 HD
BRANCH  28  31
ATOM     31  C   UNL     1       0.316   5.134 -23.912  0.00  0.00    +0.000 C 
ATOM     32  H   UNL     1       1.030   5.582 -23.215  0.00  0.00    +0.000 HD
ATOM     33  H   UNL     1       0.867   4.552 -24.658  0.00  0.00    +0.000 HD
ATOM     34  H   UNL     1      -0.201   5.934 -24.453  0.00  0.00    +0.000 HD
ENDBRANCH  28  31
ENDBRANCH  27  28
ENDBRANCH  26  27
ENDBRANCH   3  26
TORSDOF 9
ENDMDL
MODEL 9
REMARK VINA RESULT:    -4.480     32.750     33.734
REMARK INTER + INTRA:          -6.862
REMARK INTER:                  -6.182
REMARK INTRA:                  -0.680
REMARK UNBOUND:                -0.680
REMARK  Name = 7334
REMARK  9 active torsions:
REMARK  status: ('A' for Active; 'I' for Inactive)
REMARK    1  A    between atoms: O_1  and  C_9
REMARK    2  A    between atoms: O_1  and  C_13
REMARK    3  A    between atoms: C_3  and  C_6
REMARK    4  A    between atoms: C_3  and  C_7
REMARK    5  A    between atoms: C_4  and  C_8
REMARK    6  A    between atoms: C_5  and  C_9
REMARK    7  A    between atoms: C_10  and  C_11
REMARK    8  A    between atoms: C_10  and  C_12
REMARK    9  A    between atoms: C_13  and  C_14
REMARK                            x       y       z     vdW  Elec       q    Type
REMARK                         _______ _______ _______ _____ _____    ______ ____
ROOT
ATOM      1  C   UNL     1      -8.148 -16.026   6.272  0.00  0.00    +0.000 C 
ATOM      2  C   UNL     1      -6.799 -16.144   5.652  0.00  0.00    +0.000 C 
ATOM      3  C   UNL     1      -7.234 -14.838   6.223  0.00  0.00    +0.000 C 
ATOM      4  H   UNL     1      -6.738 -16.229   4.570  0.00  0.00    +0.000 HD
ATOM      5  H   UNL     1      -6.785 -14.520   7.160  0.00  0.00    +0.000 HD
ENDROOT
BRANCH   1   6
ATOM      6  C   UNL     1      -9.320 -16.079   5.349  0.00  0.00    +0.000 C 
ATOM      7  H   UNL     1      -9.047 -15.940   4.297  0.00  0.00    +0.000 HD
ATOM      8  H   UNL     1      -9.819 -17.051   5.423  0.00  0.00    +0.000 HD
ATOM      9  H   UNL     1     -10.049 -15.305   5.609  0.00  0.00    +0.000 HD
ENDBRANCH   1   6
BRANCH   1  10
ATOM     10  C   UNL     1      -8.418 -16.628   7.611  0.00  0.00    +0.000 C 
ATOM     11  H   UNL     1      -7.882 -17.576   7.723  0.00  0.00    +0.000 HD
ATOM     12  H   UNL     1      -8.128 -15.977   8.443  0.00  0.00    +0.000 HD
ATOM     13  H   UNL     1      -9.488 -16.832   7.728  0.00  0.00    +0.000 HD
ENDBRANCH   1  10
BRANCH   2  14
ATOM     14  C   UNL     1      -5.732 -16.883   6.352  0.00  0.00    +0.000 C 
ATOM     15  C   UNL     1      -4.401 -16.778   6.173  0.00  0.00    +0.000 C 
ATOM     16  H   UNL     1      -6.079 -17.587   7.109  0.00  0.00    +0.000 HD
BRANCH  15  17
ATOM     17  C   UNL     1      -3.440 -17.612   6.974  0.00  0.00    +0.000 C 
ATOM     18  H   UNL     1      -3.142 -18.499   6.404  0.00  0.00    +0.000 HD
ATOM     19  H   UNL     1      -2.541 -17.033   7.211  0.00  0.00    +0.000 HD
ATOM     20  H   UNL     1      -3.873 -17.956   7.919  0.00  0.00    +0.000 HD
ENDBRANCH  15  17
BRANCH  15  21
ATOM     21  C   UNL     1      -3.763 -15.846   5.183  0.00  0.00    +0.000 C 
ATOM     22  H   UNL     1      -3.128 -15.121   5.703  0.00  0.00    +0.000 HD
ATOM     23  H   UNL     1      -3.141 -16.409   4.480  0.00  0.00    +0.000 HD
ATOM     24  H   UNL     1      -4.493 -15.281   4.597  0.00  0.00    +0.000 HD
ENDBRANCH  15  21
ENDBRANCH   2  14
BRANCH   3  26
ATOM     25  O   UNL     1      -8.311 -12.832   5.511  0.00  0.00    +0.000 OA
ATOM     26  C   UNL     1      -7.504 -13.725   5.294  0.00  0.00    +0.000 C 
BRANCH  26  27
ATOM     27  O   UNL     1      -6.724 -13.858   4.184  0.00  0.00    +0.000 OA
BRANCH  27  28
ATOM     28  C   UNL     1      -7.406 -13.723   2.933  0.00  0.00    +0.000 C 
ATOM     29  H   UNL     1      -8.484 -13.644   3.112  0.00  0.00    +0.000 HD
ATOM     30  H   UNL     1      -7.055 -12.820   2.421  0.00  0.00    +0.000 HD
BRANCH  28  31
ATOM     31  C   UNL     1      -7.116 -14.940   2.080  0.00  0.00    +0.000 C 
ATOM     32  H   UNL     1      -6.093 -15.294   2.238  0.00  0.00    +0.000 HD
ATOM     33  H   UNL     1      -7.812 -15.751   2.318  0.00  0.00    +0.000 HD
ATOM     34  H   UNL     1      -7.250 -14.707   1.018  0.00  0.00    +0.000 HD
ENDBRANCH  28  31
ENDBRANCH  27  28
ENDBRANCH  26  27
ENDBRANCH   3  26
TORSDOF 9
ENDMDL
MODEL 10
REMARK VINA RESULT:    -4.445     22.379     23.982
REMARK INTER + INTRA:          -6.814
REMARK INTER:                  -6.287
REMARK INTRA:                  -0.527
REMARK UNBOUND:                -0.680
REMARK  Name = 7334
REMARK  9 active torsions:
REMARK  status: ('A' for Active; 'I' for Inactive)
REMARK    1  A    between atoms: O_1  and  C_9
REMARK    2  A    between atoms: O_1  and  C_13
REMARK    3  A    between atoms: C_3  and  C_6
REMARK    4  A    between atoms: C_3  and  C_7
REMARK    5  A    between atoms: C_4  and  C_8
REMARK    6  A    between atoms: C_5  and  C_9
REMARK    7  A    between atoms: C_10  and  C_11
REMARK    8  A    between atoms: C_10  and  C_12
REMARK    9  A    between atoms: C_13  and  C_14
REMARK                            x       y       z     vdW  Elec       q    Type
REMARK                         _______ _______ _______ _____ _____    ______ ____
ROOT
ATOM      1  C   UNL     1      15.095   5.917  -1.431  0.00  0.00    +0.000 C 
ATOM      2  C   UNL     1      16.187   6.763  -0.872  0.00  0.00    +0.000 C 
ATOM      3  C   UNL     1      16.174   5.299  -0.591  0.00  0.00    +0.000 C 
ATOM      4  H   UNL     1      15.944   7.437  -0.055  0.00  0.00    +0.000 HD
ATOM      5  H   UNL     1      16.905   4.679  -1.104  0.00  0.00    +0.000 HD
ENDROOT
BRANCH   1   6
ATOM      6  C   UNL     1      13.735   6.099  -0.845  0.00  0.00    +0.000 C 
ATOM      7  H   UNL     1      12.941   6.127  -1.600  0.00  0.00    +0.000 HD
ATOM      8  H   UNL     1      13.499   5.275  -0.164  0.00  0.00    +0.000 HD
ATOM      9  H   UNL     1      13.684   7.033  -0.274  0.00  0.00    +0.000 HD
ENDBRANCH   1   6
BRANCH   1  10
ATOM     10  C   UNL     1      15.076   5.573  -2.883  0.00  0.00    +0.000 C 
ATOM     11  H   UNL     1      14.197   4.966  -3.124  0.00  0.00    +0.000 HD
ATOM     12  H   UNL     1      15.066   6.453  -3.535  0.00  0.00    +0.000 HD
ATOM     13  H   UNL     1      15.967   4.993  -3.149  0.00  0.00    +0.000 HD
ENDBRANCH   1  10
BRANCH   2  14
ATOM     14  C   UNL     1      17.238   7.287  -1.764  0.00  0.00    +0.000 C 
ATOM     15  C   UNL     1      17.143   8.304  -2.641  0.00  0.00    +0.000 C 
ATOM     16  H   UNL     1      18.203   6.786  -1.683  0.00  0.00    +0.000 HD
BRANCH  15  17
ATOM     17  C   UNL     1      18.318   8.716  -3.484  0.00  0.00    +0.000 C 
ATOM     18  H   UNL     1      18.026   9.511  -4.178  0.00  0.00    +0.000 HD
ATOM     19  H   UNL     1      19.128   9.090  -2.848  0.00  0.00    +0.000 HD
ATOM     20  H   UNL     1      18.717   7.888  -4.078  0.00  0.00    +0.000 HD
ENDBRANCH  15  17
BRANCH  15  21
ATOM     21  C   UNL     1      15.891   9.105  -2.859  0.00  0.00    +0.000 C 
ATOM     22  H   UNL     1      15.098   8.756  -2.189  0.00  0.00    +0.000 HD
ATOM     23  H   UNL     1      16.079  10.163  -2.650  0.00  0.00    +0.000 HD
ATOM     24  H   UNL     1      15.512   9.034  -3.882  0.00  0.00    +0.000 HD
ENDBRANCH  15  21
ENDBRANCH   2  14
BRANCH   3  26
ATOM     25  O   UNL     1      15.925   5.588   1.763  0.00  0.00    +0.000 OA
ATOM     26  C   UNL     1      15.888   4.854   0.785  0.00  0.00    +0.000 C 
BRANCH  26  27
ATOM     27  O   UNL     1      15.583   3.526   0.781  0.00  0.00    +0.000 OA
BRANCH  27  28
ATOM     28  C   UNL     1      14.481   3.145   1.611  0.00  0.00    +0.000 C 
ATOM     29  H   UNL     1      14.732   2.227   2.153  0.00  0.00    +0.000 HD
ATOM     30  H   UNL     1      14.271   3.946   2.329  0.00  0.00    +0.000 HD
BRANCH  28  31
ATOM     31  C   UNL     1      13.266   2.908   0.739  0.00  0.00    +0.000 C 
ATOM     32  H   UNL     1      12.366   2.779   1.348  0.00  0.00    +0.000 HD
ATOM     33  H   UNL     1      13.113   3.749   0.055  0.00  0.00    +0.000 HD
ATOM     34  H   UNL     1      13.405   2.015   0.120  0.00  0.00    +0.000 HD
ENDBRANCH  28  31
ENDBRANCH  27  28
ENDBRANCH  26  27
ENDBRANCH   3  26
TORSDOF 9
ENDMDL
