MODEL 1
REMARK VINA RESULT:    -3.882      0.000      0.000
REMARK INTER + INTRA:          -4.899
REMARK INTER:                  -4.739
REMARK INTRA:                  -0.161
REMARK UNBOUND:                -0.109
REMARK  Name = 429065
REMARK  5 active torsions:
REMARK  status: ('A' for Active; 'I' for Inactive)
REMARK    1  A    between atoms: O_1  and  C_3
REMARK    2  A    between atoms: O_1  and  C_5
REMARK    3  A    between atoms: C_3  and  C_4
REMARK    4  A    between atoms: C_5  and  C_6
REMARK    5  A    between atoms: C_7  and  C_8
REMARK                            x       y       z     vdW  Elec       q    Type
REMARK                         _______ _______ _______ _____ _____    ______ ____
ROOT
ATOM      1  O   UNL     1      17.645  -3.796  -2.146  0.00  0.00    +0.000 OA
ATOM      2  C   UNL     1      16.754  -4.618  -2.295  0.00  0.00    +0.000 C 
ENDROOT
BRANCH   2   3
ATOM      3  C   UNL     1      16.610  -5.523  -3.456  0.00  0.00    +0.000 C 
ATOM      4  C   UNL     1      17.693  -5.909  -4.142  0.00  0.00    +0.000 C 
ATOM      5  H   UNL     1      15.616  -5.860  -3.731  0.00  0.00    +0.000 HD
ATOM      6  H   UNL     1      18.682  -5.563  -3.855  0.00  0.00    +0.000 HD
BRANCH   4   7
ATOM      7  C   UNL     1      17.635  -6.820  -5.324  0.00  0.00    +0.000 C 
ATOM      8  H   UNL     1      17.083  -7.729  -5.068  0.00  0.00    +0.000 HD
ATOM      9  H   UNL     1      18.630  -7.111  -5.674  0.00  0.00    +0.000 HD
ATOM     10  H   UNL     1      17.115  -6.323  -6.150  0.00  0.00    +0.000 HD
ENDBRANCH   4   7
ENDBRANCH   2   3
BRANCH   2  11
ATOM     11  O   UNL     1      15.723  -4.870  -1.445  0.00  0.00    +0.000 OA
BRANCH  11  12
ATOM     12  C   UNL     1      15.437  -6.254  -1.217  0.00  0.00    +0.000 C 
ATOM     13  H   UNL     1      14.353  -6.405  -1.199  0.00  0.00    +0.000 HD
ATOM     14  H   UNL     1      15.875  -6.854  -2.024  0.00  0.00    +0.000 HD
BRANCH  12  15
ATOM     15  C   UNL     1      16.035  -6.669   0.111  0.00  0.00    +0.000 C 
ATOM     16  H   UNL     1      16.981  -6.151   0.292  0.00  0.00    +0.000 HD
ATOM     17  H   UNL     1      15.344  -6.443   0.931  0.00  0.00    +0.000 HD
ATOM     18  H   UNL     1      16.212  -7.749   0.133  0.00  0.00    +0.000 HD
ENDBRANCH  12  15
ENDBRANCH  11  12
ENDBRANCH   2  11
TORSDOF 5
ENDMDL
MODEL 2
REMARK VINA RESULT:    -3.651     25.274     26.779
REMARK INTER + INTRA:          -4.614
REMARK INTER:                  -4.550
REMARK INTRA:                  -0.064
REMARK UNBOUND:                -0.109
REMARK  Name = 429065
REMARK  5 active torsions:
REMARK  status: ('A' for Active; 'I' for Inactive)
REMARK    1  A    between atoms: O_1  and  C_3
REMARK    2  A    between atoms: O_1  and  C_5
REMARK    3  A    between atoms: C_3  and  C_4
REMARK    4  A    between atoms: C_5  and  C_6
REMARK    5  A    between atoms: C_7  and  C_8
REMARK                            x       y       z     vdW  Elec       q    Type
REMARK                         _______ _______ _______ _____ _____    ______ ____
ROOT
ATOM      1  O   UNL     1      -7.063 -12.398   4.790  0.00  0.00    +0.000 OA
ATOM      2  C   UNL     1      -7.480 -13.416   4.262  0.00  0.00    +0.000 C 
ENDROOT
BRANCH   2   3
ATOM      3  C   UNL     1      -7.817 -14.672   4.968  0.00  0.00    +0.000 C 
ATOM      4  C   UNL     1      -8.158 -14.640   6.263  0.00  0.00    +0.000 C 
ATOM      5  H   UNL     1      -7.779 -15.604   4.415  0.00  0.00    +0.000 HD
ATOM      6  H   UNL     1      -8.190 -13.698   6.803  0.00  0.00    +0.000 HD
BRANCH   4   7
ATOM      7  C   UNL     1      -8.510 -15.860   7.049  0.00  0.00    +0.000 C 
ATOM      8  H   UNL     1      -7.996 -15.843   8.014  0.00  0.00    +0.000 HD
ATOM      9  H   UNL     1      -8.233 -16.783   6.530  0.00  0.00    +0.000 HD
ATOM     10  H   UNL     1      -9.589 -15.884   7.234  0.00  0.00    +0.000 HD
ENDBRANCH   4   7
ENDBRANCH   2   3
BRANCH   2  11
ATOM     11  O   UNL     1      -7.719 -13.612   2.937  0.00  0.00    +0.000 OA
BRANCH  11  12
ATOM     12  C   UNL     1      -6.559 -13.629   2.098  0.00  0.00    +0.000 C 
ATOM     13  H   UNL     1      -5.963 -12.730   2.282  0.00  0.00    +0.000 HD
ATOM     14  H   UNL     1      -5.958 -14.517   2.326  0.00  0.00    +0.000 HD
BRANCH  12  15
ATOM     15  C   UNL     1      -6.998 -13.666   0.650  0.00  0.00    +0.000 C 
ATOM     16  H   UNL     1      -7.155 -12.655   0.264  0.00  0.00    +0.000 HD
ATOM     17  H   UNL     1      -6.246 -14.168   0.032  0.00  0.00    +0.000 HD
ATOM     18  H   UNL     1      -7.927 -14.234   0.544  0.00  0.00    +0.000 HD
ENDBRANCH  12  15
ENDBRANCH  11  12
ENDBRANCH   2  11
TORSDOF 5
ENDMDL
MODEL 3
REMARK VINA RESULT:    -3.521      1.753      2.846
REMARK INTER + INTRA:          -4.454
REMARK INTER:                  -4.383
REMARK INTRA:                  -0.071
REMARK UNBOUND:                -0.109
REMARK  Name = 429065
REMARK  5 active torsions:
REMARK  status: ('A' for Active; 'I' for Inactive)
REMARK    1  A    between atoms: O_1  and  C_3
REMARK    2  A    between atoms: O_1  and  C_5
REMARK    3  A    between atoms: C_3  and  C_4
REMARK    4  A    between atoms: C_5  and  C_6
REMARK    5  A    between atoms: C_7  and  C_8
REMARK                            x       y       z     vdW  Elec       q    Type
REMARK                         _______ _______ _______ _____ _____    ______ ____
ROOT
ATOM      1  O   UNL     1      16.763  -4.659  -1.063  0.00  0.00    +0.000 OA
ATOM      2  C   UNL     1      17.239  -4.449  -2.168  0.00  0.00    +0.000 C 
ENDROOT
BRANCH   2   3
ATOM      3  C   UNL     1      16.925  -5.210  -3.396  0.00  0.00    +0.000 C 
ATOM      4  C   UNL     1      17.862  -5.981  -3.964  0.00  0.00    +0.000 C 
ATOM      5  H   UNL     1      15.928  -5.127  -3.818  0.00  0.00    +0.000 HD
ATOM      6  H   UNL     1      18.855  -6.053  -3.530  0.00  0.00    +0.000 HD
BRANCH   4   7
ATOM      7  C   UNL     1      17.627  -6.780  -5.203  0.00  0.00    +0.000 C 
ATOM      8  H   UNL     1      16.755  -6.392  -5.737  0.00  0.00    +0.000 HD
ATOM      9  H   UNL     1      17.452  -7.839  -4.988  0.00  0.00    +0.000 HD
ATOM     10  H   UNL     1      18.496  -6.706  -5.864  0.00  0.00    +0.000 HD
ENDBRANCH   4   7
ENDBRANCH   2   3
BRANCH   2  11
ATOM     11  O   UNL     1      18.143  -3.487  -2.499  0.00  0.00    +0.000 OA
BRANCH  11  12
ATOM     12  C   UNL     1      19.367  -3.513  -1.756  0.00  0.00    +0.000 C 
ATOM     13  H   UNL     1      19.485  -4.492  -1.281  0.00  0.00    +0.000 HD
ATOM     14  H   UNL     1      20.209  -3.333  -2.435  0.00  0.00    +0.000 HD
BRANCH  12  15
ATOM     15  C   UNL     1      19.324  -2.432  -0.697  0.00  0.00    +0.000 C 
ATOM     16  H   UNL     1      18.348  -1.938  -0.683  0.00  0.00    +0.000 HD
ATOM     17  H   UNL     1      19.520  -2.855   0.294  0.00  0.00    +0.000 HD
ATOM     18  H   UNL     1      20.098  -1.681  -0.882  0.00  0.00    +0.000 HD
ENDBRANCH  12  15
ENDBRANCH  11  12
ENDBRANCH   2  11
TORSDOF 5
ENDMDL
MODEL 4
REMARK VINA RESULT:    -3.414     24.940     25.914
REMARK INTER + INTRA:          -4.322
REMARK INTER:                  -4.226
REMARK INTRA:                  -0.095
REMARK UNBOUND:                -0.109
REMARK  Name = 429065
REMARK  5 active torsions:
REMARK  status: ('A' for Active; 'I' for Inactive)
REMARK    1  A    between atoms: O_1  and  C_3
REMARK    2  A    between atoms: O_1  and  C_5
REMARK    3  A    between atoms: C_3  and  C_4
REMARK    4  A    between atoms: C_5  and  C_6
REMARK    5  A    between atoms: C_7  and  C_8
REMARK                            x       y       z     vdW  Elec       q    Type
REMARK                         _______ _______ _______ _____ _____    ______ ____
ROOT
ATOM      1  O   UNL     1      -5.364 -13.782   2.496  0.00  0.00    +0.000 OA
ATOM      2  C   UNL     1      -6.577 -13.661   2.565  0.00  0.00    +0.000 C 
ENDROOT
BRANCH   2   3
ATOM      3  C   UNL     1      -7.391 -13.876   3.781  0.00  0.00    +0.000 C 
ATOM      4  C   UNL     1      -7.147 -13.159   4.885  0.00  0.00    +0.000 C 
ATOM      5  H   UNL     1      -8.179 -14.621   3.753  0.00  0.00    +0.000 HD
ATOM      6  H   UNL     1      -6.353 -12.417   4.899  0.00  0.00    +0.000 HD
BRANCH   4   7
ATOM      7  C   UNL     1      -7.921 -13.314   6.153  0.00  0.00    +0.000 C 
ATOM      8  H   UNL     1      -8.372 -14.310   6.194  0.00  0.00    +0.000 HD
ATOM      9  H   UNL     1      -8.721 -12.573   6.245  0.00  0.00    +0.000 HD
ATOM     10  H   UNL     1      -7.252 -13.204   7.013  0.00  0.00    +0.000 HD
ENDBRANCH   4   7
ENDBRANCH   2   3
BRANCH   2  11
ATOM     11  O   UNL     1      -7.423 -13.311   1.559  0.00  0.00    +0.000 OA
BRANCH  11  12
ATOM     12  C   UNL     1      -7.017 -13.713   0.246  0.00  0.00    +0.000 C 
ATOM     13  H   UNL     1      -7.567 -13.130  -0.500  0.00  0.00    +0.000 HD
ATOM     14  H   UNL     1      -5.942 -13.536   0.127  0.00  0.00    +0.000 HD
BRANCH  12  15
ATOM     15  C   UNL     1      -7.316 -15.186   0.067  0.00  0.00    +0.000 C 
ATOM     16  H   UNL     1      -6.730 -15.607  -0.755  0.00  0.00    +0.000 HD
ATOM     17  H   UNL     1      -7.087 -15.740   0.985  0.00  0.00    +0.000 HD
ATOM     18  H   UNL     1      -8.379 -15.341  -0.140  0.00  0.00    +0.000 HD
ENDBRANCH  12  15
ENDBRANCH  11  12
ENDBRANCH   2  11
TORSDOF 5
ENDMDL
MODEL 5
REMARK VINA RESULT:    -3.331      1.973      3.838
REMARK INTER + INTRA:          -4.219
REMARK INTER:                  -4.113
REMARK INTRA:                  -0.106
REMARK UNBOUND:                -0.109
REMARK  Name = 429065
REMARK  5 active torsions:
REMARK  status: ('A' for Active; 'I' for Inactive)
REMARK    1  A    between atoms: O_1  and  C_3
REMARK    2  A    between atoms: O_1  and  C_5
REMARK    3  A    between atoms: C_3  and  C_4
REMARK    4  A    between atoms: C_5  and  C_6
REMARK    5  A    between atoms: C_7  and  C_8
REMARK                            x       y       z     vdW  Elec       q    Type
REMARK                         _______ _______ _______ _____ _____    ______ ____
ROOT
ATOM      1  O   UNL     1      18.008  -3.333  -1.384  0.00  0.00    +0.000 OA
ATOM      2  C   UNL     1      18.066  -3.942  -2.441  0.00  0.00    +0.000 C 
ENDROOT
BRANCH   2   3
ATOM      3  C   UNL     1      17.230  -5.107  -2.806  0.00  0.00    +0.000 C 
ATOM      4  C   UNL     1      16.063  -5.314  -2.183  0.00  0.00    +0.000 C 
ATOM      5  H   UNL     1      17.586  -5.779  -3.580  0.00  0.00    +0.000 HD
ATOM      6  H   UNL     1      15.721  -4.633  -1.409  0.00  0.00    +0.000 HD
BRANCH   4   7
ATOM      7  C   UNL     1      15.161  -6.464  -2.490  0.00  0.00    +0.000 C 
ATOM      8  H   UNL     1      14.523  -6.220  -3.344  0.00  0.00    +0.000 HD
ATOM      9  H   UNL     1      14.516  -6.724  -1.645  0.00  0.00    +0.000 HD
ATOM     10  H   UNL     1      15.758  -7.346  -2.748  0.00  0.00    +0.000 HD
ENDBRANCH   4   7
ENDBRANCH   2   3
BRANCH   2  11
ATOM     11  O   UNL     1      18.896  -3.686  -3.488  0.00  0.00    +0.000 OA
BRANCH  11  12
ATOM     12  C   UNL     1      20.268  -4.044  -3.288  0.00  0.00    +0.000 C 
ATOM     13  H   UNL     1      20.890  -3.145  -3.336  0.00  0.00    +0.000 HD
ATOM     14  H   UNL     1      20.382  -4.514  -2.305  0.00  0.00    +0.000 HD
BRANCH  12  15
ATOM     15  C   UNL     1      20.686  -5.016  -4.371  0.00  0.00    +0.000 C 
ATOM     16  H   UNL     1      21.133  -4.488  -5.219  0.00  0.00    +0.000 HD
ATOM     17  H   UNL     1      21.413  -5.737  -3.981  0.00  0.00    +0.000 HD
ATOM     18  H   UNL     1      19.826  -5.591  -4.726  0.00  0.00    +0.000 HD
ENDBRANCH  12  15
ENDBRANCH  11  12
ENDBRANCH   2  11
TORSDOF 5
ENDMDL
MODEL 6
REMARK VINA RESULT:    -3.293     25.788     26.730
REMARK INTER + INTRA:          -4.173
REMARK INTER:                  -4.045
REMARK INTRA:                  -0.128
REMARK UNBOUND:                -0.109
REMARK  Name = 429065
REMARK  5 active torsions:
REMARK  status: ('A' for Active; 'I' for Inactive)
REMARK    1  A    between atoms: O_1  and  C_3
REMARK    2  A    between atoms: O_1  and  C_5
REMARK    3  A    between atoms: C_3  and  C_4
REMARK    4  A    between atoms: C_5  and  C_6
REMARK    5  A    between atoms: C_7  and  C_8
REMARK                            x       y       z     vdW  Elec       q    Type
REMARK                         _______ _______ _______ _____ _____    ______ ____
ROOT
ATOM      1  O   UNL     1      10.133  19.017 -11.744  0.00  0.00    +0.000 OA
ATOM      2  C   UNL     1      11.136  19.094 -11.052  0.00  0.00    +0.000 C 
ENDROOT
BRANCH   2   3
ATOM      3  C   UNL     1      12.426  18.430 -11.338  0.00  0.00    +0.000 C 
ATOM      4  C   UNL     1      12.447  17.153 -11.741  0.00  0.00    +0.000 C 
ATOM      5  H   UNL     1      13.342  18.998 -11.212  0.00  0.00    +0.000 HD
ATOM      6  H   UNL     1      11.521  16.596 -11.862  0.00  0.00    +0.000 HD
BRANCH   4   7
ATOM      7  C   UNL     1      13.704  16.409 -12.049  0.00  0.00    +0.000 C 
ATOM      8  H   UNL     1      13.474  15.362 -12.268  0.00  0.00    +0.000 HD
ATOM      9  H   UNL     1      14.416  16.435 -11.218  0.00  0.00    +0.000 HD
ATOM     10  H   UNL     1      14.189  16.846 -12.927  0.00  0.00    +0.000 HD
ENDBRANCH   4   7
ENDBRANCH   2   3
BRANCH   2  11
ATOM     11  O   UNL     1      11.280  19.793  -9.894  0.00  0.00    +0.000 OA
BRANCH  11  12
ATOM     12  C   UNL     1      10.642  21.075  -9.866  0.00  0.00    +0.000 C 
ATOM     13  H   UNL     1       9.655  21.001 -10.332  0.00  0.00    +0.000 HD
ATOM     14  H   UNL     1      10.531  21.404  -8.827  0.00  0.00    +0.000 HD
BRANCH  12  15
ATOM     15  C   UNL     1      11.496  22.066 -10.628  0.00  0.00    +0.000 C 
ATOM     16  H   UNL     1      10.902  22.598 -11.378  0.00  0.00    +0.000 HD
ATOM     17  H   UNL     1      11.940  22.798  -9.944  0.00  0.00    +0.000 HD
ATOM     18  H   UNL     1      12.324  21.556 -11.129  0.00  0.00    +0.000 HD
ENDBRANCH  12  15
ENDBRANCH  11  12
ENDBRANCH   2  11
TORSDOF 5
ENDMDL
MODEL 7
REMARK VINA RESULT:    -3.224     10.735     11.669
REMARK INTER + INTRA:          -4.087
REMARK INTER:                  -4.015
REMARK INTRA:                  -0.072
REMARK UNBOUND:                -0.109
REMARK  Name = 429065
REMARK  5 active torsions:
REMARK  status: ('A' for Active; 'I' for Inactive)
REMARK    1  A    between atoms: O_1  and  C_3
REMARK    2  A    between atoms: O_1  and  C_5
REMARK    3  A    between atoms: C_3  and  C_4
REMARK    4  A    between atoms: C_5  and  C_6
REMARK    5  A    between atoms: C_7  and  C_8
REMARK                            x       y       z     vdW  Elec       q    Type
REMARK                         _______ _______ _______ _____ _____    ______ ____
ROOT
ATOM      1  O   UNL     1      16.073   4.420  -0.692  0.00  0.00    +0.000 OA
ATOM      2  C   UNL     1      15.397   5.222  -1.317  0.00  0.00    +0.000 C 
ENDROOT
BRANCH   2   3
ATOM      3  C   UNL     1      15.914   6.195  -2.303  0.00  0.00    +0.000 C 
ATOM      4  C   UNL     1      16.836   7.094  -1.935  0.00  0.00    +0.000 C 
ATOM      5  H   UNL     1      15.530   6.161  -3.317  0.00  0.00    +0.000 HD
ATOM      6  H   UNL     1      17.210   7.117  -0.916  0.00  0.00    +0.000 HD
BRANCH   4   7
ATOM      7  C   UNL     1      17.409   8.111  -2.867  0.00  0.00    +0.000 C 
ATOM      8  H   UNL     1      18.401   8.416  -2.521  0.00  0.00    +0.000 HD
ATOM      9  H   UNL     1      16.783   9.005  -2.942  0.00  0.00    +0.000 HD
ATOM     10  H   UNL     1      17.511   7.681  -3.869  0.00  0.00    +0.000 HD
ENDBRANCH   4   7
ENDBRANCH   2   3
BRANCH   2  11
ATOM     11  O   UNL     1      14.048   5.389  -1.241  0.00  0.00    +0.000 OA
BRANCH  11  12
ATOM     12  C   UNL     1      13.502   5.392   0.082  0.00  0.00    +0.000 C 
ATOM     13  H   UNL     1      14.308   5.541   0.808  0.00  0.00    +0.000 HD
ATOM     14  H   UNL     1      12.774   6.204   0.174  0.00  0.00    +0.000 HD
BRANCH  12  15
ATOM     15  C   UNL     1      12.822   4.063   0.337  0.00  0.00    +0.000 C 
ATOM     16  H   UNL     1      11.755   4.119   0.103  0.00  0.00    +0.000 HD
ATOM     17  H   UNL     1      13.278   3.274  -0.272  0.00  0.00    +0.000 HD
ATOM     18  H   UNL     1      12.941   3.764   1.383  0.00  0.00    +0.000 HD
ENDBRANCH  12  15
ENDBRANCH  11  12
ENDBRANCH   2  11
TORSDOF 5
ENDMDL
MODEL 8
REMARK VINA RESULT:    -3.123     30.706     31.914
REMARK INTER + INTRA:          -3.962
REMARK INTER:                  -3.900
REMARK INTRA:                  -0.063
REMARK UNBOUND:                -0.109
REMARK  Name = 429065
REMARK  5 active torsions:
REMARK  status: ('A' for Active; 'I' for Inactive)
REMARK    1  A    between atoms: O_1  and  C_3
REMARK    2  A    between atoms: O_1  and  C_5
REMARK    3  A    between atoms: C_3  and  C_4
REMARK    4  A    between atoms: C_5  and  C_6
REMARK    5  A    between atoms: C_7  and  C_8
REMARK                            x       y       z     vdW  Elec       q    Type
REMARK                         _______ _______ _______ _____ _____    ______ ____
ROOT
ATOM      1  O   UNL     1     -15.932  -3.292  -5.018  0.00  0.00    +0.000 OA
ATOM      2  C   UNL     1     -15.221  -4.205  -4.627  0.00  0.00    +0.000 C 
ENDROOT
BRANCH   2   3
ATOM      3  C   UNL     1     -15.687  -5.397  -3.886  0.00  0.00    +0.000 C 
ATOM      4  C   UNL     1     -16.598  -5.266  -2.913  0.00  0.00    +0.000 C 
ATOM      5  H   UNL     1     -15.274  -6.365  -4.149  0.00  0.00    +0.000 HD
ATOM      6  H   UNL     1     -17.000  -4.290  -2.660  0.00  0.00    +0.000 HD
BRANCH   4   7
ATOM      7  C   UNL     1     -17.119  -6.417  -2.117  0.00  0.00    +0.000 C 
ATOM      8  H   UNL     1     -17.236  -6.123  -1.070  0.00  0.00    +0.000 HD
ATOM      9  H   UNL     1     -16.453  -7.285  -2.156  0.00  0.00    +0.000 HD
ATOM     10  H   UNL     1     -18.098  -6.721  -2.500  0.00  0.00    +0.000 HD
ENDBRANCH   4   7
ENDBRANCH   2   3
BRANCH   2  11
ATOM     11  O   UNL     1     -13.874  -4.318  -4.786  0.00  0.00    +0.000 OA
BRANCH  11  12
ATOM     12  C   UNL     1     -13.367  -5.656  -4.797  0.00  0.00    +0.000 C 
ATOM     13  H   UNL     1     -14.163  -6.351  -4.512  0.00  0.00    +0.000 HD
ATOM     14  H   UNL     1     -13.010  -5.903  -5.803  0.00  0.00    +0.000 HD
BRANCH  12  15
ATOM     15  C   UNL     1     -12.223  -5.757  -3.809  0.00  0.00    +0.000 C 
ATOM     16  H   UNL     1     -11.521  -4.928  -3.939  0.00  0.00    +0.000 HD
ATOM     17  H   UNL     1     -12.600  -5.744  -2.781  0.00  0.00    +0.000 HD
ATOM     18  H   UNL     1     -11.685  -6.701  -3.939  0.00  0.00    +0.000 HD
ENDBRANCH  12  15
ENDBRANCH  11  12
ENDBRANCH   2  11
TORSDOF 5
ENDMDL
MODEL 9
REMARK VINA RESULT:    -3.112      2.227      2.666
REMARK INTER + INTRA:          -3.949
REMARK INTER:                  -3.840
REMARK INTRA:                  -0.109
REMARK UNBOUND:                -0.109
REMARK  Name = 429065
REMARK  5 active torsions:
REMARK  status: ('A' for Active; 'I' for Inactive)
REMARK    1  A    between atoms: O_1  and  C_3
REMARK    2  A    between atoms: O_1  and  C_5
REMARK    3  A    between atoms: C_3  and  C_4
REMARK    4  A    between atoms: C_5  and  C_6
REMARK    5  A    between atoms: C_7  and  C_8
REMARK                            x       y       z     vdW  Elec       q    Type
REMARK                         _______ _______ _______ _____ _____    ______ ____
ROOT
ATOM      1  O   UNL     1      17.226  -6.481  -4.291  0.00  0.00    +0.000 OA
ATOM      2  C   UNL     1      17.749  -5.591  -3.639  0.00  0.00    +0.000 C 
ENDROOT
BRANCH   2   3
ATOM      3  C   UNL     1      19.205  -5.387  -3.482  0.00  0.00    +0.000 C 
ATOM      4  C   UNL     1      20.037  -5.703  -4.484  0.00  0.00    +0.000 C 
ATOM      5  H   UNL     1      19.575  -4.980  -2.547  0.00  0.00    +0.000 HD
ATOM      6  H   UNL     1      19.652  -6.110  -5.414  0.00  0.00    +0.000 HD
BRANCH   4   7
ATOM      7  C   UNL     1      21.518  -5.528  -4.407  0.00  0.00    +0.000 C 
ATOM      8  H   UNL     1      21.813  -5.301  -3.378  0.00  0.00    +0.000 HD
ATOM      9  H   UNL     1      21.875  -4.719  -5.051  0.00  0.00    +0.000 HD
ATOM     10  H   UNL     1      22.018  -6.453  -4.712  0.00  0.00    +0.000 HD
ENDBRANCH   4   7
ENDBRANCH   2   3
BRANCH   2  11
ATOM     11  O   UNL     1      17.117  -4.617  -2.929  0.00  0.00    +0.000 OA
BRANCH  11  12
ATOM     12  C   UNL     1      15.786  -4.930  -2.505  0.00  0.00    +0.000 C 
ATOM     13  H   UNL     1      15.131  -4.076  -2.701  0.00  0.00    +0.000 HD
ATOM     14  H   UNL     1      15.423  -5.803  -3.059  0.00  0.00    +0.000 HD
BRANCH  12  15
ATOM     15  C   UNL     1      15.801  -5.235  -1.022  0.00  0.00    +0.000 C 
ATOM     16  H   UNL     1      16.032  -4.338  -0.441  0.00  0.00    +0.000 HD
ATOM     17  H   UNL     1      14.829  -5.625  -0.700  0.00  0.00    +0.000 HD
ATOM     18  H   UNL     1      16.544  -6.006  -0.795  0.00  0.00    +0.000 HD
ENDBRANCH  12  15
ENDBRANCH  11  12
ENDBRANCH   2  11
TORSDOF 5
ENDMDL
MODEL 10
REMARK VINA RESULT:    -3.083     24.540     25.469
REMARK INTER + INTRA:          -3.914
REMARK INTER:                  -3.785
REMARK INTRA:                  -0.129
REMARK UNBOUND:                -0.109
REMARK  Name = 429065
REMARK  5 active torsions:
REMARK  status: ('A' for Active; 'I' for Inactive)
REMARK    1  A    between atoms: O_1  and  C_3
REMARK    2  A    between atoms: O_1  and  C_5
REMARK    3  A    between atoms: C_3  and  C_4
REMARK    4  A    between atoms: C_5  and  C_6
REMARK    5  A    between atoms: C_7  and  C_8
REMARK                            x       y       z     vdW  Elec       q    Type
REMARK                         _______ _______ _______ _____ _____    ______ ____
ROOT
ATOM      1  O   UNL     1      -7.821 -15.358   3.769  0.00  0.00    +0.000 OA
ATOM      2  C   UNL     1      -7.054 -14.452   3.484  0.00  0.00    +0.000 C 
ENDROOT
BRANCH   2   3
ATOM      3  C   UNL     1      -7.175 -13.565   2.306  0.00  0.00    +0.000 C 
ATOM      4  C   UNL     1      -7.043 -14.069   1.072  0.00  0.00    +0.000 C 
ATOM      5  H   UNL     1      -7.371 -12.510   2.469  0.00  0.00    +0.000 HD
ATOM      6  H   UNL     1      -6.846 -15.127   0.925  0.00  0.00    +0.000 HD
BRANCH   4   7
ATOM      7  C   UNL     1      -7.151 -13.243  -0.167  0.00  0.00    +0.000 C 
ATOM      8  H   UNL     1      -6.926 -12.197   0.061  0.00  0.00    +0.000 HD
ATOM      9  H   UNL     1      -8.151 -13.288  -0.611  0.00  0.00    +0.000 HD
ATOM     10  H   UNL     1      -6.431 -13.595  -0.912  0.00  0.00    +0.000 HD
ENDBRANCH   4   7
ENDBRANCH   2   3
BRANCH   2  11
ATOM     11  O   UNL     1      -5.943 -14.073   4.172  0.00  0.00    +0.000 OA
BRANCH  11  12
ATOM     12  C   UNL     1      -4.769 -14.854   3.925  0.00  0.00    +0.000 C 
ATOM     13  H   UNL     1      -4.924 -15.472   3.035  0.00  0.00    +0.000 HD
ATOM     14  H   UNL     1      -3.915 -14.187   3.762  0.00  0.00    +0.000 HD
BRANCH  12  15
ATOM     15  C   UNL     1      -4.506 -15.740   5.125  0.00  0.00    +0.000 C 
ATOM     16  H   UNL     1      -5.285 -15.614   5.882  0.00  0.00    +0.000 HD
ATOM     17  H   UNL     1      -4.470 -16.793   4.825  0.00  0.00    +0.000 HD
ATOM     18  H   UNL     1      -3.535 -15.504   5.572  0.00  0.00    +0.000 HD
ENDBRANCH  12  15
ENDBRANCH  11  12
ENDBRANCH   2  11
TORSDOF 5
ENDMDL
