MODEL 1
REMARK VINA RESULT:    -5.786      0.000      0.000
REMARK INTER + INTRA:          -9.207
REMARK INTER:                  -8.408
REMARK INTRA:                  -0.798
REMARK UNBOUND:                -0.376
REMARK  Name = 7799
REMARK  10 active torsions:
REMARK  status: ('A' for Active; 'I' for Inactive)
REMARK    1  A    between atoms: O_1  and  C_10
REMARK    2  A    between atoms: O_1  and  C_11
REMARK    3  A    between atoms: C_3  and  C_4
REMARK    4  A    between atoms: C_3  and  C_5
REMARK    5  A    between atoms: C_4  and  C_6
REMARK    6  A    between atoms: C_5  and  C_7
REMARK    7  A    between atoms: C_6  and  C_8
REMARK    8  A    between atoms: C_7  and  C_9
REMARK    9  A    between atoms: C_8  and  C_10
REMARK   10  A    between atoms: C_11  and  C_12
REMARK                            x       y       z     vdW  Elec       q    Type
REMARK                         _______ _______ _______ _____ _____    ______ ____
ROOT
ATOM      1  C   UNL     1       4.060  -7.317  -9.373  0.00  0.00    +0.000 C 
ATOM      2  H   UNL     1       3.866  -8.037 -10.177  0.00  0.00    +0.000 HD
ATOM      3  H   UNL     1       4.984  -7.631  -8.871  0.00  0.00    +0.000 HD
ENDROOT
BRANCH   1   4
ATOM      4  C   UNL     1       4.248  -5.919  -9.965  0.00  0.00    +0.000 C 
ATOM      5  H   UNL     1       3.727  -5.855 -10.929  0.00  0.00    +0.000 HD
ATOM      6  H   UNL     1       3.792  -5.175  -9.301  0.00  0.00    +0.000 HD
BRANCH   4   7
ATOM      7  C   UNL     1       5.730  -5.592 -10.159  0.00  0.00    +0.000 C 
ATOM      8  H   UNL     1       5.949  -4.606  -9.733  0.00  0.00    +0.000 HD
ATOM      9  H   UNL     1       5.955  -5.539 -11.231  0.00  0.00    +0.000 HD
BRANCH   7  10
ATOM     10  C   UNL     1       6.621  -6.646  -9.502  0.00  0.00    +0.000 C 
ATOM     11  H   UNL     1       7.395  -6.971 -10.207  0.00  0.00    +0.000 HD
ATOM     12  H   UNL     1       6.026  -7.528  -9.244  0.00  0.00    +0.000 HD
BRANCH  10  13
ATOM     13  C   UNL     1       7.289  -6.106  -8.247  0.00  0.00    +0.000 C 
ATOM     14  H   UNL     1       8.133  -6.738  -7.950  0.00  0.00    +0.000 HD
ATOM     15  H   UNL     1       6.582  -6.063  -7.414  0.00  0.00    +0.000 HD
ATOM     16  H   UNL     1       7.668  -5.095  -8.425  0.00  0.00    +0.000 HD
ENDBRANCH  10  13
ENDBRANCH   7  10
ENDBRANCH   4   7
ENDBRANCH   1   4
BRANCH   1  17
ATOM     17  C   UNL     1       2.902  -7.344  -8.369  0.00  0.00    +0.000 C 
ATOM     18  H   UNL     1       1.965  -7.090  -8.881  0.00  0.00    +0.000 HD
ATOM     19  H   UNL     1       2.780  -8.365  -7.985  0.00  0.00    +0.000 HD
BRANCH  17  20
ATOM     20  C   UNL     1       3.118  -6.382  -7.203  0.00  0.00    +0.000 C 
ATOM     21  H   UNL     1       3.418  -6.949  -6.314  0.00  0.00    +0.000 HD
ATOM     22  H   UNL     1       3.915  -5.673  -7.456  0.00  0.00    +0.000 HD
BRANCH  20  24
ATOM     23  O   UNL     1       1.725  -4.946  -5.818  0.00  0.00    +0.000 OA
ATOM     24  C   UNL     1       1.879  -5.588  -6.848  0.00  0.00    +0.000 C 
BRANCH  24  25
ATOM     25  O   UNL     1       0.984  -5.680  -7.875  0.00  0.00    +0.000 OA
BRANCH  25  26
ATOM     26  C   UNL     1       0.371  -4.449  -8.271  0.00  0.00    +0.000 C 
ATOM     27  H   UNL     1      -0.636  -4.649  -8.652  0.00  0.00    +0.000 HD
ATOM     28  H   UNL     1       0.307  -3.778  -7.407  0.00  0.00    +0.000 HD
BRANCH  26  29
ATOM     29  C   UNL     1       1.210  -3.806  -9.355  0.00  0.00    +0.000 C 
ATOM     30  H   UNL     1       0.911  -4.162 -10.344  0.00  0.00    +0.000 HD
ATOM     31  H   UNL     1       1.109  -2.716  -9.325  0.00  0.00    +0.000 HD
ATOM     32  H   UNL     1       2.271  -4.031  -9.204  0.00  0.00    +0.000 HD
ENDBRANCH  26  29
ENDBRANCH  25  26
ENDBRANCH  24  25
ENDBRANCH  20  24
ENDBRANCH  17  20
ENDBRANCH   1  17
TORSDOF 10
ENDMDL
MODEL 2
REMARK VINA RESULT:    -5.521      1.652      2.438
REMARK INTER + INTRA:          -8.802
REMARK INTER:                  -8.474
REMARK INTRA:                  -0.327
REMARK UNBOUND:                -0.376
REMARK  Name = 7799
REMARK  10 active torsions:
REMARK  status: ('A' for Active; 'I' for Inactive)
REMARK    1  A    between atoms: O_1  and  C_10
REMARK    2  A    between atoms: O_1  and  C_11
REMARK    3  A    between atoms: C_3  and  C_4
REMARK    4  A    between atoms: C_3  and  C_5
REMARK    5  A    between atoms: C_4  and  C_6
REMARK    6  A    between atoms: C_5  and  C_7
REMARK    7  A    between atoms: C_6  and  C_8
REMARK    8  A    between atoms: C_7  and  C_9
REMARK    9  A    between atoms: C_8  and  C_10
REMARK   10  A    between atoms: C_11  and  C_12
REMARK                            x       y       z     vdW  Elec       q    Type
REMARK                         _______ _______ _______ _____ _____    ______ ____
ROOT
ATOM      1  C   UNL     1       3.647  -6.858  -7.973  0.00  0.00    +0.000 C 
ATOM      2  H   UNL     1       3.778  -7.671  -7.249  0.00  0.00    +0.000 HD
ATOM      3  H   UNL     1       4.178  -5.982  -7.578  0.00  0.00    +0.000 HD
ENDROOT
BRANCH   1   4
ATOM      4  C   UNL     1       4.252  -7.262  -9.319  0.00  0.00    +0.000 C 
ATOM      5  H   UNL     1       4.775  -8.220  -9.214  0.00  0.00    +0.000 HD
ATOM      6  H   UNL     1       3.449  -7.409 -10.051  0.00  0.00    +0.000 HD
BRANCH   4   7
ATOM      7  C   UNL     1       5.225  -6.198  -9.833  0.00  0.00    +0.000 C 
ATOM      8  H   UNL     1       5.061  -5.258  -9.293  0.00  0.00    +0.000 HD
ATOM      9  H   UNL     1       5.025  -6.002 -10.893  0.00  0.00    +0.000 HD
BRANCH   7  10
ATOM     10  C   UNL     1       6.677  -6.644  -9.660  0.00  0.00    +0.000 C 
ATOM     11  H   UNL     1       7.275  -6.305 -10.514  0.00  0.00    +0.000 HD
ATOM     12  H   UNL     1       6.730  -7.738  -9.640  0.00  0.00    +0.000 HD
BRANCH  10  13
ATOM     13  C   UNL     1       7.281  -6.089  -8.380  0.00  0.00    +0.000 C 
ATOM     14  H   UNL     1       6.629  -6.287  -7.522  0.00  0.00    +0.000 HD
ATOM     15  H   UNL     1       7.434  -5.009  -8.454  0.00  0.00    +0.000 HD
ATOM     16  H   UNL     1       8.250  -6.558  -8.185  0.00  0.00    +0.000 HD
ENDBRANCH  10  13
ENDBRANCH   7  10
ENDBRANCH   4   7
ENDBRANCH   1   4
BRANCH   1  17
ATOM     17  C   UNL     1       2.157  -6.527  -8.110  0.00  0.00    +0.000 C 
ATOM     18  H   UNL     1       1.941  -6.217  -9.140  0.00  0.00    +0.000 HD
ATOM     19  H   UNL     1       1.567  -7.435  -7.928  0.00  0.00    +0.000 HD
BRANCH  17  20
ATOM     20  C   UNL     1       1.712  -5.428  -7.147  0.00  0.00    +0.000 C 
ATOM     21  H   UNL     1       1.551  -5.859  -6.152  0.00  0.00    +0.000 HD
ATOM     22  H   UNL     1       2.494  -4.662  -7.080  0.00  0.00    +0.000 HD
BRANCH  20  24
ATOM     23  O   UNL     1       0.146  -4.424  -8.715  0.00  0.00    +0.000 OA
ATOM     24  C   UNL     1       0.427  -4.750  -7.569  0.00  0.00    +0.000 C 
BRANCH  24  25
ATOM     25  O   UNL     1      -0.374  -4.594  -6.474  0.00  0.00    +0.000 OA
BRANCH  25  26
ATOM     26  C   UNL     1      -0.030  -5.395  -5.339  0.00  0.00    +0.000 C 
ATOM     27  H   UNL     1       0.522  -6.280  -5.673  0.00  0.00    +0.000 HD
ATOM     28  H   UNL     1       0.598  -4.811  -4.657  0.00  0.00    +0.000 HD
BRANCH  26  29
ATOM     29  C   UNL     1      -1.299  -5.819  -4.631  0.00  0.00    +0.000 C 
ATOM     30  H   UNL     1      -1.071  -6.407  -3.739  0.00  0.00    +0.000 HD
ATOM     31  H   UNL     1      -1.887  -4.942  -4.338  0.00  0.00    +0.000 HD
ATOM     32  H   UNL     1      -1.930  -6.416  -5.297  0.00  0.00    +0.000 HD
ENDBRANCH  26  29
ENDBRANCH  25  26
ENDBRANCH  24  25
ENDBRANCH  20  24
ENDBRANCH  17  20
ENDBRANCH   1  17
TORSDOF 10
ENDMDL
MODEL 3
REMARK VINA RESULT:    -5.193      1.614      2.149
REMARK INTER + INTRA:          -8.302
REMARK INTER:                  -7.955
REMARK INTRA:                  -0.347
REMARK UNBOUND:                -0.376
REMARK  Name = 7799
REMARK  10 active torsions:
REMARK  status: ('A' for Active; 'I' for Inactive)
REMARK    1  A    between atoms: O_1  and  C_10
REMARK    2  A    between atoms: O_1  and  C_11
REMARK    3  A    between atoms: C_3  and  C_4
REMARK    4  A    between atoms: C_3  and  C_5
REMARK    5  A    between atoms: C_4  and  C_6
REMARK    6  A    between atoms: C_5  and  C_7
REMARK    7  A    between atoms: C_6  and  C_8
REMARK    8  A    between atoms: C_7  and  C_9
REMARK    9  A    between atoms: C_8  and  C_10
REMARK   10  A    between atoms: C_11  and  C_12
REMARK                            x       y       z     vdW  Elec       q    Type
REMARK                         _______ _______ _______ _____ _____    ______ ____
ROOT
ATOM      1  C   UNL     1       3.332  -6.601  -7.758  0.00  0.00    +0.000 C 
ATOM      2  H   UNL     1       3.461  -7.327  -6.946  0.00  0.00    +0.000 HD
ATOM      3  H   UNL     1       3.860  -5.686  -7.463  0.00  0.00    +0.000 HD
ENDROOT
BRANCH   1   4
ATOM      4  C   UNL     1       3.942  -7.155  -9.046  0.00  0.00    +0.000 C 
ATOM      5  H   UNL     1       3.489  -8.126  -9.281  0.00  0.00    +0.000 HD
ATOM      6  H   UNL     1       3.712  -6.480  -9.880  0.00  0.00    +0.000 HD
BRANCH   4   7
ATOM      7  C   UNL     1       5.459  -7.312  -8.920  0.00  0.00    +0.000 C 
ATOM      8  H   UNL     1       5.794  -8.160  -9.529  0.00  0.00    +0.000 HD
ATOM      9  H   UNL     1       5.717  -7.540  -7.878  0.00  0.00    +0.000 HD
BRANCH   7  10
ATOM     10  C   UNL     1       6.188  -6.042  -9.360  0.00  0.00    +0.000 C 
ATOM     11  H   UNL     1       7.211  -6.287  -9.665  0.00  0.00    +0.000 HD
ATOM     12  H   UNL     1       6.257  -5.343  -8.520  0.00  0.00    +0.000 HD
BRANCH  10  13
ATOM     13  C   UNL     1       5.474  -5.366 -10.520  0.00  0.00    +0.000 C 
ATOM     14  H   UNL     1       5.143  -6.103 -11.260  0.00  0.00    +0.000 HD
ATOM     15  H   UNL     1       6.130  -4.648 -11.020  0.00  0.00    +0.000 HD
ATOM     16  H   UNL     1       4.592  -4.827 -10.159  0.00  0.00    +0.000 HD
ENDBRANCH  10  13
ENDBRANCH   7  10
ENDBRANCH   4   7
ENDBRANCH   1   4
BRANCH   1  17
ATOM     17  C   UNL     1       1.842  -6.291  -7.937  0.00  0.00    +0.000 C 
ATOM     18  H   UNL     1       1.609  -6.207  -9.006  0.00  0.00    +0.000 HD
ATOM     19  H   UNL     1       1.248  -7.131  -7.554  0.00  0.00    +0.000 HD
BRANCH  17  20
ATOM     20  C   UNL     1       1.423  -5.004  -7.227  0.00  0.00    +0.000 C 
ATOM     21  H   UNL     1       2.024  -4.878  -6.319  0.00  0.00    +0.000 HD
ATOM     22  H   UNL     1       1.598  -4.148  -7.890  0.00  0.00    +0.000 HD
BRANCH  20  24
ATOM     23  O   UNL     1      -0.569  -5.819  -6.094  0.00  0.00    +0.000 OA
ATOM     24  C   UNL     1      -0.034  -4.994  -6.822  0.00  0.00    +0.000 C 
BRANCH  24  25
ATOM     25  O   UNL     1      -0.641  -3.901  -7.373  0.00  0.00    +0.000 OA
BRANCH  25  26
ATOM     26  C   UNL     1       0.236  -2.967  -8.012  0.00  0.00    +0.000 C 
ATOM     27  H   UNL     1       1.211  -2.983  -7.515  0.00  0.00    +0.000 HD
ATOM     28  H   UNL     1       0.359  -3.244  -9.065  0.00  0.00    +0.000 HD
BRANCH  26  29
ATOM     29  C   UNL     1      -0.365  -1.581  -7.915  0.00  0.00    +0.000 C 
ATOM     30  H   UNL     1      -1.443  -1.608  -8.091  0.00  0.00    +0.000 HD
ATOM     31  H   UNL     1      -0.178  -1.149  -6.926  0.00  0.00    +0.000 HD
ATOM     32  H   UNL     1       0.096  -0.909  -8.647  0.00  0.00    +0.000 HD
ENDBRANCH  26  29
ENDBRANCH  25  26
ENDBRANCH  24  25
ENDBRANCH  20  24
ENDBRANCH  17  20
ENDBRANCH   1  17
TORSDOF 10
ENDMDL
MODEL 4
REMARK VINA RESULT:    -4.391     17.466     19.634
REMARK INTER + INTRA:          -7.077
REMARK INTER:                  -6.570
REMARK INTRA:                  -0.507
REMARK UNBOUND:                -0.376
REMARK  Name = 7799
REMARK  10 active torsions:
REMARK  status: ('A' for Active; 'I' for Inactive)
REMARK    1  A    between atoms: O_1  and  C_10
REMARK    2  A    between atoms: O_1  and  C_11
REMARK    3  A    between atoms: C_3  and  C_4
REMARK    4  A    between atoms: C_3  and  C_5
REMARK    5  A    between atoms: C_4  and  C_6
REMARK    6  A    between atoms: C_5  and  C_7
REMARK    7  A    between atoms: C_6  and  C_8
REMARK    8  A    between atoms: C_7  and  C_9
REMARK    9  A    between atoms: C_8  and  C_10
REMARK   10  A    between atoms: C_11  and  C_12
REMARK                            x       y       z     vdW  Elec       q    Type
REMARK                         _______ _______ _______ _____ _____    ______ ____
ROOT
ATOM      1  C   UNL     1      -7.778 -13.547   6.673  0.00  0.00    +0.000 C 
ATOM      2  H   UNL     1      -8.312 -12.914   7.391  0.00  0.00    +0.000 HD
ATOM      3  H   UNL     1      -6.705 -13.384   6.831  0.00  0.00    +0.000 HD
ENDROOT
BRANCH   1   4
ATOM      4  C   UNL     1      -8.117 -15.017   6.927  0.00  0.00    +0.000 C 
ATOM      5  H   UNL     1      -7.191 -15.594   7.040  0.00  0.00    +0.000 HD
ATOM      6  H   UNL     1      -8.672 -15.106   7.869  0.00  0.00    +0.000 HD
BRANCH   4   7
ATOM      7  C   UNL     1      -8.951 -15.601   5.785  0.00  0.00    +0.000 C 
ATOM      8  H   UNL     1      -8.326 -15.710   4.891  0.00  0.00    +0.000 HD
ATOM      9  H   UNL     1      -9.761 -14.906   5.532  0.00  0.00    +0.000 HD
BRANCH   7  10
ATOM     10  C   UNL     1      -9.543 -16.958   6.167  0.00  0.00    +0.000 C 
ATOM     11  H   UNL     1      -9.828 -16.955   7.226  0.00  0.00    +0.000 HD
ATOM     12  H   UNL     1      -8.790 -17.742   6.035  0.00  0.00    +0.000 HD
BRANCH  10  13
ATOM     13  C   UNL     1     -10.765 -17.288   5.326  0.00  0.00    +0.000 C 
ATOM     14  H   UNL     1     -11.687 -17.018   5.852  0.00  0.00    +0.000 HD
ATOM     15  H   UNL     1     -10.804 -18.356   5.091  0.00  0.00    +0.000 HD
ATOM     16  H   UNL     1     -10.737 -16.733   4.383  0.00  0.00    +0.000 HD
ENDBRANCH  10  13
ENDBRANCH   7  10
ENDBRANCH   4   7
ENDBRANCH   1   4
BRANCH   1  17
ATOM     17  C   UNL     1      -8.150 -13.130   5.246  0.00  0.00    +0.000 C 
ATOM     18  H   UNL     1      -8.695 -13.945   4.753  0.00  0.00    +0.000 HD
ATOM     19  H   UNL     1      -8.839 -12.275   5.286  0.00  0.00    +0.000 HD
BRANCH  17  20
ATOM     20  C   UNL     1      -6.928 -12.761   4.408  0.00  0.00    +0.000 C 
ATOM     21  H   UNL     1      -7.235 -12.102   3.587  0.00  0.00    +0.000 HD
ATOM     22  H   UNL     1      -6.201 -12.231   5.035  0.00  0.00    +0.000 HD
BRANCH  20  24
ATOM     23  O   UNL     1      -5.233 -14.499   4.251  0.00  0.00    +0.000 OA
ATOM     24  C   UNL     1      -6.236 -13.962   3.801  0.00  0.00    +0.000 C 
BRANCH  24  25
ATOM     25  O   UNL     1      -6.930 -14.364   2.696  0.00  0.00    +0.000 OA
BRANCH  25  26
ATOM     26  C   UNL     1      -6.233 -14.243   1.452  0.00  0.00    +0.000 C 
ATOM     27  H   UNL     1      -5.278 -13.732   1.617  0.00  0.00    +0.000 HD
ATOM     28  H   UNL     1      -6.044 -15.241   1.040  0.00  0.00    +0.000 HD
BRANCH  26  29
ATOM     29  C   UNL     1      -7.081 -13.444   0.486  0.00  0.00    +0.000 C 
ATOM     30  H   UNL     1      -8.064 -13.229   0.913  0.00  0.00    +0.000 HD
ATOM     31  H   UNL     1      -6.589 -12.498   0.234  0.00  0.00    +0.000 HD
ATOM     32  H   UNL     1      -7.215 -13.992  -0.453  0.00  0.00    +0.000 HD
ENDBRANCH  26  29
ENDBRANCH  25  26
ENDBRANCH  24  25
ENDBRANCH  20  24
ENDBRANCH  17  20
ENDBRANCH   1  17
TORSDOF 10
ENDMDL
MODEL 5
REMARK VINA RESULT:    -4.335     14.821     16.127
REMARK INTER + INTRA:          -6.992
REMARK INTER:                  -6.297
REMARK INTRA:                  -0.695
REMARK UNBOUND:                -0.376
REMARK  Name = 7799
REMARK  10 active torsions:
REMARK  status: ('A' for Active; 'I' for Inactive)
REMARK    1  A    between atoms: O_1  and  C_10
REMARK    2  A    between atoms: O_1  and  C_11
REMARK    3  A    between atoms: C_3  and  C_4
REMARK    4  A    between atoms: C_3  and  C_5
REMARK    5  A    between atoms: C_4  and  C_6
REMARK    6  A    between atoms: C_5  and  C_7
REMARK    7  A    between atoms: C_6  and  C_8
REMARK    8  A    between atoms: C_7  and  C_9
REMARK    9  A    between atoms: C_8  and  C_10
REMARK   10  A    between atoms: C_11  and  C_12
REMARK                            x       y       z     vdW  Elec       q    Type
REMARK                         _______ _______ _______ _____ _____    ______ ____
ROOT
ATOM      1  C   UNL     1      15.491  -4.970  -1.485  0.00  0.00    +0.000 C 
ATOM      2  H   UNL     1      14.462  -4.654  -1.697  0.00  0.00    +0.000 HD
ATOM      3  H   UNL     1      15.805  -4.458  -0.566  0.00  0.00    +0.000 HD
ENDROOT
BRANCH   1   4
ATOM      4  C   UNL     1      15.532  -6.483  -1.269  0.00  0.00    +0.000 C 
ATOM      5  H   UNL     1      14.675  -6.950  -1.771  0.00  0.00    +0.000 HD
ATOM      6  H   UNL     1      16.439  -6.894  -1.729  0.00  0.00    +0.000 HD
BRANCH   4   7
ATOM      7  C   UNL     1      15.509  -6.834   0.220  0.00  0.00    +0.000 C 
ATOM      8  H   UNL     1      15.112  -7.847   0.354  0.00  0.00    +0.000 HD
ATOM      9  H   UNL     1      14.835  -6.148   0.746  0.00  0.00    +0.000 HD
BRANCH   7  10
ATOM     10  C   UNL     1      16.907  -6.744   0.832  0.00  0.00    +0.000 C 
ATOM     11  H   UNL     1      16.922  -7.253   1.803  0.00  0.00    +0.000 HD
ATOM     12  H   UNL     1      17.169  -5.696   1.010  0.00  0.00    +0.000 HD
BRANCH  10  13
ATOM     13  C   UNL     1      17.953  -7.376  -0.074  0.00  0.00    +0.000 C 
ATOM     14  H   UNL     1      18.965  -7.134   0.269  0.00  0.00    +0.000 HD
ATOM     15  H   UNL     1      17.845  -7.022  -1.103  0.00  0.00    +0.000 HD
ATOM     16  H   UNL     1      17.845  -8.465  -0.075  0.00  0.00    +0.000 HD
ENDBRANCH  10  13
ENDBRANCH   7  10
ENDBRANCH   4   7
ENDBRANCH   1   4
BRANCH   1  17
ATOM     17  C   UNL     1      16.405  -4.547  -2.639  0.00  0.00    +0.000 C 
ATOM     18  H   UNL     1      16.566  -5.399  -3.313  0.00  0.00    +0.000 HD
ATOM     19  H   UNL     1      15.905  -3.771  -3.233  0.00  0.00    +0.000 HD
BRANCH  17  20
ATOM     20  C   UNL     1      17.757  -4.026  -2.153  0.00  0.00    +0.000 C 
ATOM     21  H   UNL     1      17.715  -2.934  -2.065  0.00  0.00    +0.000 HD
ATOM     22  H   UNL     1      17.980  -4.453  -1.168  0.00  0.00    +0.000 HD
BRANCH  20  24
ATOM     23  O   UNL     1      19.620  -3.558  -3.646  0.00  0.00    +0.000 OA
ATOM     24  C   UNL     1      18.899  -4.371  -3.084  0.00  0.00    +0.000 C 
BRANCH  24  25
ATOM     25  O   UNL     1      19.011  -5.730  -3.165  0.00  0.00    +0.000 OA
BRANCH  25  26
ATOM     26  C   UNL     1      19.137  -6.260  -4.488  0.00  0.00    +0.000 C 
ATOM     27  H   UNL     1      19.518  -5.482  -5.158  0.00  0.00    +0.000 HD
ATOM     28  H   UNL     1      19.834  -7.105  -4.479  0.00  0.00    +0.000 HD
BRANCH  26  29
ATOM     29  C   UNL     1      17.777  -6.724  -4.965  0.00  0.00    +0.000 C 
ATOM     30  H   UNL     1      17.125  -5.873  -5.179  0.00  0.00    +0.000 HD
ATOM     31  H   UNL     1      17.873  -7.333  -5.870  0.00  0.00    +0.000 HD
ATOM     32  H   UNL     1      17.298  -7.355  -4.208  0.00  0.00    +0.000 HD
ENDBRANCH  26  29
ENDBRANCH  25  26
ENDBRANCH  24  25
ENDBRANCH  20  24
ENDBRANCH  17  20
ENDBRANCH   1  17
TORSDOF 10
ENDMDL
MODEL 6
REMARK VINA RESULT:    -4.328     35.827     37.797
REMARK INTER + INTRA:          -6.981
REMARK INTER:                  -6.605
REMARK INTRA:                  -0.376
REMARK UNBOUND:                -0.376
REMARK  Name = 7799
REMARK  10 active torsions:
REMARK  status: ('A' for Active; 'I' for Inactive)
REMARK    1  A    between atoms: O_1  and  C_10
REMARK    2  A    between atoms: O_1  and  C_11
REMARK    3  A    between atoms: C_3  and  C_4
REMARK    4  A    between atoms: C_3  and  C_5
REMARK    5  A    between atoms: C_4  and  C_6
REMARK    6  A    between atoms: C_5  and  C_7
REMARK    7  A    between atoms: C_6  and  C_8
REMARK    8  A    between atoms: C_7  and  C_9
REMARK    9  A    between atoms: C_8  and  C_10
REMARK   10  A    between atoms: C_11  and  C_12
REMARK                            x       y       z     vdW  Elec       q    Type
REMARK                         _______ _______ _______ _____ _____    ______ ____
ROOT
ATOM      1  C   UNL     1      -4.224   4.817  24.772  0.00  0.00    +0.000 C 
ATOM      2  H   UNL     1      -4.235   5.605  24.009  0.00  0.00    +0.000 HD
ATOM      3  H   UNL     1      -3.910   3.889  24.275  0.00  0.00    +0.000 HD
ENDROOT
BRANCH   1   4
ATOM      4  C   UNL     1      -3.221   5.175  25.870  0.00  0.00    +0.000 C 
ATOM      5  H   UNL     1      -3.740   5.691  26.688  0.00  0.00    +0.000 HD
ATOM      6  H   UNL     1      -2.791   4.257  26.287  0.00  0.00    +0.000 HD
BRANCH   4   7
ATOM      7  C   UNL     1      -2.101   6.066  25.330  0.00  0.00    +0.000 C 
ATOM      8  H   UNL     1      -1.178   5.881  25.893  0.00  0.00    +0.000 HD
ATOM      9  H   UNL     1      -2.366   7.119  25.482  0.00  0.00    +0.000 HD
BRANCH   7  10
ATOM     10  C   UNL     1      -1.856   5.811  23.843  0.00  0.00    +0.000 C 
ATOM     11  H   UNL     1      -2.813   5.762  23.311  0.00  0.00    +0.000 HD
ATOM     12  H   UNL     1      -1.359   4.844  23.708  0.00  0.00    +0.000 HD
BRANCH  10  13
ATOM     13  C   UNL     1      -1.000   6.905  23.224  0.00  0.00    +0.000 C 
ATOM     14  H   UNL     1      -0.469   7.470  23.997  0.00  0.00    +0.000 HD
ATOM     15  H   UNL     1      -1.613   7.604  22.647  0.00  0.00    +0.000 HD
ATOM     16  H   UNL     1      -0.256   6.468  22.550  0.00  0.00    +0.000 HD
ENDBRANCH  10  13
ENDBRANCH   7  10
ENDBRANCH   4   7
ENDBRANCH   1   4
BRANCH   1  17
ATOM     17  C   UNL     1      -5.633   4.635  25.344  0.00  0.00    +0.000 C 
ATOM     18  H   UNL     1      -6.223   5.544  25.169  0.00  0.00    +0.000 HD
ATOM     19  H   UNL     1      -6.142   3.825  24.803  0.00  0.00    +0.000 HD
BRANCH  17  20
ATOM     20  C   UNL     1      -5.621   4.321  26.839  0.00  0.00    +0.000 C 
ATOM     21  H   UNL     1      -6.028   3.316  27.003  0.00  0.00    +0.000 HD
ATOM     22  H   UNL     1      -4.590   4.350  27.210  0.00  0.00    +0.000 HD
BRANCH  20  24
ATOM     23  O   UNL     1      -7.257   6.083  27.205  0.00  0.00    +0.000 OA
ATOM     24  C   UNL     1      -6.442   5.292  27.659  0.00  0.00    +0.000 C 
BRANCH  24  25
ATOM     25  O   UNL     1      -6.149   5.115  28.981  0.00  0.00    +0.000 OA
BRANCH  25  26
ATOM     26  C   UNL     1      -6.814   6.004  29.884  0.00  0.00    +0.000 C 
ATOM     27  H   UNL     1      -6.106   6.347  30.646  0.00  0.00    +0.000 HD
ATOM     28  H   UNL     1      -7.200   6.867  29.330  0.00  0.00    +0.000 HD
BRANCH  26  29
ATOM     29  C   UNL     1      -7.960   5.268  30.546  0.00  0.00    +0.000 C 
ATOM     30  H   UNL     1      -8.211   5.719  31.509  0.00  0.00    +0.000 HD
ATOM     31  H   UNL     1      -8.848   5.282  29.904  0.00  0.00    +0.000 HD
ATOM     32  H   UNL     1      -7.700   4.216  30.705  0.00  0.00    +0.000 HD
ENDBRANCH  26  29
ENDBRANCH  25  26
ENDBRANCH  24  25
ENDBRANCH  20  24
ENDBRANCH  17  20
ENDBRANCH   1  17
TORSDOF 10
ENDMDL
MODEL 7
REMARK VINA RESULT:    -4.297     14.362     15.404
REMARK INTER + INTRA:          -6.934
REMARK INTER:                  -6.281
REMARK INTRA:                  -0.654
REMARK UNBOUND:                -0.376
REMARK  Name = 7799
REMARK  10 active torsions:
REMARK  status: ('A' for Active; 'I' for Inactive)
REMARK    1  A    between atoms: O_1  and  C_10
REMARK    2  A    between atoms: O_1  and  C_11
REMARK    3  A    between atoms: C_3  and  C_4
REMARK    4  A    between atoms: C_3  and  C_5
REMARK    5  A    between atoms: C_4  and  C_6
REMARK    6  A    between atoms: C_5  and  C_7
REMARK    7  A    between atoms: C_6  and  C_8
REMARK    8  A    between atoms: C_7  and  C_9
REMARK    9  A    between atoms: C_8  and  C_10
REMARK   10  A    between atoms: C_11  and  C_12
REMARK                            x       y       z     vdW  Elec       q    Type
REMARK                         _______ _______ _______ _____ _____    ______ ____
ROOT
ATOM      1  C   UNL     1       3.760   3.583 -20.820  0.00  0.00    +0.000 C 
ATOM      2  H   UNL     1       3.135   4.458 -21.035  0.00  0.00    +0.000 HD
ATOM      3  H   UNL     1       4.232   3.281 -21.763  0.00  0.00    +0.000 HD
ENDROOT
BRANCH   1   4
ATOM      4  C   UNL     1       4.838   3.956 -19.802  0.00  0.00    +0.000 C 
ATOM      5  H   UNL     1       4.747   3.314 -18.916  0.00  0.00    +0.000 HD
ATOM      6  H   UNL     1       5.829   3.772 -20.234  0.00  0.00    +0.000 HD
BRANCH   4   7
ATOM      7  C   UNL     1       4.726   5.424 -19.386  0.00  0.00    +0.000 C 
ATOM      8  H   UNL     1       3.673   5.681 -19.219  0.00  0.00    +0.000 HD
ATOM      9  H   UNL     1       5.090   6.063 -20.199  0.00  0.00    +0.000 HD
BRANCH   7  10
ATOM     10  C   UNL     1       5.531   5.705 -18.117  0.00  0.00    +0.000 C 
ATOM     11  H   UNL     1       4.852   5.877 -17.275  0.00  0.00    +0.000 HD
ATOM     12  H   UNL     1       6.126   6.616 -18.247  0.00  0.00    +0.000 HD
BRANCH  10  13
ATOM     13  C   UNL     1       6.457   4.547 -17.778  0.00  0.00    +0.000 C 
ATOM     14  H   UNL     1       6.239   3.675 -18.405  0.00  0.00    +0.000 HD
ATOM     15  H   UNL     1       6.349   4.251 -16.730  0.00  0.00    +0.000 HD
ATOM     16  H   UNL     1       7.499   4.834 -17.945  0.00  0.00    +0.000 HD
ENDBRANCH  10  13
ENDBRANCH   7  10
ENDBRANCH   4   7
ENDBRANCH   1   4
BRANCH   1  17
ATOM     17  C   UNL     1       2.880   2.439 -20.304  0.00  0.00    +0.000 C 
ATOM     18  H   UNL     1       3.304   1.477 -20.619  0.00  0.00    +0.000 HD
ATOM     19  H   UNL     1       2.891   2.440 -19.206  0.00  0.00    +0.000 HD
BRANCH  17  20
ATOM     20  C   UNL     1       1.438   2.542 -20.800  0.00  0.00    +0.000 C 
ATOM     21  H   UNL     1       1.434   2.910 -21.832  0.00  0.00    +0.000 HD
ATOM     22  H   UNL     1       0.973   1.549 -20.776  0.00  0.00    +0.000 HD
BRANCH  20  24
ATOM     23  O   UNL     1       0.209   3.262 -18.828  0.00  0.00    +0.000 OA
ATOM     24  C   UNL     1       0.588   3.479 -19.971  0.00  0.00    +0.000 C 
BRANCH  24  25
ATOM     25  O   UNL     1       0.342   4.612 -20.694  0.00  0.00    +0.000 OA
BRANCH  25  26
ATOM     26  C   UNL     1       0.760   5.836 -20.082  0.00  0.00    +0.000 C 
ATOM     27  H   UNL     1      -0.120   6.425 -19.806  0.00  0.00    +0.000 HD
ATOM     28  H   UNL     1       1.346   5.614 -19.183  0.00  0.00    +0.000 HD
BRANCH  26  29
ATOM     29  C   UNL     1       1.609   6.614 -21.066  0.00  0.00    +0.000 C 
ATOM     30  H   UNL     1       1.390   7.683 -21.012  0.00  0.00    +0.000 HD
ATOM     31  H   UNL     1       2.674   6.459 -20.861  0.00  0.00    +0.000 HD
ATOM     32  H   UNL     1       1.428   6.266 -22.088  0.00  0.00    +0.000 HD
ENDBRANCH  26  29
ENDBRANCH  25  26
ENDBRANCH  24  25
ENDBRANCH  20  24
ENDBRANCH  17  20
ENDBRANCH   1  17
TORSDOF 10
ENDMDL
MODEL 8
REMARK VINA RESULT:    -4.297     14.510     15.501
REMARK INTER + INTRA:          -6.934
REMARK INTER:                  -6.420
REMARK INTRA:                  -0.514
REMARK UNBOUND:                -0.376
REMARK  Name = 7799
REMARK  10 active torsions:
REMARK  status: ('A' for Active; 'I' for Inactive)
REMARK    1  A    between atoms: O_1  and  C_10
REMARK    2  A    between atoms: O_1  and  C_11
REMARK    3  A    between atoms: C_3  and  C_4
REMARK    4  A    between atoms: C_3  and  C_5
REMARK    5  A    between atoms: C_4  and  C_6
REMARK    6  A    between atoms: C_5  and  C_7
REMARK    7  A    between atoms: C_6  and  C_8
REMARK    8  A    between atoms: C_7  and  C_9
REMARK    9  A    between atoms: C_8  and  C_10
REMARK   10  A    between atoms: C_11  and  C_12
REMARK                            x       y       z     vdW  Elec       q    Type
REMARK                         _______ _______ _______ _____ _____    ______ ____
ROOT
ATOM      1  C   UNL     1       4.628   5.522 -19.264  0.00  0.00    +0.000 C 
ATOM      2  H   UNL     1       5.327   5.391 -20.098  0.00  0.00    +0.000 HD
ATOM      3  H   UNL     1       4.128   4.558 -19.104  0.00  0.00    +0.000 HD
ENDROOT
BRANCH   1   4
ATOM      4  C   UNL     1       5.398   5.916 -18.002  0.00  0.00    +0.000 C 
ATOM      5  H   UNL     1       6.003   6.809 -18.204  0.00  0.00    +0.000 HD
ATOM      6  H   UNL     1       4.689   6.179 -17.208  0.00  0.00    +0.000 HD
BRANCH   4   7
ATOM      7  C   UNL     1       6.303   4.779 -17.525  0.00  0.00    +0.000 C 
ATOM      8  H   UNL     1       5.829   4.258 -16.685  0.00  0.00    +0.000 HD
ATOM      9  H   UNL     1       7.249   5.194 -17.157  0.00  0.00    +0.000 HD
BRANCH   7  10
ATOM     10  C   UNL     1       6.587   3.785 -18.652  0.00  0.00    +0.000 C 
ATOM     11  H   UNL     1       6.332   4.235 -19.618  0.00  0.00    +0.000 HD
ATOM     12  H   UNL     1       5.958   2.897 -18.531  0.00  0.00    +0.000 HD
BRANCH  10  13
ATOM     13  C   UNL     1       8.048   3.367 -18.670  0.00  0.00    +0.000 C 
ATOM     14  H   UNL     1       8.691   4.173 -18.300  0.00  0.00    +0.000 HD
ATOM     15  H   UNL     1       8.371   3.109 -19.683  0.00  0.00    +0.000 HD
ATOM     16  H   UNL     1       8.199   2.492 -18.031  0.00  0.00    +0.000 HD
ENDBRANCH  10  13
ENDBRANCH   7  10
ENDBRANCH   4   7
ENDBRANCH   1   4
BRANCH   1  17
ATOM     17  C   UNL     1       3.583   6.581 -19.631  0.00  0.00    +0.000 C 
ATOM     18  H   UNL     1       3.185   7.039 -18.716  0.00  0.00    +0.000 HD
ATOM     19  H   UNL     1       4.067   7.386 -20.198  0.00  0.00    +0.000 HD
BRANCH  17  20
ATOM     20  C   UNL     1       2.428   6.003 -20.448  0.00  0.00    +0.000 C 
ATOM     21  H   UNL     1       2.067   6.761 -21.153  0.00  0.00    +0.000 HD
ATOM     22  H   UNL     1       2.781   5.132 -21.013  0.00  0.00    +0.000 HD
BRANCH  20  24
ATOM     23  O   UNL     1       0.516   6.319 -18.978  0.00  0.00    +0.000 OA
ATOM     24  C   UNL     1       1.255   5.566 -19.598  0.00  0.00    +0.000 C 
BRANCH  24  25
ATOM     25  O   UNL     1       1.141   4.207 -19.664  0.00  0.00    +0.000 OA
BRANCH  25  26
ATOM     26  C   UNL     1       1.758   3.591 -20.798  0.00  0.00    +0.000 C 
ATOM     27  H   UNL     1       0.984   3.232 -21.484  0.00  0.00    +0.000 HD
ATOM     28  H   UNL     1       2.390   4.323 -21.313  0.00  0.00    +0.000 HD
BRANCH  26  29
ATOM     29  C   UNL     1       2.605   2.427 -20.327  0.00  0.00    +0.000 C 
ATOM     30  H   UNL     1       2.529   2.301 -19.245  0.00  0.00    +0.000 HD
ATOM     31  H   UNL     1       2.289   1.499 -20.816  0.00  0.00    +0.000 HD
ATOM     32  H   UNL     1       3.656   2.584 -20.593  0.00  0.00    +0.000 HD
ENDBRANCH  26  29
ENDBRANCH  25  26
ENDBRANCH  24  25
ENDBRANCH  20  24
ENDBRANCH  17  20
ENDBRANCH   1  17
TORSDOF 10
ENDMDL
MODEL 9
REMARK VINA RESULT:    -4.259     16.939     19.073
REMARK INTER + INTRA:          -6.876
REMARK INTER:                  -5.921
REMARK INTRA:                  -0.955
REMARK UNBOUND:                -0.376
REMARK  Name = 7799
REMARK  10 active torsions:
REMARK  status: ('A' for Active; 'I' for Inactive)
REMARK    1  A    between atoms: O_1  and  C_10
REMARK    2  A    between atoms: O_1  and  C_11
REMARK    3  A    between atoms: C_3  and  C_4
REMARK    4  A    between atoms: C_3  and  C_5
REMARK    5  A    between atoms: C_4  and  C_6
REMARK    6  A    between atoms: C_5  and  C_7
REMARK    7  A    between atoms: C_6  and  C_8
REMARK    8  A    between atoms: C_7  and  C_9
REMARK    9  A    between atoms: C_8  and  C_10
REMARK   10  A    between atoms: C_11  and  C_12
REMARK                            x       y       z     vdW  Elec       q    Type
REMARK                         _______ _______ _______ _____ _____    ______ ____
ROOT
ATOM      1  C   UNL     1      -6.373 -12.774   4.394  0.00  0.00    +0.000 C 
ATOM      2  H   UNL     1      -6.050 -11.736   4.538  0.00  0.00    +0.000 HD
ATOM      3  H   UNL     1      -5.721 -13.405   5.012  0.00  0.00    +0.000 HD
ENDROOT
BRANCH   1   4
ATOM      4  C   UNL     1      -7.824 -12.932   4.850  0.00  0.00    +0.000 C 
ATOM      5  H   UNL     1      -8.338 -11.965   4.784  0.00  0.00    +0.000 HD
ATOM      6  H   UNL     1      -8.346 -13.622   4.177  0.00  0.00    +0.000 HD
BRANCH   4   7
ATOM      7  C   UNL     1      -7.902 -13.459   6.284  0.00  0.00    +0.000 C 
ATOM      8  H   UNL     1      -8.878 -13.208   6.717  0.00  0.00    +0.000 HD
ATOM      9  H   UNL     1      -7.139 -12.964   6.897  0.00  0.00    +0.000 HD
BRANCH   7  10
ATOM     10  C   UNL     1      -7.692 -14.973   6.332  0.00  0.00    +0.000 C 
ATOM     11  H   UNL     1      -7.432 -15.281   7.351  0.00  0.00    +0.000 HD
ATOM     12  H   UNL     1      -6.855 -15.253   5.683  0.00  0.00    +0.000 HD
BRANCH  10  13
ATOM     13  C   UNL     1      -8.940 -15.721   5.891  0.00  0.00    +0.000 C 
ATOM     14  H   UNL     1      -9.238 -16.463   6.640  0.00  0.00    +0.000 HD
ATOM     15  H   UNL     1      -8.773 -16.239   4.942  0.00  0.00    +0.000 HD
ATOM     16  H   UNL     1      -9.772 -15.023   5.755  0.00  0.00    +0.000 HD
ENDBRANCH  10  13
ENDBRANCH   7  10
ENDBRANCH   4   7
ENDBRANCH   1   4
BRANCH   1  17
ATOM     17  C   UNL     1      -6.207 -13.163   2.921  0.00  0.00    +0.000 C 
ATOM     18  H   UNL     1      -6.220 -12.260   2.298  0.00  0.00    +0.000 HD
ATOM     19  H   UNL     1      -5.222 -13.627   2.777  0.00  0.00    +0.000 HD
BRANCH  17  20
ATOM     20  C   UNL     1      -7.297 -14.121   2.444  0.00  0.00    +0.000 C 
ATOM     21  H   UNL     1      -8.211 -13.950   3.024  0.00  0.00    +0.000 HD
ATOM     22  H   UNL     1      -7.510 -13.934   1.385  0.00  0.00    +0.000 HD
BRANCH  20  24
ATOM     23  O   UNL     1      -7.693 -16.520   2.505  0.00  0.00    +0.000 OA
ATOM     24  C   UNL     1      -6.918 -15.578   2.596  0.00  0.00    +0.000 C 
BRANCH  24  25
ATOM     25  O   UNL     1      -5.573 -15.667   2.816  0.00  0.00    +0.000 OA
BRANCH  25  26
ATOM     26  C   UNL     1      -5.176 -16.583   3.841  0.00  0.00    +0.000 C 
ATOM     27  H   UNL     1      -6.067 -17.004   4.319  0.00  0.00    +0.000 HD
ATOM     28  H   UNL     1      -4.583 -17.392   3.399  0.00  0.00    +0.000 HD
BRANCH  26  29
ATOM     29  C   UNL     1      -4.346 -15.844   4.869  0.00  0.00    +0.000 C 
ATOM     30  H   UNL     1      -4.334 -16.380   5.821  0.00  0.00    +0.000 HD
ATOM     31  H   UNL     1      -3.316 -15.722   4.517  0.00  0.00    +0.000 HD
ATOM     32  H   UNL     1      -4.746 -14.837   5.034  0.00  0.00    +0.000 HD
ENDBRANCH  26  29
ENDBRANCH  25  26
ENDBRANCH  24  25
ENDBRANCH  20  24
ENDBRANCH  17  20
ENDBRANCH   1  17
TORSDOF 10
ENDMDL
MODEL 10
REMARK VINA RESULT:    -4.249     14.873     16.976
REMARK INTER + INTRA:          -6.860
REMARK INTER:                  -6.203
REMARK INTRA:                  -0.657
REMARK UNBOUND:                -0.376
REMARK  Name = 7799
REMARK  10 active torsions:
REMARK  status: ('A' for Active; 'I' for Inactive)
REMARK    1  A    between atoms: O_1  and  C_10
REMARK    2  A    between atoms: O_1  and  C_11
REMARK    3  A    between atoms: C_3  and  C_4
REMARK    4  A    between atoms: C_3  and  C_5
REMARK    5  A    between atoms: C_4  and  C_6
REMARK    6  A    between atoms: C_5  and  C_7
REMARK    7  A    between atoms: C_6  and  C_8
REMARK    8  A    between atoms: C_7  and  C_9
REMARK    9  A    between atoms: C_8  and  C_10
REMARK   10  A    between atoms: C_11  and  C_12
REMARK                            x       y       z     vdW  Elec       q    Type
REMARK                         _______ _______ _______ _____ _____    ______ ____
ROOT
ATOM      1  C   UNL     1      17.541  -6.068  -3.795  0.00  0.00    +0.000 C 
ATOM      2  H   UNL     1      17.326  -6.910  -3.125  0.00  0.00    +0.000 HD
ATOM      3  H   UNL     1      16.937  -6.212  -4.700  0.00  0.00    +0.000 HD
ENDROOT
BRANCH   1   4
ATOM      4  C   UNL     1      17.146  -4.755  -3.117  0.00  0.00    +0.000 C 
ATOM      5  H   UNL     1      17.915  -4.472  -2.387  0.00  0.00    +0.000 HD
ATOM      6  H   UNL     1      17.101  -3.956  -3.866  0.00  0.00    +0.000 HD
BRANCH   4   7
ATOM      7  C   UNL     1      15.792  -4.877  -2.415  0.00  0.00    +0.000 C 
ATOM      8  H   UNL     1      15.016  -4.401  -3.027  0.00  0.00    +0.000 HD
ATOM      9  H   UNL     1      15.826  -4.340  -1.460  0.00  0.00    +0.000 HD
BRANCH   7  10
ATOM     10  C   UNL     1      15.425  -6.340  -2.166  0.00  0.00    +0.000 C 
ATOM     11  H   UNL     1      16.136  -6.996  -2.682  0.00  0.00    +0.000 HD
ATOM     12  H   UNL     1      14.432  -6.550  -2.577  0.00  0.00    +0.000 HD
BRANCH  10  13
ATOM     13  C   UNL     1      15.434  -6.671  -0.682  0.00  0.00    +0.000 C 
ATOM     14  H   UNL     1      14.569  -6.227  -0.177  0.00  0.00    +0.000 HD
ATOM     15  H   UNL     1      16.342  -6.296  -0.201  0.00  0.00    +0.000 HD
ATOM     16  H   UNL     1      15.393  -7.754  -0.535  0.00  0.00    +0.000 HD
ENDBRANCH  10  13
ENDBRANCH   7  10
ENDBRANCH   4   7
ENDBRANCH   1   4
BRANCH   1  17
ATOM     17  C   UNL     1      19.027  -6.076  -4.169  0.00  0.00    +0.000 C 
ATOM     18  H   UNL     1      19.560  -6.805  -3.546  0.00  0.00    +0.000 HD
ATOM     19  H   UNL     1      19.137  -6.414  -5.208  0.00  0.00    +0.000 HD
BRANCH  17  20
ATOM     20  C   UNL     1      19.677  -4.703  -4.008  0.00  0.00    +0.000 C 
ATOM     21  H   UNL     1      20.004  -4.338  -4.988  0.00  0.00    +0.000 HD
ATOM     22  H   UNL     1      18.946  -3.999  -3.593  0.00  0.00    +0.000 HD
BRANCH  20  24
ATOM     23  O   UNL     1      22.031  -4.953  -3.447  0.00  0.00    +0.000 OA
ATOM     24  C   UNL     1      20.883  -4.718  -3.094  0.00  0.00    +0.000 C 
BRANCH  24  25
ATOM     25  O   UNL     1      20.485  -4.396  -1.828  0.00  0.00    +0.000 OA
BRANCH  25  26
ATOM     26  C   UNL     1      20.148  -3.021  -1.618  0.00  0.00    +0.000 C 
ATOM     27  H   UNL     1      21.030  -2.480  -1.261  0.00  0.00    +0.000 HD
ATOM     28  H   UNL     1      19.807  -2.581  -2.562  0.00  0.00    +0.000 HD
BRANCH  26  29
ATOM     29  C   UNL     1      19.043  -2.936  -0.587  0.00  0.00    +0.000 C 
ATOM     30  H   UNL     1      19.411  -3.211   0.405  0.00  0.00    +0.000 HD
ATOM     31  H   UNL     1      18.633  -1.922  -0.545  0.00  0.00    +0.000 HD
ATOM     32  H   UNL     1      18.215  -3.602  -0.853  0.00  0.00    +0.000 HD
ENDBRANCH  26  29
ENDBRANCH  25  26
ENDBRANCH  24  25
ENDBRANCH  20  24
ENDBRANCH  17  20
ENDBRANCH   1  17
TORSDOF 10
ENDMDL
