MODEL 1
REMARK VINA RESULT:    -5.452      0.000      0.000
REMARK INTER + INTRA:          -9.220
REMARK INTER:                  -8.879
REMARK INTRA:                  -0.341
REMARK UNBOUND:                -0.580
REMARK  Name = 31251
REMARK  11 active torsions:
REMARK  status: ('A' for Active; 'I' for Inactive)
REMARK    1  A    between atoms: O_1  and  C_11
REMARK    2  A    between atoms: O_1  and  C_12
REMARK    3  A    between atoms: C_3  and  C_4
REMARK    4  A    between atoms: C_3  and  C_5
REMARK    5  A    between atoms: C_4  and  C_6
REMARK    6  A    between atoms: C_5  and  C_7
REMARK    7  A    between atoms: C_6  and  C_8
REMARK    8  A    between atoms: C_7  and  C_9
REMARK    9  A    between atoms: C_8  and  C_10
REMARK   10  A    between atoms: C_9  and  C_11
REMARK   11  A    between atoms: C_12  and  C_13
REMARK                            x       y       z     vdW  Elec       q    Type
REMARK                         _______ _______ _______ _____ _____    ______ ____
ROOT
ATOM      1  C   UNL     1       2.249  -5.711  -7.303  0.00  0.00    +0.000 C 
ATOM      2  H   UNL     1       2.611  -4.769  -7.734  0.00  0.00    +0.000 HD
ATOM      3  H   UNL     1       2.695  -5.805  -6.307  0.00  0.00    +0.000 HD
ENDROOT
BRANCH   1   4
ATOM      4  C   UNL     1       2.699  -6.880  -8.183  0.00  0.00    +0.000 C 
ATOM      5  H   UNL     1       2.330  -7.820  -7.753  0.00  0.00    +0.000 HD
ATOM      6  H   UNL     1       2.239  -6.785  -9.174  0.00  0.00    +0.000 HD
BRANCH   4   7
ATOM      7  C   UNL     1       4.219  -6.969  -8.346  0.00  0.00    +0.000 C 
ATOM      8  H   UNL     1       4.549  -7.971  -8.040  0.00  0.00    +0.000 HD
ATOM      9  H   UNL     1       4.697  -6.256  -7.663  0.00  0.00    +0.000 HD
BRANCH   7  10
ATOM     10  C   UNL     1       4.695  -6.694  -9.774  0.00  0.00    +0.000 C 
ATOM     11  H   UNL     1       3.883  -6.232 -10.350  0.00  0.00    +0.000 HD
ATOM     12  H   UNL     1       4.941  -7.643 -10.266  0.00  0.00    +0.000 HD
BRANCH  10  13
ATOM     13  C   UNL     1       5.921  -5.780  -9.782  0.00  0.00    +0.000 C 
ATOM     14  H   UNL     1       6.431  -5.850 -10.751  0.00  0.00    +0.000 HD
ATOM     15  H   UNL     1       5.610  -4.737  -9.653  0.00  0.00    +0.000 HD
BRANCH  13  16
ATOM     16  C   UNL     1       6.898  -6.147  -8.676  0.00  0.00    +0.000 C 
ATOM     17  H   UNL     1       6.667  -5.605  -7.753  0.00  0.00    +0.000 HD
ATOM     18  H   UNL     1       7.927  -5.911  -8.966  0.00  0.00    +0.000 HD
ATOM     19  H   UNL     1       6.843  -7.220  -8.463  0.00  0.00    +0.000 HD
ENDBRANCH  13  16
ENDBRANCH  10  13
ENDBRANCH   7  10
ENDBRANCH   4   7
ENDBRANCH   1   4
BRANCH   1  20
ATOM     20  C   UNL     1       0.722  -5.666  -7.183  0.00  0.00    +0.000 C 
ATOM     21  H   UNL     1       0.444  -5.146  -6.257  0.00  0.00    +0.000 HD
ATOM     22  H   UNL     1       0.332  -6.688  -7.095  0.00  0.00    +0.000 HD
BRANCH  20  23
ATOM     23  C   UNL     1       0.063  -4.974  -8.373  0.00  0.00    +0.000 C 
ATOM     24  H   UNL     1      -0.013  -5.674  -9.212  0.00  0.00    +0.000 HD
ATOM     25  H   UNL     1      -0.944  -4.644  -8.093  0.00  0.00    +0.000 HD
BRANCH  23  27
ATOM     26  O   UNL     1       1.537  -3.754  -9.845  0.00  0.00    +0.000 OA
ATOM     27  C   UNL     1       0.836  -3.766  -8.840  0.00  0.00    +0.000 C 
BRANCH  27  28
ATOM     28  O   UNL     1       0.636  -2.722  -7.986  0.00  0.00    +0.000 OA
BRANCH  28  29
ATOM     29  C   UNL     1       0.225  -1.495  -8.598  0.00  0.00    +0.000 C 
ATOM     30  H   UNL     1      -0.480  -1.710  -9.408  0.00  0.00    +0.000 HD
ATOM     31  H   UNL     1       1.102  -0.979  -9.006  0.00  0.00    +0.000 HD
BRANCH  29  32
ATOM     32  C   UNL     1      -0.442  -0.624  -7.556  0.00  0.00    +0.000 C 
ATOM     33  H   UNL     1      -0.908  -1.234  -6.776  0.00  0.00    +0.000 HD
ATOM     34  H   UNL     1       0.285   0.049  -7.093  0.00  0.00    +0.000 HD
ATOM     35  H   UNL     1      -1.211   0.007  -8.016  0.00  0.00    +0.000 HD
ENDBRANCH  29  32
ENDBRANCH  28  29
ENDBRANCH  27  28
ENDBRANCH  23  27
ENDBRANCH  20  23
ENDBRANCH   1  20
TORSDOF 11
ENDMDL
MODEL 2
REMARK VINA RESULT:    -4.535      3.038      7.445
REMARK INTER + INTRA:          -7.766
REMARK INTER:                  -7.392
REMARK INTRA:                  -0.374
REMARK UNBOUND:                -0.580
REMARK  Name = 31251
REMARK  11 active torsions:
REMARK  status: ('A' for Active; 'I' for Inactive)
REMARK    1  A    between atoms: O_1  and  C_11
REMARK    2  A    between atoms: O_1  and  C_12
REMARK    3  A    between atoms: C_3  and  C_4
REMARK    4  A    between atoms: C_3  and  C_5
REMARK    5  A    between atoms: C_4  and  C_6
REMARK    6  A    between atoms: C_5  and  C_7
REMARK    7  A    between atoms: C_6  and  C_8
REMARK    8  A    between atoms: C_7  and  C_9
REMARK    9  A    between atoms: C_8  and  C_10
REMARK   10  A    between atoms: C_9  and  C_11
REMARK   11  A    between atoms: C_12  and  C_13
REMARK                            x       y       z     vdW  Elec       q    Type
REMARK                         _______ _______ _______ _____ _____    ______ ____
ROOT
ATOM      1  C   UNL     1       0.451  -0.536  -7.479  0.00  0.00    +0.000 C 
ATOM      2  H   UNL     1       0.743  -1.228  -6.680  0.00  0.00    +0.000 HD
ATOM      3  H   UNL     1       1.329   0.074  -7.718  0.00  0.00    +0.000 HD
ENDROOT
BRANCH   1   4
ATOM      4  C   UNL     1      -0.684   0.365  -6.985  0.00  0.00    +0.000 C 
ATOM      5  H   UNL     1      -0.919   1.109  -7.756  0.00  0.00    +0.000 HD
ATOM      6  H   UNL     1      -1.588  -0.238  -6.841  0.00  0.00    +0.000 HD
BRANCH   4   7
ATOM      7  C   UNL     1      -0.358   1.090  -5.676  0.00  0.00    +0.000 C 
ATOM      8  H   UNL     1       0.482   1.776  -5.851  0.00  0.00    +0.000 HD
ATOM      9  H   UNL     1      -0.018   0.358  -4.932  0.00  0.00    +0.000 HD
BRANCH   7  10
ATOM     10  C   UNL     1      -1.540   1.875  -5.103  0.00  0.00    +0.000 C 
ATOM     11  H   UNL     1      -2.443   1.656  -5.686  0.00  0.00    +0.000 HD
ATOM     12  H   UNL     1      -1.346   2.950  -5.200  0.00  0.00    +0.000 HD
BRANCH  10  13
ATOM     13  C   UNL     1      -1.776   1.528  -3.633  0.00  0.00    +0.000 C 
ATOM     14  H   UNL     1      -2.425   2.281  -3.172  0.00  0.00    +0.000 HD
ATOM     15  H   UNL     1      -2.290   0.563  -3.555  0.00  0.00    +0.000 HD
BRANCH  13  16
ATOM     16  C   UNL     1      -0.468   1.456  -2.860  0.00  0.00    +0.000 C 
ATOM     17  H   UNL     1      -0.500   0.664  -2.105  0.00  0.00    +0.000 HD
ATOM     18  H   UNL     1      -0.257   2.404  -2.356  0.00  0.00    +0.000 HD
ATOM     19  H   UNL     1       0.363   1.242  -3.541  0.00  0.00    +0.000 HD
ENDBRANCH  13  16
ENDBRANCH  10  13
ENDBRANCH   7  10
ENDBRANCH   4   7
ENDBRANCH   1   4
BRANCH   1  20
ATOM     20  C   UNL     1       0.024  -1.332  -8.717  0.00  0.00    +0.000 C 
ATOM     21  H   UNL     1       0.342  -0.799  -9.622  0.00  0.00    +0.000 HD
ATOM     22  H   UNL     1      -1.072  -1.386  -8.756  0.00  0.00    +0.000 HD
BRANCH  20  23
ATOM     23  C   UNL     1       0.601  -2.745  -8.729  0.00  0.00    +0.000 C 
ATOM     24  H   UNL     1       0.247  -3.281  -9.615  0.00  0.00    +0.000 HD
ATOM     25  H   UNL     1       1.696  -2.693  -8.759  0.00  0.00    +0.000 HD
BRANCH  23  27
ATOM     26  O   UNL     1      -0.954  -3.808  -7.220  0.00  0.00    +0.000 OA
ATOM     27  C   UNL     1       0.206  -3.542  -7.510  0.00  0.00    +0.000 C 
BRANCH  27  28
ATOM     28  O   UNL     1       1.316  -3.904  -6.806  0.00  0.00    +0.000 OA
BRANCH  28  29
ATOM     29  C   UNL     1       1.566  -5.311  -6.730  0.00  0.00    +0.000 C 
ATOM     30  H   UNL     1       2.361  -5.579  -7.435  0.00  0.00    +0.000 HD
ATOM     31  H   UNL     1       0.652  -5.859  -6.987  0.00  0.00    +0.000 HD
BRANCH  29  32
ATOM     32  C   UNL     1       1.992  -5.661  -5.321  0.00  0.00    +0.000 C 
ATOM     33  H   UNL     1       1.127  -5.913  -4.702  0.00  0.00    +0.000 HD
ATOM     34  H   UNL     1       2.684  -6.509  -5.326  0.00  0.00    +0.000 HD
ATOM     35  H   UNL     1       2.523  -4.821  -4.859  0.00  0.00    +0.000 HD
ENDBRANCH  29  32
ENDBRANCH  28  29
ENDBRANCH  27  28
ENDBRANCH  23  27
ENDBRANCH  20  23
ENDBRANCH   1  20
TORSDOF 11
ENDMDL
MODEL 3
REMARK VINA RESULT:    -4.471     15.785     17.399
REMARK INTER + INTRA:          -7.665
REMARK INTER:                  -6.657
REMARK INTRA:                  -1.009
REMARK UNBOUND:                -0.580
REMARK  Name = 31251
REMARK  11 active torsions:
REMARK  status: ('A' for Active; 'I' for Inactive)
REMARK    1  A    between atoms: O_1  and  C_11
REMARK    2  A    between atoms: O_1  and  C_12
REMARK    3  A    between atoms: C_3  and  C_4
REMARK    4  A    between atoms: C_3  and  C_5
REMARK    5  A    between atoms: C_4  and  C_6
REMARK    6  A    between atoms: C_5  and  C_7
REMARK    7  A    between atoms: C_6  and  C_8
REMARK    8  A    between atoms: C_7  and  C_9
REMARK    9  A    between atoms: C_8  and  C_10
REMARK   10  A    between atoms: C_9  and  C_11
REMARK   11  A    between atoms: C_12  and  C_13
REMARK                            x       y       z     vdW  Elec       q    Type
REMARK                         _______ _______ _______ _____ _____    ______ ____
ROOT
ATOM      1  C   UNL     1      16.540  -6.241  -3.463  0.00  0.00    +0.000 C 
ATOM      2  H   UNL     1      15.672  -6.631  -4.008  0.00  0.00    +0.000 HD
ATOM      3  H   UNL     1      16.814  -6.989  -2.710  0.00  0.00    +0.000 HD
ENDROOT
BRANCH   1   4
ATOM      4  C   UNL     1      16.160  -4.929  -2.771  0.00  0.00    +0.000 C 
ATOM      5  H   UNL     1      17.005  -4.232  -2.828  0.00  0.00    +0.000 HD
ATOM      6  H   UNL     1      15.328  -4.463  -3.313  0.00  0.00    +0.000 HD
BRANCH   4   7
ATOM      7  C   UNL     1      15.759  -5.109  -1.304  0.00  0.00    +0.000 C 
ATOM      8  H   UNL     1      14.901  -4.457  -1.090  0.00  0.00    +0.000 HD
ATOM      9  H   UNL     1      16.581  -4.770  -0.661  0.00  0.00    +0.000 HD
BRANCH   7  10
ATOM     10  C   UNL     1      15.400  -6.551  -0.943  0.00  0.00    +0.000 C 
ATOM     11  H   UNL     1      15.562  -7.199  -1.813  0.00  0.00    +0.000 HD
ATOM     12  H   UNL     1      14.334  -6.610  -0.691  0.00  0.00    +0.000 HD
BRANCH  10  13
ATOM     13  C   UNL     1      16.234  -7.051   0.238  0.00  0.00    +0.000 C 
ATOM     14  H   UNL     1      16.078  -6.399   1.105  0.00  0.00    +0.000 HD
ATOM     15  H   UNL     1      15.909  -8.058   0.524  0.00  0.00    +0.000 HD
BRANCH  13  16
ATOM     16  C   UNL     1      17.716  -7.086  -0.102  0.00  0.00    +0.000 C 
ATOM     17  H   UNL     1      17.873  -7.384  -1.143  0.00  0.00    +0.000 HD
ATOM     18  H   UNL     1      18.249  -7.792   0.543  0.00  0.00    +0.000 HD
ATOM     19  H   UNL     1      18.160  -6.095   0.039  0.00  0.00    +0.000 HD
ENDBRANCH  13  16
ENDBRANCH  10  13
ENDBRANCH   7  10
ENDBRANCH   4   7
ENDBRANCH   1   4
BRANCH   1  20
ATOM     20  C   UNL     1      17.707  -6.036  -4.434  0.00  0.00    +0.000 C 
ATOM     21  H   UNL     1      17.629  -5.041  -4.893  0.00  0.00    +0.000 HD
ATOM     22  H   UNL     1      17.633  -6.762  -5.253  0.00  0.00    +0.000 HD
BRANCH  20  23
ATOM     23  C   UNL     1      19.065  -6.178  -3.752  0.00  0.00    +0.000 C 
ATOM     24  H   UNL     1      18.932  -6.196  -2.665  0.00  0.00    +0.000 HD
ATOM     25  H   UNL     1      19.536  -7.115  -4.068  0.00  0.00    +0.000 HD
BRANCH  23  27
ATOM     26  O   UNL     1      20.994  -5.173  -4.799  0.00  0.00    +0.000 OA
ATOM     27  C   UNL     1      20.003  -5.046  -4.090  0.00  0.00    +0.000 C 
BRANCH  27  28
ATOM     28  O   UNL     1      19.582  -3.894  -3.494  0.00  0.00    +0.000 OA
BRANCH  28  29
ATOM     29  C   UNL     1      20.117  -3.644  -2.190  0.00  0.00    +0.000 C 
ATOM     30  H   UNL     1      20.910  -2.891  -2.259  0.00  0.00    +0.000 HD
ATOM     31  H   UNL     1      20.531  -4.573  -1.781  0.00  0.00    +0.000 HD
BRANCH  29  32
ATOM     32  C   UNL     1      19.009  -3.138  -1.292  0.00  0.00    +0.000 C 
ATOM     33  H   UNL     1      18.729  -2.113  -1.555  0.00  0.00    +0.000 HD
ATOM     34  H   UNL     1      18.125  -3.778  -1.371  0.00  0.00    +0.000 HD
ATOM     35  H   UNL     1      19.323  -3.159  -0.243  0.00  0.00    +0.000 HD
ENDBRANCH  29  32
ENDBRANCH  28  29
ENDBRANCH  27  28
ENDBRANCH  23  27
ENDBRANCH  20  23
ENDBRANCH   1  20
TORSDOF 11
ENDMDL
MODEL 4
REMARK VINA RESULT:    -4.460     15.411     17.759
REMARK INTER + INTRA:          -7.648
REMARK INTER:                  -6.781
REMARK INTRA:                  -0.867
REMARK UNBOUND:                -0.580
REMARK  Name = 31251
REMARK  11 active torsions:
REMARK  status: ('A' for Active; 'I' for Inactive)
REMARK    1  A    between atoms: O_1  and  C_11
REMARK    2  A    between atoms: O_1  and  C_12
REMARK    3  A    between atoms: C_3  and  C_4
REMARK    4  A    between atoms: C_3  and  C_5
REMARK    5  A    between atoms: C_4  and  C_6
REMARK    6  A    between atoms: C_5  and  C_7
REMARK    7  A    between atoms: C_6  and  C_8
REMARK    8  A    between atoms: C_7  and  C_9
REMARK    9  A    between atoms: C_8  and  C_10
REMARK   10  A    between atoms: C_9  and  C_11
REMARK   11  A    between atoms: C_12  and  C_13
REMARK                            x       y       z     vdW  Elec       q    Type
REMARK                         _______ _______ _______ _____ _____    ______ ____
ROOT
ATOM      1  C   UNL     1      19.470  -6.282  -3.557  0.00  0.00    +0.000 C 
ATOM      2  H   UNL     1      20.096  -7.136  -3.271  0.00  0.00    +0.000 HD
ATOM      3  H   UNL     1      18.972  -5.924  -2.649  0.00  0.00    +0.000 HD
ENDROOT
BRANCH   1   4
ATOM      4  C   UNL     1      18.421  -6.737  -4.575  0.00  0.00    +0.000 C 
ATOM      5  H   UNL     1      18.757  -6.474  -5.585  0.00  0.00    +0.000 HD
ATOM      6  H   UNL     1      18.338  -7.830  -4.545  0.00  0.00    +0.000 HD
BRANCH   4   7
ATOM      7  C   UNL     1      17.036  -6.129  -4.335  0.00  0.00    +0.000 C 
ATOM      8  H   UNL     1      16.273  -6.839  -4.679  0.00  0.00    +0.000 HD
ATOM      9  H   UNL     1      16.927  -5.226  -4.950  0.00  0.00    +0.000 HD
BRANCH   7  10
ATOM     10  C   UNL     1      16.772  -5.774  -2.870  0.00  0.00    +0.000 C 
ATOM     11  H   UNL     1      16.815  -4.685  -2.743  0.00  0.00    +0.000 HD
ATOM     12  H   UNL     1      17.562  -6.204  -2.242  0.00  0.00    +0.000 HD
BRANCH  10  13
ATOM     13  C   UNL     1      15.411  -6.296  -2.410  0.00  0.00    +0.000 C 
ATOM     14  H   UNL     1      14.635  -5.552  -2.624  0.00  0.00    +0.000 HD
ATOM     15  H   UNL     1      15.152  -7.205  -2.965  0.00  0.00    +0.000 HD
BRANCH  13  16
ATOM     16  C   UNL     1      15.408  -6.607  -0.921  0.00  0.00    +0.000 C 
ATOM     17  H   UNL     1      14.702  -7.411  -0.689  0.00  0.00    +0.000 HD
ATOM     18  H   UNL     1      15.129  -5.724  -0.336  0.00  0.00    +0.000 HD
ATOM     19  H   UNL     1      16.405  -6.926  -0.599  0.00  0.00    +0.000 HD
ENDBRANCH  13  16
ENDBRANCH  10  13
ENDBRANCH   7  10
ENDBRANCH   4   7
ENDBRANCH   1   4
BRANCH   1  20
ATOM     20  C   UNL     1      20.352  -5.170  -4.134  0.00  0.00    +0.000 C 
ATOM     21  H   UNL     1      20.390  -5.264  -5.227  0.00  0.00    +0.000 HD
ATOM     22  H   UNL     1      21.381  -5.296  -3.775  0.00  0.00    +0.000 HD
BRANCH  20  23
ATOM     23  C   UNL     1      19.852  -3.777  -3.760  0.00  0.00    +0.000 C 
ATOM     24  H   UNL     1      20.407  -3.021  -4.326  0.00  0.00    +0.000 HD
ATOM     25  H   UNL     1      18.787  -3.693  -4.004  0.00  0.00    +0.000 HD
BRANCH  23  27
ATOM     26  O   UNL     1      21.094  -3.530  -1.705  0.00  0.00    +0.000 OA
ATOM     27  C   UNL     1      20.020  -3.477  -2.291  0.00  0.00    +0.000 C 
BRANCH  27  28
ATOM     28  O   UNL     1      18.817  -3.150  -1.739  0.00  0.00    +0.000 OA
BRANCH  28  29
ATOM     29  C   UNL     1      18.799  -3.057  -0.311  0.00  0.00    +0.000 C 
ATOM     30  H   UNL     1      18.215  -2.181  -0.009  0.00  0.00    +0.000 HD
ATOM     31  H   UNL     1      19.825  -2.956   0.061  0.00  0.00    +0.000 HD
BRANCH  29  32
ATOM     32  C   UNL     1      18.170  -4.311   0.257  0.00  0.00    +0.000 C 
ATOM     33  H   UNL     1      17.114  -4.379  -0.020  0.00  0.00    +0.000 HD
ATOM     34  H   UNL     1      18.691  -5.202  -0.107  0.00  0.00    +0.000 HD
ATOM     35  H   UNL     1      18.249  -4.322   1.350  0.00  0.00    +0.000 HD
ENDBRANCH  29  32
ENDBRANCH  28  29
ENDBRANCH  27  28
ENDBRANCH  23  27
ENDBRANCH  20  23
ENDBRANCH   1  20
TORSDOF 11
ENDMDL
MODEL 5
REMARK VINA RESULT:    -4.355     16.231     18.498
REMARK INTER + INTRA:          -7.481
REMARK INTER:                  -6.449
REMARK INTRA:                  -1.032
REMARK UNBOUND:                -0.580
REMARK  Name = 31251
REMARK  11 active torsions:
REMARK  status: ('A' for Active; 'I' for Inactive)
REMARK    1  A    between atoms: O_1  and  C_11
REMARK    2  A    between atoms: O_1  and  C_12
REMARK    3  A    between atoms: C_3  and  C_4
REMARK    4  A    between atoms: C_3  and  C_5
REMARK    5  A    between atoms: C_4  and  C_6
REMARK    6  A    between atoms: C_5  and  C_7
REMARK    7  A    between atoms: C_6  and  C_8
REMARK    8  A    between atoms: C_7  and  C_9
REMARK    9  A    between atoms: C_8  and  C_10
REMARK   10  A    between atoms: C_9  and  C_11
REMARK   11  A    between atoms: C_12  and  C_13
REMARK                            x       y       z     vdW  Elec       q    Type
REMARK                         _______ _______ _______ _____ _____    ______ ____
ROOT
ATOM      1  C   UNL     1      -7.463 -14.982   2.986  0.00  0.00    +0.000 C 
ATOM      2  H   UNL     1      -8.528 -15.239   3.049  0.00  0.00    +0.000 HD
ATOM      3  H   UNL     1      -6.968 -15.432   3.854  0.00  0.00    +0.000 HD
ENDROOT
BRANCH   1   4
ATOM      4  C   UNL     1      -7.303 -13.460   3.032  0.00  0.00    +0.000 C 
ATOM      5  H   UNL     1      -6.471 -13.163   2.382  0.00  0.00    +0.000 HD
ATOM      6  H   UNL     1      -8.205 -12.988   2.625  0.00  0.00    +0.000 HD
BRANCH   4   7
ATOM      7  C   UNL     1      -7.052 -12.917   4.442  0.00  0.00    +0.000 C 
ATOM      8  H   UNL     1      -6.814 -11.847   4.373  0.00  0.00    +0.000 HD
ATOM      9  H   UNL     1      -6.168 -13.410   4.867  0.00  0.00    +0.000 HD
BRANCH   7  10
ATOM     10  C   UNL     1      -8.238 -13.111   5.389  0.00  0.00    +0.000 C 
ATOM     11  H   UNL     1      -8.995 -13.741   4.906  0.00  0.00    +0.000 HD
ATOM     12  H   UNL     1      -8.707 -12.140   5.590  0.00  0.00    +0.000 HD
BRANCH  10  13
ATOM     13  C   UNL     1      -7.797 -13.749   6.707  0.00  0.00    +0.000 C 
ATOM     14  H   UNL     1      -6.711 -13.651   6.823  0.00  0.00    +0.000 HD
ATOM     15  H   UNL     1      -8.263 -13.225   7.550  0.00  0.00    +0.000 HD
BRANCH  13  16
ATOM     16  C   UNL     1      -8.176 -15.221   6.768  0.00  0.00    +0.000 C 
ATOM     17  H   UNL     1      -9.113 -15.407   6.235  0.00  0.00    +0.000 HD
ATOM     18  H   UNL     1      -8.298 -15.552   7.805  0.00  0.00    +0.000 HD
ATOM     19  H   UNL     1      -7.394 -15.832   6.306  0.00  0.00    +0.000 HD
ENDBRANCH  13  16
ENDBRANCH  10  13
ENDBRANCH   7  10
ENDBRANCH   4   7
ENDBRANCH   1   4
BRANCH   1  20
ATOM     20  C   UNL     1      -6.871 -15.560   1.697  0.00  0.00    +0.000 C 
ATOM     21  H   UNL     1      -7.662 -15.655   0.942  0.00  0.00    +0.000 HD
ATOM     22  H   UNL     1      -6.500 -16.575   1.888  0.00  0.00    +0.000 HD
BRANCH  20  23
ATOM     23  C   UNL     1      -5.736 -14.703   1.141  0.00  0.00    +0.000 C 
ATOM     24  H   UNL     1      -5.813 -14.651   0.050  0.00  0.00    +0.000 HD
ATOM     25  H   UNL     1      -5.809 -13.689   1.551  0.00  0.00    +0.000 HD
BRANCH  23  27
ATOM     26  O   UNL     1      -3.727 -15.984   0.752  0.00  0.00    +0.000 OA
ATOM     27  C   UNL     1      -4.374 -15.250   1.490  0.00  0.00    +0.000 C 
BRANCH  27  28
ATOM     28  O   UNL     1      -3.993 -14.809   2.723  0.00  0.00    +0.000 OA
BRANCH  28  29
ATOM     29  C   UNL     1      -3.691 -15.833   3.676  0.00  0.00    +0.000 C 
ATOM     30  H   UNL     1      -2.610 -15.864   3.849  0.00  0.00    +0.000 HD
ATOM     31  H   UNL     1      -4.026 -16.802   3.290  0.00  0.00    +0.000 HD
BRANCH  29  32
ATOM     32  C   UNL     1      -4.407 -15.524   4.974  0.00  0.00    +0.000 C 
ATOM     33  H   UNL     1      -4.886 -16.420   5.379  0.00  0.00    +0.000 HD
ATOM     34  H   UNL     1      -3.706 -15.130   5.716  0.00  0.00    +0.000 HD
ATOM     35  H   UNL     1      -5.171 -14.755   4.819  0.00  0.00    +0.000 HD
ENDBRANCH  29  32
ENDBRANCH  28  29
ENDBRANCH  27  28
ENDBRANCH  23  27
ENDBRANCH  20  23
ENDBRANCH   1  20
TORSDOF 11
ENDMDL
MODEL 6
REMARK VINA RESULT:    -4.337     14.271     14.840
REMARK INTER + INTRA:          -7.453
REMARK INTER:                  -6.831
REMARK INTRA:                  -0.623
REMARK UNBOUND:                -0.580
REMARK  Name = 31251
REMARK  11 active torsions:
REMARK  status: ('A' for Active; 'I' for Inactive)
REMARK    1  A    between atoms: O_1  and  C_11
REMARK    2  A    between atoms: O_1  and  C_12
REMARK    3  A    between atoms: C_3  and  C_4
REMARK    4  A    between atoms: C_3  and  C_5
REMARK    5  A    between atoms: C_4  and  C_6
REMARK    6  A    between atoms: C_5  and  C_7
REMARK    7  A    between atoms: C_6  and  C_8
REMARK    8  A    between atoms: C_7  and  C_9
REMARK    9  A    between atoms: C_8  and  C_10
REMARK   10  A    between atoms: C_9  and  C_11
REMARK   11  A    between atoms: C_12  and  C_13
REMARK                            x       y       z     vdW  Elec       q    Type
REMARK                         _______ _______ _______ _____ _____    ______ ____
ROOT
ATOM      1  C   UNL     1       3.083   2.428 -20.333  0.00  0.00    +0.000 C 
ATOM      2  H   UNL     1       2.960   2.489 -19.245  0.00  0.00    +0.000 HD
ATOM      3  H   UNL     1       3.678   1.532 -20.543  0.00  0.00    +0.000 HD
ENDROOT
BRANCH   1   4
ATOM      4  C   UNL     1       3.827   3.669 -20.833  0.00  0.00    +0.000 C 
ATOM      5  H   UNL     1       4.287   3.449 -21.804  0.00  0.00    +0.000 HD
ATOM      6  H   UNL     1       3.106   4.479 -21.001  0.00  0.00    +0.000 HD
BRANCH   4   7
ATOM      7  C   UNL     1       4.909   4.160 -19.868  0.00  0.00    +0.000 C 
ATOM      8  H   UNL     1       5.877   4.151 -20.387  0.00  0.00    +0.000 HD
ATOM      9  H   UNL     1       4.994   3.455 -19.031  0.00  0.00    +0.000 HD
BRANCH   7  10
ATOM     10  C   UNL     1       4.643   5.562 -19.317  0.00  0.00    +0.000 C 
ATOM     11  H   UNL     1       3.574   5.675 -19.098  0.00  0.00    +0.000 HD
ATOM     12  H   UNL     1       4.898   6.308 -20.080  0.00  0.00    +0.000 HD
BRANCH  10  13
ATOM     13  C   UNL     1       5.462   5.825 -18.052  0.00  0.00    +0.000 C 
ATOM     14  H   UNL     1       6.058   6.737 -18.177  0.00  0.00    +0.000 HD
ATOM     15  H   UNL     1       4.791   5.989 -17.201  0.00  0.00    +0.000 HD
BRANCH  13  16
ATOM     16  C   UNL     1       6.388   4.661 -17.735  0.00  0.00    +0.000 C 
ATOM     17  H   UNL     1       5.829   3.815 -17.323  0.00  0.00    +0.000 HD
ATOM     18  H   UNL     1       7.153   4.955 -17.010  0.00  0.00    +0.000 HD
ATOM     19  H   UNL     1       6.895   4.323 -18.645  0.00  0.00    +0.000 HD
ENDBRANCH  13  16
ENDBRANCH  10  13
ENDBRANCH   7  10
ENDBRANCH   4   7
ENDBRANCH   1   4
BRANCH   1  20
ATOM     20  C   UNL     1       1.709   2.302 -20.999  0.00  0.00    +0.000 C 
ATOM     21  H   UNL     1       1.434   1.241 -21.071  0.00  0.00    +0.000 HD
ATOM     22  H   UNL     1       1.766   2.679 -22.028  0.00  0.00    +0.000 HD
BRANCH  20  23
ATOM     23  C   UNL     1       0.622   3.059 -20.241  0.00  0.00    +0.000 C 
ATOM     24  H   UNL     1      -0.165   2.363 -19.931  0.00  0.00    +0.000 HD
ATOM     25  H   UNL     1       1.056   3.525 -19.348  0.00  0.00    +0.000 HD
BRANCH  23  27
ATOM     26  O   UNL     1      -0.802   3.929 -21.985  0.00  0.00    +0.000 OA
ATOM     27  C   UNL     1      -0.013   4.145 -21.072  0.00  0.00    +0.000 C 
BRANCH  27  28
ATOM     28  O   UNL     1       0.421   5.369 -20.657  0.00  0.00    +0.000 OA
BRANCH  28  29
ATOM     29  C   UNL     1       0.901   5.427 -19.310  0.00  0.00    +0.000 C 
ATOM     30  H   UNL     1       1.997   5.413 -19.311  0.00  0.00    +0.000 HD
ATOM     31  H   UNL     1       0.526   4.563 -18.750  0.00  0.00    +0.000 HD
BRANCH  29  32
ATOM     32  C   UNL     1       0.409   6.706 -18.666  0.00  0.00    +0.000 C 
ATOM     33  H   UNL     1      -0.134   7.323 -19.388  0.00  0.00    +0.000 HD
ATOM     34  H   UNL     1      -0.252   6.483 -17.823  0.00  0.00    +0.000 HD
ATOM     35  H   UNL     1       1.248   7.285 -18.267  0.00  0.00    +0.000 HD
ENDBRANCH  29  32
ENDBRANCH  28  29
ENDBRANCH  27  28
ENDBRANCH  23  27
ENDBRANCH  20  23
ENDBRANCH   1  20
TORSDOF 11
ENDMDL
MODEL 7
REMARK VINA RESULT:    -4.318     13.945     15.070
REMARK INTER + INTRA:          -7.422
REMARK INTER:                  -7.031
REMARK INTRA:                  -0.391
REMARK UNBOUND:                -0.580
REMARK  Name = 31251
REMARK  11 active torsions:
REMARK  status: ('A' for Active; 'I' for Inactive)
REMARK    1  A    between atoms: O_1  and  C_11
REMARK    2  A    between atoms: O_1  and  C_12
REMARK    3  A    between atoms: C_3  and  C_4
REMARK    4  A    between atoms: C_3  and  C_5
REMARK    5  A    between atoms: C_4  and  C_6
REMARK    6  A    between atoms: C_5  and  C_7
REMARK    7  A    between atoms: C_6  and  C_8
REMARK    8  A    between atoms: C_7  and  C_9
REMARK    9  A    between atoms: C_8  and  C_10
REMARK   10  A    between atoms: C_9  and  C_11
REMARK   11  A    between atoms: C_12  and  C_13
REMARK                            x       y       z     vdW  Elec       q    Type
REMARK                         _______ _______ _______ _____ _____    ______ ____
ROOT
ATOM      1  C   UNL     1       2.604   6.292 -19.558  0.00  0.00    +0.000 C 
ATOM      2  H   UNL     1       2.025   7.074 -20.064  0.00  0.00    +0.000 HD
ATOM      3  H   UNL     1       2.314   6.305 -18.502  0.00  0.00    +0.000 HD
ENDROOT
BRANCH   1   4
ATOM      4  C   UNL     1       4.098   6.600 -19.687  0.00  0.00    +0.000 C 
ATOM      5  H   UNL     1       4.469   6.204 -20.640  0.00  0.00    +0.000 HD
ATOM      6  H   UNL     1       4.242   7.687 -19.719  0.00  0.00    +0.000 HD
BRANCH   4   7
ATOM      7  C   UNL     1       4.939   6.022 -18.545  0.00  0.00    +0.000 C 
ATOM      8  H   UNL     1       4.300   5.377 -17.927  0.00  0.00    +0.000 HD
ATOM      9  H   UNL     1       5.280   6.841 -17.898  0.00  0.00    +0.000 HD
BRANCH   7  10
ATOM     10  C   UNL     1       6.151   5.223 -19.025  0.00  0.00    +0.000 C 
ATOM     11  H   UNL     1       6.990   5.905 -19.213  0.00  0.00    +0.000 HD
ATOM     12  H   UNL     1       5.913   4.735 -19.978  0.00  0.00    +0.000 HD
BRANCH  10  13
ATOM     13  C   UNL     1       6.562   4.167 -17.998  0.00  0.00    +0.000 C 
ATOM     14  H   UNL     1       6.832   4.652 -17.053  0.00  0.00    +0.000 HD
ATOM     15  H   UNL     1       5.717   3.500 -17.791  0.00  0.00    +0.000 HD
BRANCH  13  16
ATOM     16  C   UNL     1       7.739   3.339 -18.490  0.00  0.00    +0.000 C 
ATOM     17  H   UNL     1       7.810   2.394 -17.942  0.00  0.00    +0.000 HD
ATOM     18  H   UNL     1       8.681   3.883 -18.363  0.00  0.00    +0.000 HD
ATOM     19  H   UNL     1       7.621   3.108 -19.554  0.00  0.00    +0.000 HD
ENDBRANCH  13  16
ENDBRANCH  10  13
ENDBRANCH   7  10
ENDBRANCH   4   7
ENDBRANCH   1   4
BRANCH   1  20
ATOM     20  C   UNL     1       2.267   4.928 -20.169  0.00  0.00    +0.000 C 
ATOM     21  H   UNL     1       2.886   4.154 -19.696  0.00  0.00    +0.000 HD
ATOM     22  H   UNL     1       2.529   4.929 -21.234  0.00  0.00    +0.000 HD
BRANCH  20  23
ATOM     23  C   UNL     1       0.792   4.567 -20.011  0.00  0.00    +0.000 C 
ATOM     24  H   UNL     1       0.489   4.699 -18.967  0.00  0.00    +0.000 HD
ATOM     25  H   UNL     1       0.185   5.225 -20.643  0.00  0.00    +0.000 HD
BRANCH  23  27
ATOM     26  O   UNL     1       1.348   2.256 -20.435  0.00  0.00    +0.000 OA
ATOM     27  C   UNL     1       0.500   3.141 -20.406  0.00  0.00    +0.000 C 
BRANCH  27  28
ATOM     28  O   UNL     1      -0.819   3.001 -20.719  0.00  0.00    +0.000 OA
BRANCH  28  29
ATOM     29  C   UNL     1      -1.097   2.214 -21.882  0.00  0.00    +0.000 C 
ATOM     30  H   UNL     1      -2.137   1.871 -21.850  0.00  0.00    +0.000 HD
ATOM     31  H   UNL     1      -0.428   1.347 -21.904  0.00  0.00    +0.000 HD
BRANCH  29  32
ATOM     32  C   UNL     1      -0.876   3.063 -23.115  0.00  0.00    +0.000 C 
ATOM     33  H   UNL     1      -1.817   3.497 -23.465  0.00  0.00    +0.000 HD
ATOM     34  H   UNL     1      -0.169   3.871 -22.906  0.00  0.00    +0.000 HD
ATOM     35  H   UNL     1      -0.443   2.463 -23.924  0.00  0.00    +0.000 HD
ENDBRANCH  29  32
ENDBRANCH  28  29
ENDBRANCH  27  28
ENDBRANCH  23  27
ENDBRANCH  20  23
ENDBRANCH   1  20
TORSDOF 11
ENDMDL
MODEL 8
REMARK VINA RESULT:    -4.260     15.587     18.209
REMARK INTER + INTRA:          -7.331
REMARK INTER:                  -6.697
REMARK INTRA:                  -0.635
REMARK UNBOUND:                -0.580
REMARK  Name = 31251
REMARK  11 active torsions:
REMARK  status: ('A' for Active; 'I' for Inactive)
REMARK    1  A    between atoms: O_1  and  C_11
REMARK    2  A    between atoms: O_1  and  C_12
REMARK    3  A    between atoms: C_3  and  C_4
REMARK    4  A    between atoms: C_3  and  C_5
REMARK    5  A    between atoms: C_4  and  C_6
REMARK    6  A    between atoms: C_5  and  C_7
REMARK    7  A    between atoms: C_6  and  C_8
REMARK    8  A    between atoms: C_7  and  C_9
REMARK    9  A    between atoms: C_8  and  C_10
REMARK   10  A    between atoms: C_9  and  C_11
REMARK   11  A    between atoms: C_12  and  C_13
REMARK                            x       y       z     vdW  Elec       q    Type
REMARK                         _______ _______ _______ _____ _____    ______ ____
ROOT
ATOM      1  C   UNL     1      17.138  -6.225  -4.081  0.00  0.00    +0.000 C 
ATOM      2  H   UNL     1      16.467  -6.155  -4.945  0.00  0.00    +0.000 HD
ATOM      3  H   UNL     1      16.842  -7.112  -3.510  0.00  0.00    +0.000 HD
ENDROOT
BRANCH   1   4
ATOM      4  C   UNL     1      16.978  -4.975  -3.210  0.00  0.00    +0.000 C 
ATOM      5  H   UNL     1      17.873  -4.850  -2.588  0.00  0.00    +0.000 HD
ATOM      6  H   UNL     1      16.917  -4.091  -3.856  0.00  0.00    +0.000 HD
BRANCH   4   7
ATOM      7  C   UNL     1      15.743  -5.017  -2.306  0.00  0.00    +0.000 C 
ATOM      8  H   UNL     1      14.933  -4.453  -2.788  0.00  0.00    +0.000 HD
ATOM      9  H   UNL     1      15.969  -4.502  -1.363  0.00  0.00    +0.000 HD
BRANCH   7  10
ATOM     10  C   UNL     1      15.260  -6.436  -2.000  0.00  0.00    +0.000 C 
ATOM     11  H   UNL     1      15.812  -7.154  -2.619  0.00  0.00    +0.000 HD
ATOM     12  H   UNL     1      14.200  -6.526  -2.269  0.00  0.00    +0.000 HD
BRANCH  10  13
ATOM     13  C   UNL     1      15.444  -6.778  -0.521  0.00  0.00    +0.000 C 
ATOM     14  H   UNL     1      14.535  -7.251  -0.133  0.00  0.00    +0.000 HD
ATOM     15  H   UNL     1      16.262  -7.497  -0.404  0.00  0.00    +0.000 HD
BRANCH  13  16
ATOM     16  C   UNL     1      15.753  -5.537   0.303  0.00  0.00    +0.000 C 
ATOM     17  H   UNL     1      16.241  -5.804   1.246  0.00  0.00    +0.000 HD
ATOM     18  H   UNL     1      14.838  -4.982   0.534  0.00  0.00    +0.000 HD
ATOM     19  H   UNL     1      16.423  -4.872  -0.251  0.00  0.00    +0.000 HD
ENDBRANCH  13  16
ENDBRANCH  10  13
ENDBRANCH   7  10
ENDBRANCH   4   7
ENDBRANCH   1   4
BRANCH   1  20
ATOM     20  C   UNL     1      18.584  -6.381  -4.563  0.00  0.00    +0.000 C 
ATOM     21  H   UNL     1      18.808  -5.601  -5.302  0.00  0.00    +0.000 HD
ATOM     22  H   UNL     1      18.695  -7.342  -5.081  0.00  0.00    +0.000 HD
BRANCH  20  23
ATOM     23  C   UNL     1      19.591  -6.303  -3.419  0.00  0.00    +0.000 C 
ATOM     24  H   UNL     1      19.065  -6.127  -2.475  0.00  0.00    +0.000 HD
ATOM     25  H   UNL     1      20.139  -7.249  -3.349  0.00  0.00    +0.000 HD
BRANCH  23  27
ATOM     26  O   UNL     1      20.312  -4.087  -4.048  0.00  0.00    +0.000 OA
ATOM     27  C   UNL     1      20.596  -5.194  -3.608  0.00  0.00    +0.000 C 
BRANCH  27  28
ATOM     28  O   UNL     1      21.835  -5.613  -3.223  0.00  0.00    +0.000 OA
BRANCH  28  29
ATOM     29  C   UNL     1      22.864  -5.486  -4.210  0.00  0.00    +0.000 C 
ATOM     30  H   UNL     1      23.808  -5.222  -3.722  0.00  0.00    +0.000 HD
ATOM     31  H   UNL     1      22.590  -4.700  -4.923  0.00  0.00    +0.000 HD
BRANCH  29  32
ATOM     32  C   UNL     1      23.015  -6.805  -4.937  0.00  0.00    +0.000 C 
ATOM     33  H   UNL     1      22.085  -7.081  -5.443  0.00  0.00    +0.000 HD
ATOM     34  H   UNL     1      23.819  -6.747  -5.677  0.00  0.00    +0.000 HD
ATOM     35  H   UNL     1      23.285  -7.603  -4.236  0.00  0.00    +0.000 HD
ENDBRANCH  29  32
ENDBRANCH  28  29
ENDBRANCH  27  28
ENDBRANCH  23  27
ENDBRANCH  20  23
ENDBRANCH   1  20
TORSDOF 11
ENDMDL
MODEL 9
REMARK VINA RESULT:    -4.240     13.959     14.973
REMARK INTER + INTRA:          -7.300
REMARK INTER:                  -6.719
REMARK INTRA:                  -0.580
REMARK UNBOUND:                -0.580
REMARK  Name = 31251
REMARK  11 active torsions:
REMARK  status: ('A' for Active; 'I' for Inactive)
REMARK    1  A    between atoms: O_1  and  C_11
REMARK    2  A    between atoms: O_1  and  C_12
REMARK    3  A    between atoms: C_3  and  C_4
REMARK    4  A    between atoms: C_3  and  C_5
REMARK    5  A    between atoms: C_4  and  C_6
REMARK    6  A    between atoms: C_5  and  C_7
REMARK    7  A    between atoms: C_6  and  C_8
REMARK    8  A    between atoms: C_7  and  C_9
REMARK    9  A    between atoms: C_8  and  C_10
REMARK   10  A    between atoms: C_9  and  C_11
REMARK   11  A    between atoms: C_12  and  C_13
REMARK                            x       y       z     vdW  Elec       q    Type
REMARK                         _______ _______ _______ _____ _____    ______ ____
ROOT
ATOM      1  C   UNL     1       4.769   5.013 -19.615  0.00  0.00    +0.000 C 
ATOM      2  H   UNL     1       4.257   4.099 -19.293  0.00  0.00    +0.000 HD
ATOM      3  H   UNL     1       5.557   4.715 -20.315  0.00  0.00    +0.000 HD
ENDROOT
BRANCH   1   4
ATOM      4  C   UNL     1       5.394   5.703 -18.400  0.00  0.00    +0.000 C 
ATOM      5  H   UNL     1       5.955   6.585 -18.732  0.00  0.00    +0.000 HD
ATOM      6  H   UNL     1       4.596   6.067 -17.741  0.00  0.00    +0.000 HD
BRANCH   4   7
ATOM      7  C   UNL     1       6.326   4.792 -17.595  0.00  0.00    +0.000 C 
ATOM      8  H   UNL     1       5.796   4.451 -16.696  0.00  0.00    +0.000 HD
ATOM      9  H   UNL     1       7.190   5.375 -17.250  0.00  0.00    +0.000 HD
BRANCH   7  10
ATOM     10  C   UNL     1       6.820   3.578 -18.383  0.00  0.00    +0.000 C 
ATOM     11  H   UNL     1       6.261   3.498 -19.324  0.00  0.00    +0.000 HD
ATOM     12  H   UNL     1       6.620   2.665 -17.810  0.00  0.00    +0.000 HD
BRANCH  10  13
ATOM     13  C   UNL     1       8.317   3.680 -18.677  0.00  0.00    +0.000 C 
ATOM     14  H   UNL     1       8.829   4.166 -17.838  0.00  0.00    +0.000 HD
ATOM     15  H   UNL     1       8.746   2.677 -18.782  0.00  0.00    +0.000 HD
BRANCH  13  16
ATOM     16  C   UNL     1       8.583   4.469 -19.950  0.00  0.00    +0.000 C 
ATOM     17  H   UNL     1       8.922   5.484 -19.719  0.00  0.00    +0.000 HD
ATOM     18  H   UNL     1       7.680   4.539 -20.564  0.00  0.00    +0.000 HD
ATOM     19  H   UNL     1       9.361   3.978 -20.544  0.00  0.00    +0.000 HD
ENDBRANCH  13  16
ENDBRANCH  10  13
ENDBRANCH   7  10
ENDBRANCH   4   7
ENDBRANCH   1   4
BRANCH   1  20
ATOM     20  C   UNL     1       3.773   5.937 -20.323  0.00  0.00    +0.000 C 
ATOM     21  H   UNL     1       3.449   5.473 -21.263  0.00  0.00    +0.000 HD
ATOM     22  H   UNL     1       4.274   6.875 -20.595  0.00  0.00    +0.000 HD
BRANCH  20  23
ATOM     23  C   UNL     1       2.552   6.248 -19.461  0.00  0.00    +0.000 C 
ATOM     24  H   UNL     1       2.695   5.836 -18.456  0.00  0.00    +0.000 HD
ATOM     25  H   UNL     1       2.424   7.334 -19.385  0.00  0.00    +0.000 HD
BRANCH  23  27
ATOM     26  O   UNL     1       0.526   6.279 -20.774  0.00  0.00    +0.000 OA
ATOM     27  C   UNL     1       1.280   5.666 -20.028  0.00  0.00    +0.000 C 
BRANCH  27  28
ATOM     28  O   UNL     1       1.112   4.387 -19.586  0.00  0.00    +0.000 OA
BRANCH  28  29
ATOM     29  C   UNL     1       0.944   3.399 -20.608  0.00  0.00    +0.000 C 
ATOM     30  H   UNL     1       1.651   2.579 -20.443  0.00  0.00    +0.000 HD
ATOM     31  H   UNL     1       1.133   3.852 -21.588  0.00  0.00    +0.000 HD
BRANCH  29  32
ATOM     32  C   UNL     1      -0.474   2.871 -20.553  0.00  0.00    +0.000 C 
ATOM     33  H   UNL     1      -0.747   2.387 -21.496  0.00  0.00    +0.000 HD
ATOM     34  H   UNL     1      -0.585   2.148 -19.739  0.00  0.00    +0.000 HD
ATOM     35  H   UNL     1      -1.181   3.684 -20.356  0.00  0.00    +0.000 HD
ENDBRANCH  29  32
ENDBRANCH  28  29
ENDBRANCH  27  28
ENDBRANCH  23  27
ENDBRANCH  20  23
ENDBRANCH   1  20
TORSDOF 11
ENDMDL
MODEL 10
REMARK VINA RESULT:    -4.225     13.966     15.079
REMARK INTER + INTRA:          -7.276
REMARK INTER:                  -6.550
REMARK INTRA:                  -0.726
REMARK UNBOUND:                -0.580
REMARK  Name = 31251
REMARK  11 active torsions:
REMARK  status: ('A' for Active; 'I' for Inactive)
REMARK    1  A    between atoms: O_1  and  C_11
REMARK    2  A    between atoms: O_1  and  C_12
REMARK    3  A    between atoms: C_3  and  C_4
REMARK    4  A    between atoms: C_3  and  C_5
REMARK    5  A    between atoms: C_4  and  C_6
REMARK    6  A    between atoms: C_5  and  C_7
REMARK    7  A    between atoms: C_6  and  C_8
REMARK    8  A    between atoms: C_7  and  C_9
REMARK    9  A    between atoms: C_8  and  C_10
REMARK   10  A    between atoms: C_9  and  C_11
REMARK   11  A    between atoms: C_12  and  C_13
REMARK                            x       y       z     vdW  Elec       q    Type
REMARK                         _______ _______ _______ _____ _____    ______ ____
ROOT
ATOM      1  C   UNL     1       4.215   3.789 -20.262  0.00  0.00    +0.000 C 
ATOM      2  H   UNL     1       3.567   3.116 -19.688  0.00  0.00    +0.000 HD
ATOM      3  H   UNL     1       5.236   3.395 -20.193  0.00  0.00    +0.000 HD
ENDROOT
BRANCH   1   4
ATOM      4  C   UNL     1       4.162   5.192 -19.652  0.00  0.00    +0.000 C 
ATOM      5  H   UNL     1       3.753   5.893 -20.390  0.00  0.00    +0.000 HD
ATOM      6  H   UNL     1       3.470   5.190 -18.801  0.00  0.00    +0.000 HD
BRANCH   4   7
ATOM      7  C   UNL     1       5.526   5.703 -19.180  0.00  0.00    +0.000 C 
ATOM      8  H   UNL     1       5.442   6.773 -18.948  0.00  0.00    +0.000 HD
ATOM      9  H   UNL     1       6.249   5.614 -20.002  0.00  0.00    +0.000 HD
BRANCH   7  10
ATOM     10  C   UNL     1       6.065   4.961 -17.956  0.00  0.00    +0.000 C 
ATOM     11  H   UNL     1       5.454   4.069 -17.769  0.00  0.00    +0.000 HD
ATOM     12  H   UNL     1       5.976   5.604 -17.071  0.00  0.00    +0.000 HD
BRANCH  10  13
ATOM     13  C   UNL     1       7.527   4.557 -18.150  0.00  0.00    +0.000 C 
ATOM     14  H   UNL     1       7.976   5.159 -18.949  0.00  0.00    +0.000 HD
ATOM     15  H   UNL     1       8.094   4.756 -17.234  0.00  0.00    +0.000 HD
BRANCH  13  16
ATOM     16  C   UNL     1       7.655   3.083 -18.503  0.00  0.00    +0.000 C 
ATOM     17  H   UNL     1       7.490   2.919 -19.573  0.00  0.00    +0.000 HD
ATOM     18  H   UNL     1       6.929   2.482 -17.946  0.00  0.00    +0.000 HD
ATOM     19  H   UNL     1       8.658   2.720 -18.255  0.00  0.00    +0.000 HD
ENDBRANCH  13  16
ENDBRANCH  10  13
ENDBRANCH   7  10
ENDBRANCH   4   7
ENDBRANCH   1   4
BRANCH   1  20
ATOM     20  C   UNL     1       3.768   3.807 -21.728  0.00  0.00    +0.000 C 
ATOM     21  H   UNL     1       4.639   3.983 -22.373  0.00  0.00    +0.000 HD
ATOM     22  H   UNL     1       3.084   4.650 -21.890  0.00  0.00    +0.000 HD
BRANCH  20  23
ATOM     23  C   UNL     1       3.081   2.509 -22.143  0.00  0.00    +0.000 C 
ATOM     24  H   UNL     1       3.505   2.153 -23.088  0.00  0.00    +0.000 HD
ATOM     25  H   UNL     1       3.241   1.747 -21.372  0.00  0.00    +0.000 HD
BRANCH  23  27
ATOM     26  O   UNL     1       0.880   1.848 -22.883  0.00  0.00    +0.000 OA
ATOM     27  C   UNL     1       1.594   2.677 -22.332  0.00  0.00    +0.000 C 
BRANCH  27  28
ATOM     28  O   UNL     1       1.186   3.867 -21.806  0.00  0.00    +0.000 OA
BRANCH  28  29
ATOM     29  C   UNL     1       0.030   3.806 -20.964  0.00  0.00    +0.000 C 
ATOM     30  H   UNL     1      -0.703   3.118 -21.400  0.00  0.00    +0.000 HD
ATOM     31  H   UNL     1      -0.413   4.804 -20.879  0.00  0.00    +0.000 HD
BRANCH  29  32
ATOM     32  C   UNL     1       0.444   3.311 -19.595  0.00  0.00    +0.000 C 
ATOM     33  H   UNL     1       0.277   4.080 -18.834  0.00  0.00    +0.000 HD
ATOM     34  H   UNL     1      -0.120   2.414 -19.322  0.00  0.00    +0.000 HD
ATOM     35  H   UNL     1       1.504   3.033 -19.589  0.00  0.00    +0.000 HD
ENDBRANCH  29  32
ENDBRANCH  28  29
ENDBRANCH  27  28
ENDBRANCH  23  27
ENDBRANCH  20  23
ENDBRANCH   1  20
TORSDOF 11
ENDMDL
