MODEL 1
REMARK VINA RESULT:    -3.935      0.000      0.000
REMARK INTER + INTRA:          -5.723
REMARK INTER:                  -5.268
REMARK INTRA:                  -0.455
REMARK UNBOUND:                -0.178
REMARK  Name = 31265
REMARK  8 active torsions:
REMARK  status: ('A' for Active; 'I' for Inactive)
REMARK    1  A    between atoms: O_1  and  C_8
REMARK    2  A    between atoms: O_1  and  C_9
REMARK    3  A    between atoms: C_3  and  C_4
REMARK    4  A    between atoms: C_3  and  C_5
REMARK    5  A    between atoms: C_4  and  C_6
REMARK    6  A    between atoms: C_5  and  C_7
REMARK    7  A    between atoms: C_6  and  C_8
REMARK    8  A    between atoms: C_9  and  C_10
REMARK                            x       y       z     vdW  Elec       q    Type
REMARK                         _______ _______ _______ _____ _____    ______ ____
ROOT
ATOM      1  C   UNL     1      -3.739   4.311  24.754  0.00  0.00    +0.000 C 
ATOM      2  H   UNL     1      -3.595   3.562  23.965  0.00  0.00    +0.000 HD
ATOM      3  H   UNL     1      -3.470   3.823  25.699  0.00  0.00    +0.000 HD
ENDROOT
BRANCH   1   4
ATOM      4  C   UNL     1      -2.807   5.501  24.510  0.00  0.00    +0.000 C 
ATOM      5  H   UNL     1      -3.380   6.341  24.100  0.00  0.00    +0.000 HD
ATOM      6  H   UNL     1      -2.053   5.227  23.762  0.00  0.00    +0.000 HD
BRANCH   4   7
ATOM      7  C   UNL     1      -2.112   5.931  25.802  0.00  0.00    +0.000 C 
ATOM      8  H   UNL     1      -2.842   5.979  26.619  0.00  0.00    +0.000 HD
ATOM      9  H   UNL     1      -1.355   5.190  26.085  0.00  0.00    +0.000 HD
BRANCH   7  10
ATOM     10  C   UNL     1      -1.444   7.288  25.650  0.00  0.00    +0.000 C 
ATOM     11  H   UNL     1      -0.858   7.540  26.541  0.00  0.00    +0.000 HD
ATOM     12  H   UNL     1      -0.774   7.301  24.784  0.00  0.00    +0.000 HD
ATOM     13  H   UNL     1      -2.198   8.069  25.508  0.00  0.00    +0.000 HD
ENDBRANCH   7  10
ENDBRANCH   4   7
ENDBRANCH   1   4
BRANCH   1  14
ATOM     14  C   UNL     1      -5.212   4.721  24.796  0.00  0.00    +0.000 C 
ATOM     15  H   UNL     1      -5.327   5.719  24.359  0.00  0.00    +0.000 HD
ATOM     16  H   UNL     1      -5.802   4.008  24.208  0.00  0.00    +0.000 HD
BRANCH  14  18
ATOM     17  O   UNL     1      -6.675   5.501  26.574  0.00  0.00    +0.000 OA
ATOM     18  C   UNL     1      -5.780   4.758  26.196  0.00  0.00    +0.000 C 
BRANCH  18  19
ATOM     19  O   UNL     1      -5.111   3.854  26.972  0.00  0.00    +0.000 OA
BRANCH  19  20
ATOM     20  C   UNL     1      -5.191   4.074  28.384  0.00  0.00    +0.000 C 
ATOM     21  H   UNL     1      -6.133   4.581  28.622  0.00  0.00    +0.000 HD
ATOM     22  H   UNL     1      -5.154   3.112  28.906  0.00  0.00    +0.000 HD
BRANCH  20  23
ATOM     23  C   UNL     1      -4.024   4.935  28.816  0.00  0.00    +0.000 C 
ATOM     24  H   UNL     1      -3.782   5.678  28.051  0.00  0.00    +0.000 HD
ATOM     25  H   UNL     1      -4.255   5.455  29.752  0.00  0.00    +0.000 HD
ATOM     26  H   UNL     1      -3.138   4.320  29.005  0.00  0.00    +0.000 HD
ENDBRANCH  20  23
ENDBRANCH  19  20
ENDBRANCH  18  19
ENDBRANCH  14  18
ENDBRANCH   1  14
TORSDOF 8
ENDMDL
MODEL 2
REMARK VINA RESULT:    -3.916      2.374      4.714
REMARK INTER + INTRA:          -5.696
REMARK INTER:                  -5.381
REMARK INTRA:                  -0.315
REMARK UNBOUND:                -0.178
REMARK  Name = 31265
REMARK  8 active torsions:
REMARK  status: ('A' for Active; 'I' for Inactive)
REMARK    1  A    between atoms: O_1  and  C_8
REMARK    2  A    between atoms: O_1  and  C_9
REMARK    3  A    between atoms: C_3  and  C_4
REMARK    4  A    between atoms: C_3  and  C_5
REMARK    5  A    between atoms: C_4  and  C_6
REMARK    6  A    between atoms: C_5  and  C_7
REMARK    7  A    between atoms: C_6  and  C_8
REMARK    8  A    between atoms: C_9  and  C_10
REMARK                            x       y       z     vdW  Elec       q    Type
REMARK                         _______ _______ _______ _____ _____    ______ ____
ROOT
ATOM      1  C   UNL     1      -3.925   4.137  25.011  0.00  0.00    +0.000 C 
ATOM      2  H   UNL     1      -3.624   4.004  26.058  0.00  0.00    +0.000 HD
ATOM      3  H   UNL     1      -3.743   3.179  24.510  0.00  0.00    +0.000 HD
ENDROOT
BRANCH   1   4
ATOM      4  C   UNL     1      -5.418   4.472  24.944  0.00  0.00    +0.000 C 
ATOM      5  H   UNL     1      -5.989   3.566  24.707  0.00  0.00    +0.000 HD
ATOM      6  H   UNL     1      -5.595   5.189  24.133  0.00  0.00    +0.000 HD
BRANCH   4   7
ATOM      7  C   UNL     1      -5.911   5.063  26.265  0.00  0.00    +0.000 C 
ATOM      8  H   UNL     1      -5.424   6.028  26.446  0.00  0.00    +0.000 HD
ATOM      9  H   UNL     1      -6.990   5.249  26.213  0.00  0.00    +0.000 HD
BRANCH   7  10
ATOM     10  C   UNL     1      -5.625   4.132  27.433  0.00  0.00    +0.000 C 
ATOM     11  H   UNL     1      -6.409   4.207  28.195  0.00  0.00    +0.000 HD
ATOM     12  H   UNL     1      -5.568   3.091  27.100  0.00  0.00    +0.000 HD
ATOM     13  H   UNL     1      -4.671   4.393  27.901  0.00  0.00    +0.000 HD
ENDBRANCH   7  10
ENDBRANCH   4   7
ENDBRANCH   1   4
BRANCH   1  14
ATOM     14  C   UNL     1      -3.054   5.218  24.371  0.00  0.00    +0.000 C 
ATOM     15  H   UNL     1      -2.374   4.759  23.645  0.00  0.00    +0.000 HD
ATOM     16  H   UNL     1      -3.697   5.936  23.847  0.00  0.00    +0.000 HD
BRANCH  14  18
ATOM     17  O   UNL     1      -2.358   5.938  26.587  0.00  0.00    +0.000 OA
ATOM     18  C   UNL     1      -2.218   5.982  25.373  0.00  0.00    +0.000 C 
BRANCH  18  19
ATOM     19  O   UNL     1      -1.309   6.749  24.700  0.00  0.00    +0.000 OA
BRANCH  19  20
ATOM     20  C   UNL     1      -1.318   6.610  23.276  0.00  0.00    +0.000 C 
ATOM     21  H   UNL     1      -0.372   6.165  22.946  0.00  0.00    +0.000 HD
ATOM     22  H   UNL     1      -2.148   5.961  22.977  0.00  0.00    +0.000 HD
BRANCH  20  23
ATOM     23  C   UNL     1      -1.486   7.976  22.648  0.00  0.00    +0.000 C 
ATOM     24  H   UNL     1      -1.122   7.981  21.617  0.00  0.00    +0.000 HD
ATOM     25  H   UNL     1      -2.539   8.276  22.651  0.00  0.00    +0.000 HD
ATOM     26  H   UNL     1      -0.939   8.734  23.219  0.00  0.00    +0.000 HD
ENDBRANCH  20  23
ENDBRANCH  19  20
ENDBRANCH  18  19
ENDBRANCH  14  18
ENDBRANCH   1  14
TORSDOF 8
ENDMDL
MODEL 3
REMARK VINA RESULT:    -3.858     28.445     29.968
REMARK INTER + INTRA:          -5.615
REMARK INTER:                  -5.346
REMARK INTRA:                  -0.268
REMARK UNBOUND:                -0.178
REMARK  Name = 31265
REMARK  8 active torsions:
REMARK  status: ('A' for Active; 'I' for Inactive)
REMARK    1  A    between atoms: O_1  and  C_8
REMARK    2  A    between atoms: O_1  and  C_9
REMARK    3  A    between atoms: C_3  and  C_4
REMARK    4  A    between atoms: C_3  and  C_5
REMARK    5  A    between atoms: C_4  and  C_6
REMARK    6  A    between atoms: C_5  and  C_7
REMARK    7  A    between atoms: C_6  and  C_8
REMARK    8  A    between atoms: C_9  and  C_10
REMARK                            x       y       z     vdW  Elec       q    Type
REMARK                         _______ _______ _______ _____ _____    ______ ____
ROOT
ATOM      1  C   UNL     1      -7.579 -14.510   4.768  0.00  0.00    +0.000 C 
ATOM      2  H   UNL     1      -6.612 -15.026   4.739  0.00  0.00    +0.000 HD
ATOM      3  H   UNL     1      -8.323 -15.224   4.392  0.00  0.00    +0.000 HD
ENDROOT
BRANCH   1   4
ATOM      4  C   UNL     1      -7.920 -14.133   6.213  0.00  0.00    +0.000 C 
ATOM      5  H   UNL     1      -8.763 -13.432   6.222  0.00  0.00    +0.000 HD
ATOM      6  H   UNL     1      -7.064 -13.617   6.666  0.00  0.00    +0.000 HD
BRANCH   4   7
ATOM      7  C   UNL     1      -8.268 -15.371   7.039  0.00  0.00    +0.000 C 
ATOM      8  H   UNL     1      -7.349 -15.843   7.407  0.00  0.00    +0.000 HD
ATOM      9  H   UNL     1      -8.858 -15.082   7.916  0.00  0.00    +0.000 HD
BRANCH   7  10
ATOM     10  C   UNL     1      -9.056 -16.382   6.222  0.00  0.00    +0.000 C 
ATOM     11  H   UNL     1      -9.160 -16.052   5.184  0.00  0.00    +0.000 HD
ATOM     12  H   UNL     1      -8.563 -17.359   6.224  0.00  0.00    +0.000 HD
ATOM     13  H   UNL     1     -10.060 -16.507   6.640  0.00  0.00    +0.000 HD
ENDBRANCH   7  10
ENDBRANCH   4   7
ENDBRANCH   1   4
BRANCH   1  14
ATOM     14  C   UNL     1      -7.530 -13.294   3.843  0.00  0.00    +0.000 C 
ATOM     15  H   UNL     1      -8.186 -13.461   2.981  0.00  0.00    +0.000 HD
ATOM     16  H   UNL     1      -7.881 -12.410   4.389  0.00  0.00    +0.000 HD
BRANCH  14  18
ATOM     17  O   UNL     1      -5.317 -12.285   3.870  0.00  0.00    +0.000 OA
ATOM     18  C   UNL     1      -6.142 -13.000   3.318  0.00  0.00    +0.000 C 
BRANCH  18  19
ATOM     19  O   UNL     1      -5.977 -13.633   2.119  0.00  0.00    +0.000 OA
BRANCH  19  20
ATOM     20  C   UNL     1      -7.063 -13.501   1.197  0.00  0.00    +0.000 C 
ATOM     21  H   UNL     1      -8.008 -13.456   1.750  0.00  0.00    +0.000 HD
ATOM     22  H   UNL     1      -6.939 -12.582   0.614  0.00  0.00    +0.000 HD
BRANCH  20  23
ATOM     23  C   UNL     1      -7.071 -14.698   0.270  0.00  0.00    +0.000 C 
ATOM     24  H   UNL     1      -6.085 -14.854  -0.175  0.00  0.00    +0.000 HD
ATOM     25  H   UNL     1      -7.361 -15.604   0.813  0.00  0.00    +0.000 HD
ATOM     26  H   UNL     1      -7.804 -14.560  -0.532  0.00  0.00    +0.000 HD
ENDBRANCH  20  23
ENDBRANCH  19  20
ENDBRANCH  18  19
ENDBRANCH  14  18
ENDBRANCH   1  14
TORSDOF 8
ENDMDL
MODEL 4
REMARK VINA RESULT:    -3.820     42.117     43.139
REMARK INTER + INTRA:          -5.562
REMARK INTER:                  -5.246
REMARK INTRA:                  -0.316
REMARK UNBOUND:                -0.178
REMARK  Name = 31265
REMARK  8 active torsions:
REMARK  status: ('A' for Active; 'I' for Inactive)
REMARK    1  A    between atoms: O_1  and  C_8
REMARK    2  A    between atoms: O_1  and  C_9
REMARK    3  A    between atoms: C_3  and  C_4
REMARK    4  A    between atoms: C_3  and  C_5
REMARK    5  A    between atoms: C_4  and  C_6
REMARK    6  A    between atoms: C_5  and  C_7
REMARK    7  A    between atoms: C_6  and  C_8
REMARK    8  A    between atoms: C_9  and  C_10
REMARK                            x       y       z     vdW  Elec       q    Type
REMARK                         _______ _______ _______ _____ _____    ______ ____
ROOT
ATOM      1  C   UNL     1      12.697  18.265 -10.756  0.00  0.00    +0.000 C 
ATOM      2  H   UNL     1      12.184  18.076  -9.805  0.00  0.00    +0.000 HD
ATOM      3  H   UNL     1      13.768  18.317 -10.527  0.00  0.00    +0.000 HD
ENDROOT
BRANCH   1   4
ATOM      4  C   UNL     1      12.438  17.103 -11.720  0.00  0.00    +0.000 C 
ATOM      5  H   UNL     1      12.063  17.492 -12.675  0.00  0.00    +0.000 HD
ATOM      6  H   UNL     1      11.658  16.452 -11.306  0.00  0.00    +0.000 HD
BRANCH   4   7
ATOM      7  C   UNL     1      13.710  16.289 -11.958  0.00  0.00    +0.000 C 
ATOM      8  H   UNL     1      14.082  15.893 -11.006  0.00  0.00    +0.000 HD
ATOM      9  H   UNL     1      13.490  15.431 -12.603  0.00  0.00    +0.000 HD
BRANCH   7  10
ATOM     10  C   UNL     1      14.797  17.131 -12.607  0.00  0.00    +0.000 C 
ATOM     11  H   UNL     1      15.019  16.773 -13.618  0.00  0.00    +0.000 HD
ATOM     12  H   UNL     1      14.493  18.181 -12.673  0.00  0.00    +0.000 HD
ATOM     13  H   UNL     1      15.719  17.080 -12.019  0.00  0.00    +0.000 HD
ENDBRANCH   7  10
ENDBRANCH   4   7
ENDBRANCH   1   4
BRANCH   1  14
ATOM     14  C   UNL     1      12.232  19.607 -11.321  0.00  0.00    +0.000 C 
ATOM     15  H   UNL     1      12.649  20.423 -10.720  0.00  0.00    +0.000 HD
ATOM     16  H   UNL     1      12.590  19.708 -12.352  0.00  0.00    +0.000 HD
BRANCH  14  18
ATOM     17  O   UNL     1      10.014  19.646 -12.318  0.00  0.00    +0.000 OA
ATOM     18  C   UNL     1      10.727  19.761 -11.331  0.00  0.00    +0.000 C 
BRANCH  18  19
ATOM     19  O   UNL     1      10.305  20.081 -10.072  0.00  0.00    +0.000 OA
BRANCH  19  20
ATOM     20  C   UNL     1      10.694  21.375  -9.601  0.00  0.00    +0.000 C 
ATOM     21  H   UNL     1      10.756  21.362  -8.507  0.00  0.00    +0.000 HD
ATOM     22  H   UNL     1      11.672  21.638 -10.018  0.00  0.00    +0.000 HD
BRANCH  20  23
ATOM     23  C   UNL     1       9.662  22.391 -10.041  0.00  0.00    +0.000 C 
ATOM     24  H   UNL     1       8.664  22.113  -9.690  0.00  0.00    +0.000 HD
ATOM     25  H   UNL     1       9.909  23.385  -9.652  0.00  0.00    +0.000 HD
ATOM     26  H   UNL     1       9.642  22.473 -11.133  0.00  0.00    +0.000 HD
ENDBRANCH  20  23
ENDBRANCH  19  20
ENDBRANCH  18  19
ENDBRANCH  14  18
ENDBRANCH   1  14
TORSDOF 8
ENDMDL
MODEL 5
REMARK VINA RESULT:    -3.723      1.444      2.162
REMARK INTER + INTRA:          -5.425
REMARK INTER:                  -5.215
REMARK INTRA:                  -0.210
REMARK UNBOUND:                -0.178
REMARK  Name = 31265
REMARK  8 active torsions:
REMARK  status: ('A' for Active; 'I' for Inactive)
REMARK    1  A    between atoms: O_1  and  C_8
REMARK    2  A    between atoms: O_1  and  C_9
REMARK    3  A    between atoms: C_3  and  C_4
REMARK    4  A    between atoms: C_3  and  C_5
REMARK    5  A    between atoms: C_4  and  C_6
REMARK    6  A    between atoms: C_5  and  C_7
REMARK    7  A    between atoms: C_6  and  C_8
REMARK    8  A    between atoms: C_9  and  C_10
REMARK                            x       y       z     vdW  Elec       q    Type
REMARK                         _______ _______ _______ _____ _____    ______ ____
ROOT
ATOM      1  C   UNL     1      -3.192   5.455  24.543  0.00  0.00    +0.000 C 
ATOM      2  H   UNL     1      -3.985   6.213  24.543  0.00  0.00    +0.000 HD
ATOM      3  H   UNL     1      -2.864   5.349  23.501  0.00  0.00    +0.000 HD
ENDROOT
BRANCH   1   4
ATOM      4  C   UNL     1      -2.019   5.937  25.401  0.00  0.00    +0.000 C 
ATOM      5  H   UNL     1      -1.474   5.073  25.801  0.00  0.00    +0.000 HD
ATOM      6  H   UNL     1      -2.403   6.504  26.258  0.00  0.00    +0.000 HD
BRANCH   4   7
ATOM      7  C   UNL     1      -1.067   6.817  24.591  0.00  0.00    +0.000 C 
ATOM      8  H   UNL     1      -1.211   7.869  24.862  0.00  0.00    +0.000 HD
ATOM      9  H   UNL     1      -0.028   6.560  24.826  0.00  0.00    +0.000 HD
BRANCH   7  10
ATOM     10  C   UNL     1      -1.292   6.652  23.096  0.00  0.00    +0.000 C 
ATOM     11  H   UNL     1      -1.356   7.626  22.599  0.00  0.00    +0.000 HD
ATOM     12  H   UNL     1      -0.476   6.085  22.637  0.00  0.00    +0.000 HD
ATOM     13  H   UNL     1      -2.227   6.114  22.911  0.00  0.00    +0.000 HD
ENDBRANCH   7  10
ENDBRANCH   4   7
ENDBRANCH   1   4
BRANCH   1  14
ATOM     14  C   UNL     1      -3.766   4.125  25.031  0.00  0.00    +0.000 C 
ATOM     15  H   UNL     1      -4.676   3.889  24.469  0.00  0.00    +0.000 HD
ATOM     16  H   UNL     1      -3.030   3.330  24.862  0.00  0.00    +0.000 HD
BRANCH  14  18
ATOM     17  O   UNL     1      -3.702   3.335  27.330  0.00  0.00    +0.000 OA
ATOM     18  C   UNL     1      -4.118   4.132  26.502  0.00  0.00    +0.000 C 
BRANCH  18  19
ATOM     19  O   UNL     1      -4.998   5.149  26.743  0.00  0.00    +0.000 OA
BRANCH  19  20
ATOM     20  C   UNL     1      -6.319   4.746  27.119  0.00  0.00    +0.000 C 
ATOM     21  H   UNL     1      -7.000   4.891  26.273  0.00  0.00    +0.000 HD
ATOM     22  H   UNL     1      -6.312   3.688  27.402  0.00  0.00    +0.000 HD
BRANCH  20  23
ATOM     23  C   UNL     1      -6.776   5.586  28.292  0.00  0.00    +0.000 C 
ATOM     24  H   UNL     1      -7.174   4.957  29.092  0.00  0.00    +0.000 HD
ATOM     25  H   UNL     1      -5.945   6.179  28.689  0.00  0.00    +0.000 HD
ATOM     26  H   UNL     1      -7.551   6.295  27.981  0.00  0.00    +0.000 HD
ENDBRANCH  20  23
ENDBRANCH  19  20
ENDBRANCH  18  19
ENDBRANCH  14  18
ENDBRANCH   1  14
TORSDOF 8
ENDMDL
MODEL 6
REMARK VINA RESULT:    -3.678     33.256     34.184
REMARK INTER + INTRA:          -5.361
REMARK INTER:                  -4.903
REMARK INTRA:                  -0.458
REMARK UNBOUND:                -0.178
REMARK  Name = 31265
REMARK  8 active torsions:
REMARK  status: ('A' for Active; 'I' for Inactive)
REMARK    1  A    between atoms: O_1  and  C_8
REMARK    2  A    between atoms: O_1  and  C_9
REMARK    3  A    between atoms: C_3  and  C_4
REMARK    4  A    between atoms: C_3  and  C_5
REMARK    5  A    between atoms: C_4  and  C_6
REMARK    6  A    between atoms: C_5  and  C_7
REMARK    7  A    between atoms: C_6  and  C_8
REMARK    8  A    between atoms: C_9  and  C_10
REMARK                            x       y       z     vdW  Elec       q    Type
REMARK                         _______ _______ _______ _____ _____    ______ ____
ROOT
ATOM      1  C   UNL     1     -16.040  -6.003  -4.448  0.00  0.00    +0.000 C 
ATOM      2  H   UNL     1     -16.896  -6.661  -4.639  0.00  0.00    +0.000 HD
ATOM      3  H   UNL     1     -16.108  -5.186  -5.177  0.00  0.00    +0.000 HD
ENDROOT
BRANCH   1   4
ATOM      4  C   UNL     1     -16.136  -5.430  -3.030  0.00  0.00    +0.000 C 
ATOM      5  H   UNL     1     -16.565  -4.422  -3.068  0.00  0.00    +0.000 HD
ATOM      6  H   UNL     1     -15.129  -5.339  -2.605  0.00  0.00    +0.000 HD
BRANCH   4   7
ATOM      7  C   UNL     1     -16.991  -6.324  -2.131  0.00  0.00    +0.000 C 
ATOM      8  H   UNL     1     -16.457  -7.257  -1.918  0.00  0.00    +0.000 HD
ATOM      9  H   UNL     1     -17.171  -5.826  -1.172  0.00  0.00    +0.000 HD
BRANCH   7  10
ATOM     10  C   UNL     1     -18.328  -6.649  -2.779  0.00  0.00    +0.000 C 
ATOM     11  H   UNL     1     -18.439  -7.728  -2.928  0.00  0.00    +0.000 HD
ATOM     12  H   UNL     1     -19.160  -6.300  -2.159  0.00  0.00    +0.000 HD
ATOM     13  H   UNL     1     -18.404  -6.162  -3.756  0.00  0.00    +0.000 HD
ENDBRANCH   7  10
ENDBRANCH   4   7
ENDBRANCH   1   4
BRANCH   1  14
ATOM     14  C   UNL     1     -14.745  -6.781  -4.677  0.00  0.00    +0.000 C 
ATOM     15  H   UNL     1     -14.669  -7.593  -3.944  0.00  0.00    +0.000 HD
ATOM     16  H   UNL     1     -14.757  -7.215  -5.684  0.00  0.00    +0.000 HD
BRANCH  14  18
ATOM     17  O   UNL     1     -12.652  -6.043  -3.682  0.00  0.00    +0.000 OA
ATOM     18  C   UNL     1     -13.504  -5.926  -4.551  0.00  0.00    +0.000 C 
BRANCH  18  19
ATOM     19  O   UNL     1     -13.510  -4.986  -5.543  0.00  0.00    +0.000 OA
BRANCH  19  20
ATOM     20  C   UNL     1     -13.203  -3.651  -5.130  0.00  0.00    +0.000 C 
ATOM     21  H   UNL     1     -12.896  -3.655  -4.079  0.00  0.00    +0.000 HD
ATOM     22  H   UNL     1     -12.388  -3.256  -5.746  0.00  0.00    +0.000 HD
BRANCH  20  23
ATOM     23  C   UNL     1     -14.435  -2.788  -5.299  0.00  0.00    +0.000 C 
ATOM     24  H   UNL     1     -15.132  -3.234  -6.012  0.00  0.00    +0.000 HD
ATOM     25  H   UNL     1     -14.948  -2.657  -4.340  0.00  0.00    +0.000 HD
ATOM     26  H   UNL     1     -14.161  -1.788  -5.651  0.00  0.00    +0.000 HD
ENDBRANCH  20  23
ENDBRANCH  19  20
ENDBRANCH  18  19
ENDBRANCH  14  18
ENDBRANCH   1  14
TORSDOF 8
ENDMDL
MODEL 7
REMARK VINA RESULT:    -3.678     42.180     43.553
REMARK INTER + INTRA:          -5.361
REMARK INTER:                  -5.110
REMARK INTRA:                  -0.251
REMARK UNBOUND:                -0.178
REMARK  Name = 31265
REMARK  8 active torsions:
REMARK  status: ('A' for Active; 'I' for Inactive)
REMARK    1  A    between atoms: O_1  and  C_8
REMARK    2  A    between atoms: O_1  and  C_9
REMARK    3  A    between atoms: C_3  and  C_4
REMARK    4  A    between atoms: C_3  and  C_5
REMARK    5  A    between atoms: C_4  and  C_6
REMARK    6  A    between atoms: C_5  and  C_7
REMARK    7  A    between atoms: C_6  and  C_8
REMARK    8  A    between atoms: C_9  and  C_10
REMARK                            x       y       z     vdW  Elec       q    Type
REMARK                         _______ _______ _______ _____ _____    ______ ____
ROOT
ATOM      1  C   UNL     1      12.697  18.571 -11.450  0.00  0.00    +0.000 C 
ATOM      2  H   UNL     1      13.766  18.787 -11.334  0.00  0.00    +0.000 HD
ATOM      3  H   UNL     1      12.354  19.153 -12.314  0.00  0.00    +0.000 HD
ENDROOT
BRANCH   1   4
ATOM      4  C   UNL     1      12.501  17.078 -11.731  0.00  0.00    +0.000 C 
ATOM      5  H   UNL     1      11.916  16.949 -12.649  0.00  0.00    +0.000 HD
ATOM      6  H   UNL     1      11.926  16.626 -10.913  0.00  0.00    +0.000 HD
BRANCH   4   7
ATOM      7  C   UNL     1      13.844  16.361 -11.868  0.00  0.00    +0.000 C 
ATOM      8  H   UNL     1      14.262  16.159 -10.875  0.00  0.00    +0.000 HD
ATOM      9  H   UNL     1      13.703  15.394 -12.365  0.00  0.00    +0.000 HD
BRANCH   7  10
ATOM     10  C   UNL     1      14.837  17.188 -12.669  0.00  0.00    +0.000 C 
ATOM     11  H   UNL     1      15.850  17.083 -12.266  0.00  0.00    +0.000 HD
ATOM     12  H   UNL     1      14.851  16.878 -13.719  0.00  0.00    +0.000 HD
ATOM     13  H   UNL     1      14.566  18.248 -12.631  0.00  0.00    +0.000 HD
ENDBRANCH   7  10
ENDBRANCH   4   7
ENDBRANCH   1   4
BRANCH   1  14
ATOM     14  C   UNL     1      11.952  19.033 -10.198  0.00  0.00    +0.000 C 
ATOM     15  H   UNL     1      11.606  18.159  -9.633  0.00  0.00    +0.000 HD
ATOM     16  H   UNL     1      12.633  19.615  -9.566  0.00  0.00    +0.000 HD
BRANCH  14  18
ATOM     17  O   UNL     1      10.162  20.600  -9.696  0.00  0.00    +0.000 OA
ATOM     18  C   UNL     1      10.747  19.893 -10.504  0.00  0.00    +0.000 C 
BRANCH  18  19
ATOM     19  O   UNL     1      10.403  19.725 -11.816  0.00  0.00    +0.000 OA
BRANCH  19  20
ATOM     20  C   UNL     1      10.161  20.930 -12.549  0.00  0.00    +0.000 C 
ATOM     21  H   UNL     1       9.127  20.935 -12.912  0.00  0.00    +0.000 HD
ATOM     22  H   UNL     1      10.321  21.794 -11.896  0.00  0.00    +0.000 HD
BRANCH  20  23
ATOM     23  C   UNL     1      11.114  20.993 -13.723  0.00  0.00    +0.000 C 
ATOM     24  H   UNL     1      10.795  20.319 -14.523  0.00  0.00    +0.000 HD
ATOM     25  H   UNL     1      11.169  22.011 -14.122  0.00  0.00    +0.000 HD
ATOM     26  H   UNL     1      12.128  20.718 -13.413  0.00  0.00    +0.000 HD
ENDBRANCH  20  23
ENDBRANCH  19  20
ENDBRANCH  18  19
ENDBRANCH  14  18
ENDBRANCH   1  14
TORSDOF 8
ENDMDL
MODEL 8
REMARK VINA RESULT:    -3.675      2.287      3.806
REMARK INTER + INTRA:          -5.357
REMARK INTER:                  -4.944
REMARK INTRA:                  -0.413
REMARK UNBOUND:                -0.178
REMARK  Name = 31265
REMARK  8 active torsions:
REMARK  status: ('A' for Active; 'I' for Inactive)
REMARK    1  A    between atoms: O_1  and  C_8
REMARK    2  A    between atoms: O_1  and  C_9
REMARK    3  A    between atoms: C_3  and  C_4
REMARK    4  A    between atoms: C_3  and  C_5
REMARK    5  A    between atoms: C_4  and  C_6
REMARK    6  A    between atoms: C_5  and  C_7
REMARK    7  A    between atoms: C_6  and  C_8
REMARK    8  A    between atoms: C_9  and  C_10
REMARK                            x       y       z     vdW  Elec       q    Type
REMARK                         _______ _______ _______ _____ _____    ______ ____
ROOT
ATOM      1  C   UNL     1      -3.798   4.272  24.986  0.00  0.00    +0.000 C 
ATOM      2  H   UNL     1      -3.594   4.094  26.049  0.00  0.00    +0.000 HD
ATOM      3  H   UNL     1      -3.526   3.349  24.459  0.00  0.00    +0.000 HD
ENDROOT
BRANCH   1   4
ATOM      4  C   UNL     1      -5.291   4.553  24.788  0.00  0.00    +0.000 C 
ATOM      5  H   UNL     1      -5.796   3.640  24.450  0.00  0.00    +0.000 HD
ATOM      6  H   UNL     1      -5.418   5.305  23.999  0.00  0.00    +0.000 HD
BRANCH   4   7
ATOM      7  C   UNL     1      -5.935   5.052  26.081  0.00  0.00    +0.000 C 
ATOM      8  H   UNL     1      -5.570   6.059  26.314  0.00  0.00    +0.000 HD
ATOM      9  H   UNL     1      -7.021   5.121  25.955  0.00  0.00    +0.000 HD
BRANCH   7  10
ATOM     10  C   UNL     1      -5.630   4.127  27.248  0.00  0.00    +0.000 C 
ATOM     11  H   UNL     1      -5.802   4.632  28.205  0.00  0.00    +0.000 HD
ATOM     12  H   UNL     1      -6.258   3.232  27.215  0.00  0.00    +0.000 HD
ATOM     13  H   UNL     1      -4.583   3.810  27.217  0.00  0.00    +0.000 HD
ENDBRANCH   7  10
ENDBRANCH   4   7
ENDBRANCH   1   4
BRANCH   1  14
ATOM     14  C   UNL     1      -2.917   5.419  24.489  0.00  0.00    +0.000 C 
ATOM     15  H   UNL     1      -2.290   5.068  23.661  0.00  0.00    +0.000 HD
ATOM     16  H   UNL     1      -3.555   6.234  24.128  0.00  0.00    +0.000 HD
BRANCH  14  18
ATOM     17  O   UNL     1      -0.937   6.536  25.351  0.00  0.00    +0.000 OA
ATOM     18  C   UNL     1      -2.004   5.976  25.558  0.00  0.00    +0.000 C 
BRANCH  18  19
ATOM     19  O   UNL     1      -2.550   5.723  26.784  0.00  0.00    +0.000 OA
BRANCH  19  20
ATOM     20  C   UNL     1      -1.676   5.917  27.901  0.00  0.00    +0.000 C 
ATOM     21  H   UNL     1      -0.837   6.555  27.601  0.00  0.00    +0.000 HD
ATOM     22  H   UNL     1      -2.226   6.400  28.716  0.00  0.00    +0.000 HD
BRANCH  20  23
ATOM     23  C   UNL     1      -1.157   4.572  28.360  0.00  0.00    +0.000 C 
ATOM     24  H   UNL     1      -1.928   3.803  28.269  0.00  0.00    +0.000 HD
ATOM     25  H   UNL     1      -0.287   4.271  27.766  0.00  0.00    +0.000 HD
ATOM     26  H   UNL     1      -0.827   4.621  29.403  0.00  0.00    +0.000 HD
ENDBRANCH  20  23
ENDBRANCH  19  20
ENDBRANCH  18  19
ENDBRANCH  14  18
ENDBRANCH   1  14
TORSDOF 8
ENDMDL
MODEL 9
REMARK VINA RESULT:    -3.626     33.335     34.123
REMARK INTER + INTRA:          -5.288
REMARK INTER:                  -5.067
REMARK INTRA:                  -0.221
REMARK UNBOUND:                -0.178
REMARK  Name = 31265
REMARK  8 active torsions:
REMARK  status: ('A' for Active; 'I' for Inactive)
REMARK    1  A    between atoms: O_1  and  C_8
REMARK    2  A    between atoms: O_1  and  C_9
REMARK    3  A    between atoms: C_3  and  C_4
REMARK    4  A    between atoms: C_3  and  C_5
REMARK    5  A    between atoms: C_4  and  C_6
REMARK    6  A    between atoms: C_5  and  C_7
REMARK    7  A    between atoms: C_6  and  C_8
REMARK    8  A    between atoms: C_9  and  C_10
REMARK                            x       y       z     vdW  Elec       q    Type
REMARK                         _______ _______ _______ _____ _____    ______ ____
ROOT
ATOM      1  C   UNL     1     -13.127  -6.026  -3.877  0.00  0.00    +0.000 C 
ATOM      2  H   UNL     1     -12.570  -6.953  -3.699  0.00  0.00    +0.000 HD
ATOM      3  H   UNL     1     -13.240  -5.538  -2.901  0.00  0.00    +0.000 HD
ENDROOT
BRANCH   1   4
ATOM      4  C   UNL     1     -12.326  -5.116  -4.814  0.00  0.00    +0.000 C 
ATOM      5  H   UNL     1     -11.330  -5.544  -4.981  0.00  0.00    +0.000 HD
ATOM      6  H   UNL     1     -12.184  -4.138  -4.337  0.00  0.00    +0.000 HD
BRANCH   4   7
ATOM      7  C   UNL     1     -13.042  -4.934  -6.152  0.00  0.00    +0.000 C 
ATOM      8  H   UNL     1     -13.545  -5.866  -6.435  0.00  0.00    +0.000 HD
ATOM      9  H   UNL     1     -13.816  -4.162  -6.060  0.00  0.00    +0.000 HD
BRANCH   7  10
ATOM     10  C   UNL     1     -12.072  -4.534  -7.253  0.00  0.00    +0.000 C 
ATOM     11  H   UNL     1     -11.469  -3.672  -6.950  0.00  0.00    +0.000 HD
ATOM     12  H   UNL     1     -11.395  -5.358  -7.497  0.00  0.00    +0.000 HD
ATOM     13  H   UNL     1     -12.620  -4.263  -8.161  0.00  0.00    +0.000 HD
ENDBRANCH   7  10
ENDBRANCH   4   7
ENDBRANCH   1   4
BRANCH   1  14
ATOM     14  C   UNL     1     -14.509  -6.367  -4.435  0.00  0.00    +0.000 C 
ATOM     15  H   UNL     1     -14.558  -6.083  -5.493  0.00  0.00    +0.000 HD
ATOM     16  H   UNL     1     -14.676  -7.448  -4.351  0.00  0.00    +0.000 HD
BRANCH  14  18
ATOM     17  O   UNL     1     -15.599  -4.510  -3.305  0.00  0.00    +0.000 OA
ATOM     18  C   UNL     1     -15.635  -5.662  -3.713  0.00  0.00    +0.000 C 
BRANCH  18  19
ATOM     19  O   UNL     1     -16.679  -6.531  -3.563  0.00  0.00    +0.000 OA
BRANCH  19  20
ATOM     20  C   UNL     1     -17.500  -6.315  -2.411  0.00  0.00    +0.000 C 
ATOM     21  H   UNL     1     -17.169  -6.972  -1.598  0.00  0.00    +0.000 HD
ATOM     22  H   UNL     1     -17.416  -5.271  -2.091  0.00  0.00    +0.000 HD
BRANCH  20  23
ATOM     23  C   UNL     1     -18.938  -6.627  -2.765  0.00  0.00    +0.000 C 
ATOM     24  H   UNL     1     -19.626  -6.161  -2.054  0.00  0.00    +0.000 HD
ATOM     25  H   UNL     1     -19.174  -6.266  -3.772  0.00  0.00    +0.000 HD
ATOM     26  H   UNL     1     -19.111  -7.708  -2.766  0.00  0.00    +0.000 HD
ENDBRANCH  20  23
ENDBRANCH  19  20
ENDBRANCH  18  19
ENDBRANCH  14  18
ENDBRANCH   1  14
TORSDOF 8
ENDMDL
MODEL 10
REMARK VINA RESULT:    -3.586     33.204     34.192
REMARK INTER + INTRA:          -5.231
REMARK INTER:                  -5.053
REMARK INTRA:                  -0.178
REMARK UNBOUND:                -0.178
REMARK  Name = 31265
REMARK  8 active torsions:
REMARK  status: ('A' for Active; 'I' for Inactive)
REMARK    1  A    between atoms: O_1  and  C_8
REMARK    2  A    between atoms: O_1  and  C_9
REMARK    3  A    between atoms: C_3  and  C_4
REMARK    4  A    between atoms: C_3  and  C_5
REMARK    5  A    between atoms: C_4  and  C_6
REMARK    6  A    between atoms: C_5  and  C_7
REMARK    7  A    between atoms: C_6  and  C_8
REMARK    8  A    between atoms: C_9  and  C_10
REMARK                            x       y       z     vdW  Elec       q    Type
REMARK                         _______ _______ _______ _____ _____    ______ ____
ROOT
ATOM      1  C   UNL     1     -15.866  -5.441  -3.015  0.00  0.00    +0.000 C 
ATOM      2  H   UNL     1     -15.223  -4.912  -2.302  0.00  0.00    +0.000 HD
ATOM      3  H   UNL     1     -16.291  -4.676  -3.677  0.00  0.00    +0.000 HD
ENDROOT
BRANCH   1   4
ATOM      4  C   UNL     1     -15.025  -6.420  -3.840  0.00  0.00    +0.000 C 
ATOM      5  H   UNL     1     -15.672  -6.964  -4.540  0.00  0.00    +0.000 HD
ATOM      6  H   UNL     1     -14.572  -7.164  -3.172  0.00  0.00    +0.000 HD
BRANCH   4   7
ATOM      7  C   UNL     1     -13.927  -5.690  -4.612  0.00  0.00    +0.000 C 
ATOM      8  H   UNL     1     -13.824  -6.124  -5.613  0.00  0.00    +0.000 HD
ATOM      9  H   UNL     1     -14.198  -4.636  -4.741  0.00  0.00    +0.000 HD
BRANCH   7  10
ATOM     10  C   UNL     1     -12.590  -5.772  -3.892  0.00  0.00    +0.000 C 
ATOM     11  H   UNL     1     -12.176  -6.785  -3.948  0.00  0.00    +0.000 HD
ATOM     12  H   UNL     1     -11.865  -5.079  -4.329  0.00  0.00    +0.000 HD
ATOM     13  H   UNL     1     -12.713  -5.515  -2.835  0.00  0.00    +0.000 HD
ENDBRANCH   7  10
ENDBRANCH   4   7
ENDBRANCH   1   4
BRANCH   1  14
ATOM     14  C   UNL     1     -16.995  -6.137  -2.255  0.00  0.00    +0.000 C 
ATOM     15  H   UNL     1     -16.919  -7.221  -2.396  0.00  0.00    +0.000 HD
ATOM     16  H   UNL     1     -16.903  -5.913  -1.186  0.00  0.00    +0.000 HD
BRANCH  14  18
ATOM     17  O   UNL     1     -18.912  -4.649  -2.413  0.00  0.00    +0.000 OA
ATOM     18  C   UNL     1     -18.373  -5.706  -2.707  0.00  0.00    +0.000 C 
BRANCH  18  19
ATOM     19  O   UNL     1     -18.923  -6.701  -3.465  0.00  0.00    +0.000 OA
BRANCH  19  20
ATOM     20  C   UNL     1     -20.345  -6.832  -3.372  0.00  0.00    +0.000 C 
ATOM     21  H   UNL     1     -20.748  -6.020  -2.755  0.00  0.00    +0.000 HD
ATOM     22  H   UNL     1     -20.784  -6.778  -4.374  0.00  0.00    +0.000 HD
BRANCH  20  23
ATOM     23  C   UNL     1     -20.678  -8.166  -2.739  0.00  0.00    +0.000 C 
ATOM     24  H   UNL     1     -20.059  -8.963  -3.159  0.00  0.00    +0.000 HD
ATOM     25  H   UNL     1     -20.519  -8.130  -1.656  0.00  0.00    +0.000 HD
ATOM     26  H   UNL     1     -21.732  -8.417  -2.897  0.00  0.00    +0.000 HD
ENDBRANCH  20  23
ENDBRANCH  19  20
ENDBRANCH  18  19
ENDBRANCH  14  18
ENDBRANCH   1  14
TORSDOF 8
ENDMDL
