MODEL 1
REMARK VINA RESULT:    -3.988      0.000      0.000
REMARK INTER + INTRA:          -5.170
REMARK INTER:                  -5.032
REMARK INTRA:                  -0.138
REMARK UNBOUND:                -0.133
REMARK  Name = 7342
REMARK  6 active torsions:
REMARK  status: ('A' for Active; 'I' for Inactive)
REMARK    1  A    between atoms: O_1  and  C_6
REMARK    2  A    between atoms: O_1  and  C_7
REMARK    3  A    between atoms: C_3  and  C_4
REMARK    4  A    between atoms: C_3  and  C_5
REMARK    5  A    between atoms: C_3  and  C_6
REMARK    6  A    between atoms: C_7  and  C_8
REMARK                            x       y       z     vdW  Elec       q    Type
REMARK                         _______ _______ _______ _____ _____    ______ ____
ROOT
ATOM      1  C   UNL     1      -0.234  -5.006  -6.427  0.00  0.00    +0.000 C 
ATOM      2  H   UNL     1       0.762  -4.547  -6.472  0.00  0.00    +0.000 HD
ENDROOT
BRANCH   1   3
ATOM      3  C   UNL     1      -0.450  -5.620  -5.049  0.00  0.00    +0.000 C 
ATOM      4  H   UNL     1      -1.509  -5.600  -4.772  0.00  0.00    +0.000 HD
ATOM      5  H   UNL     1       0.116  -5.082  -4.281  0.00  0.00    +0.000 HD
ATOM      6  H   UNL     1      -0.115  -6.663  -5.031  0.00  0.00    +0.000 HD
ENDBRANCH   1   3
BRANCH   1   7
ATOM      7  C   UNL     1      -0.298  -6.073  -7.517  0.00  0.00    +0.000 C 
ATOM      8  H   UNL     1      -0.876  -5.718  -8.377  0.00  0.00    +0.000 HD
ATOM      9  H   UNL     1      -0.774  -6.984  -7.141  0.00  0.00    +0.000 HD
ATOM     10  H   UNL     1       0.703  -6.345  -7.870  0.00  0.00    +0.000 HD
ENDBRANCH   1   7
BRANCH   1  12
ATOM     11  O   UNL     1      -2.205  -3.667  -5.928  0.00  0.00    +0.000 OA
ATOM     12  C   UNL     1      -1.268  -3.922  -6.673  0.00  0.00    +0.000 C 
BRANCH  12  13
ATOM     13  O   UNL     1      -0.981  -3.279  -7.844  0.00  0.00    +0.000 OA
BRANCH  13  14
ATOM     14  C   UNL     1       0.085  -2.326  -7.779  0.00  0.00    +0.000 C 
ATOM     15  H   UNL     1       0.612  -2.433  -6.824  0.00  0.00    +0.000 HD
ATOM     16  H   UNL     1       0.785  -2.504  -8.603  0.00  0.00    +0.000 HD
BRANCH  14  17
ATOM     17  C   UNL     1      -0.492  -0.931  -7.891  0.00  0.00    +0.000 C 
ATOM     18  H   UNL     1      -0.436  -0.566  -8.920  0.00  0.00    +0.000 HD
ATOM     19  H   UNL     1      -1.537  -0.919  -7.567  0.00  0.00    +0.000 HD
ATOM     20  H   UNL     1       0.051  -0.236  -7.240  0.00  0.00    +0.000 HD
ENDBRANCH  14  17
ENDBRANCH  13  14
ENDBRANCH  12  13
ENDBRANCH   1  12
TORSDOF 6
ENDMDL
MODEL 2
REMARK VINA RESULT:    -3.898      2.104      2.401
REMARK INTER + INTRA:          -5.056
REMARK INTER:                  -4.827
REMARK INTRA:                  -0.229
REMARK UNBOUND:                -0.133
REMARK  Name = 7342
REMARK  6 active torsions:
REMARK  status: ('A' for Active; 'I' for Inactive)
REMARK    1  A    between atoms: O_1  and  C_6
REMARK    2  A    between atoms: O_1  and  C_7
REMARK    3  A    between atoms: C_3  and  C_4
REMARK    4  A    between atoms: C_3  and  C_5
REMARK    5  A    between atoms: C_3  and  C_6
REMARK    6  A    between atoms: C_7  and  C_8
REMARK                            x       y       z     vdW  Elec       q    Type
REMARK                         _______ _______ _______ _____ _____    ______ ____
ROOT
ATOM      1  C   UNL     1       1.775  -5.389  -7.068  0.00  0.00    +0.000 C 
ATOM      2  H   UNL     1       2.184  -4.403  -7.322  0.00  0.00    +0.000 HD
ENDROOT
BRANCH   1   3
ATOM      3  C   UNL     1       1.630  -5.506  -5.556  0.00  0.00    +0.000 C 
ATOM      4  H   UNL     1       0.879  -6.256  -5.290  0.00  0.00    +0.000 HD
ATOM      5  H   UNL     1       1.334  -4.550  -5.109  0.00  0.00    +0.000 HD
ATOM      6  H   UNL     1       2.581  -5.801  -5.096  0.00  0.00    +0.000 HD
ENDBRANCH   1   3
BRANCH   1   7
ATOM      7  C   UNL     1       2.742  -6.440  -7.608  0.00  0.00    +0.000 C 
ATOM      8  H   UNL     1       3.239  -6.970  -6.788  0.00  0.00    +0.000 HD
ATOM      9  H   UNL     1       3.514  -5.975  -8.228  0.00  0.00    +0.000 HD
ATOM     10  H   UNL     1       2.224  -7.182  -8.226  0.00  0.00    +0.000 HD
ENDBRANCH   1   7
BRANCH   1  12
ATOM     11  O   UNL     1      -0.453  -6.317  -7.386  0.00  0.00    +0.000 OA
ATOM     12  C   UNL     1       0.413  -5.522  -7.725  0.00  0.00    +0.000 C 
BRANCH  12  13
ATOM     13  O   UNL     1       0.309  -4.613  -8.741  0.00  0.00    +0.000 OA
BRANCH  13  14
ATOM     14  C   UNL     1       0.562  -3.251  -8.379  0.00  0.00    +0.000 C 
ATOM     15  H   UNL     1       1.420  -3.209  -7.698  0.00  0.00    +0.000 HD
ATOM     16  H   UNL     1       0.784  -2.669  -9.280  0.00  0.00    +0.000 HD
BRANCH  14  17
ATOM     17  C   UNL     1      -0.663  -2.686  -7.694  0.00  0.00    +0.000 C 
ATOM     18  H   UNL     1      -1.074  -1.844  -8.258  0.00  0.00    +0.000 HD
ATOM     19  H   UNL     1      -1.436  -3.454  -7.592  0.00  0.00    +0.000 HD
ATOM     20  H   UNL     1      -0.416  -2.346  -6.682  0.00  0.00    +0.000 HD
ENDBRANCH  14  17
ENDBRANCH  13  14
ENDBRANCH  12  13
ENDBRANCH   1  12
TORSDOF 6
ENDMDL
MODEL 3
REMARK VINA RESULT:    -3.728      2.948      4.251
REMARK INTER + INTRA:          -4.842
REMARK INTER:                  -4.876
REMARK INTRA:                   0.033
REMARK UNBOUND:                -0.133
REMARK  Name = 7342
REMARK  6 active torsions:
REMARK  status: ('A' for Active; 'I' for Inactive)
REMARK    1  A    between atoms: O_1  and  C_6
REMARK    2  A    between atoms: O_1  and  C_7
REMARK    3  A    between atoms: C_3  and  C_4
REMARK    4  A    between atoms: C_3  and  C_5
REMARK    5  A    between atoms: C_3  and  C_6
REMARK    6  A    between atoms: C_7  and  C_8
REMARK                            x       y       z     vdW  Elec       q    Type
REMARK                         _______ _______ _______ _____ _____    ______ ____
ROOT
ATOM      1  C   UNL     1       1.120  -5.107  -6.009  0.00  0.00    +0.000 C 
ATOM      2  H   UNL     1       1.161  -4.011  -5.970  0.00  0.00    +0.000 HD
ENDROOT
BRANCH   1   3
ATOM      3  C   UNL     1      -0.154  -5.594  -5.331  0.00  0.00    +0.000 C 
ATOM      4  H   UNL     1      -0.504  -6.530  -5.777  0.00  0.00    +0.000 HD
ATOM      5  H   UNL     1      -0.957  -4.853  -5.414  0.00  0.00    +0.000 HD
ATOM      6  H   UNL     1       0.017  -5.771  -4.263  0.00  0.00    +0.000 HD
ENDBRANCH   1   3
BRANCH   1   7
ATOM      7  C   UNL     1       2.359  -5.639  -5.291  0.00  0.00    +0.000 C 
ATOM      8  H   UNL     1       2.997  -4.815  -4.954  0.00  0.00    +0.000 HD
ATOM      9  H   UNL     1       2.950  -6.276  -5.956  0.00  0.00    +0.000 HD
ATOM     10  H   UNL     1       2.088  -6.238  -4.415  0.00  0.00    +0.000 HD
ENDBRANCH   1   7
BRANCH   1  12
ATOM     11  O   UNL     1       0.119  -5.642  -8.163  0.00  0.00    +0.000 OA
ATOM     12  C   UNL     1       1.120  -5.531  -7.466  0.00  0.00    +0.000 C 
BRANCH  12  13
ATOM     13  O   UNL     1       2.405  -5.756  -7.875  0.00  0.00    +0.000 OA
BRANCH  13  14
ATOM     14  C   UNL     1       2.683  -7.083  -8.333  0.00  0.00    +0.000 C 
ATOM     15  H   UNL     1       2.710  -7.767  -7.477  0.00  0.00    +0.000 HD
ATOM     16  H   UNL     1       1.898  -7.402  -9.028  0.00  0.00    +0.000 HD
BRANCH  14  17
ATOM     17  C   UNL     1       4.023  -7.092  -9.036  0.00  0.00    +0.000 C 
ATOM     18  H   UNL     1       3.911  -7.371 -10.088  0.00  0.00    +0.000 HD
ATOM     19  H   UNL     1       4.494  -6.106  -8.980  0.00  0.00    +0.000 HD
ATOM     20  H   UNL     1       4.706  -7.800  -8.554  0.00  0.00    +0.000 HD
ENDBRANCH  14  17
ENDBRANCH  13  14
ENDBRANCH  12  13
ENDBRANCH   1  12
TORSDOF 6
ENDMDL
MODEL 4
REMARK VINA RESULT:    -3.612     14.465     16.064
REMARK INTER + INTRA:          -4.695
REMARK INTER:                  -4.559
REMARK INTRA:                  -0.136
REMARK UNBOUND:                -0.133
REMARK  Name = 7342
REMARK  6 active torsions:
REMARK  status: ('A' for Active; 'I' for Inactive)
REMARK    1  A    between atoms: O_1  and  C_6
REMARK    2  A    between atoms: O_1  and  C_7
REMARK    3  A    between atoms: C_3  and  C_4
REMARK    4  A    between atoms: C_3  and  C_5
REMARK    5  A    between atoms: C_3  and  C_6
REMARK    6  A    between atoms: C_7  and  C_8
REMARK                            x       y       z     vdW  Elec       q    Type
REMARK                         _______ _______ _______ _____ _____    ______ ____
ROOT
ATOM      1  C   UNL     1      -7.376 -13.937   2.646  0.00  0.00    +0.000 C 
ATOM      2  H   UNL     1      -8.397 -13.670   2.949  0.00  0.00    +0.000 HD
ENDROOT
BRANCH   1   3
ATOM      3  C   UNL     1      -7.105 -13.402   1.246  0.00  0.00    +0.000 C 
ATOM      4  H   UNL     1      -7.970 -13.553   0.593  0.00  0.00    +0.000 HD
ATOM      5  H   UNL     1      -6.241 -13.899   0.791  0.00  0.00    +0.000 HD
ATOM      6  H   UNL     1      -6.886 -12.328   1.275  0.00  0.00    +0.000 HD
ENDBRANCH   1   3
BRANCH   1   7
ATOM      7  C   UNL     1      -7.270 -15.460   2.680  0.00  0.00    +0.000 C 
ATOM      8  H   UNL     1      -8.263 -15.918   2.741  0.00  0.00    +0.000 HD
ATOM      9  H   UNL     1      -6.690 -15.789   3.547  0.00  0.00    +0.000 HD
ATOM     10  H   UNL     1      -6.773 -15.847   1.784  0.00  0.00    +0.000 HD
ENDBRANCH   1   7
BRANCH   1  12
ATOM     11  O   UNL     1      -5.198 -13.490   3.638  0.00  0.00    +0.000 OA
ATOM     12  C   UNL     1      -6.409 -13.308   3.633  0.00  0.00    +0.000 C 
BRANCH  12  13
ATOM     13  O   UNL     1      -7.099 -12.507   4.498  0.00  0.00    +0.000 OA
BRANCH  13  14
ATOM     14  C   UNL     1      -8.206 -13.126   5.163  0.00  0.00    +0.000 C 
ATOM     15  H   UNL     1      -9.038 -12.416   5.223  0.00  0.00    +0.000 HD
ATOM     16  H   UNL     1      -8.523 -14.010   4.600  0.00  0.00    +0.000 HD
BRANCH  14  17
ATOM     17  C   UNL     1      -7.780 -13.533   6.557  0.00  0.00    +0.000 C 
ATOM     18  H   UNL     1      -7.161 -14.435   6.529  0.00  0.00    +0.000 HD
ATOM     19  H   UNL     1      -7.212 -12.729   7.037  0.00  0.00    +0.000 HD
ATOM     20  H   UNL     1      -8.655 -13.725   7.187  0.00  0.00    +0.000 HD
ENDBRANCH  14  17
ENDBRANCH  13  14
ENDBRANCH  12  13
ENDBRANCH   1  12
TORSDOF 6
ENDMDL
MODEL 5
REMARK VINA RESULT:    -3.598      2.121      3.888
REMARK INTER + INTRA:          -4.678
REMARK INTER:                  -4.618
REMARK INTRA:                  -0.060
REMARK UNBOUND:                -0.133
REMARK  Name = 7342
REMARK  6 active torsions:
REMARK  status: ('A' for Active; 'I' for Inactive)
REMARK    1  A    between atoms: O_1  and  C_6
REMARK    2  A    between atoms: O_1  and  C_7
REMARK    3  A    between atoms: C_3  and  C_4
REMARK    4  A    between atoms: C_3  and  C_5
REMARK    5  A    between atoms: C_3  and  C_6
REMARK    6  A    between atoms: C_7  and  C_8
REMARK                            x       y       z     vdW  Elec       q    Type
REMARK                         _______ _______ _______ _____ _____    ______ ____
ROOT
ATOM      1  C   UNL     1       0.225  -4.201  -8.660  0.00  0.00    +0.000 C 
ATOM      2  H   UNL     1      -0.489  -4.677  -9.344  0.00  0.00    +0.000 HD
ENDROOT
BRANCH   1   3
ATOM      3  C   UNL     1      -0.486  -3.124  -7.850  0.00  0.00    +0.000 C 
ATOM      4  H   UNL     1      -0.551  -3.406  -6.794  0.00  0.00    +0.000 HD
ATOM      5  H   UNL     1      -1.503  -2.953  -8.221  0.00  0.00    +0.000 HD
ATOM      6  H   UNL     1       0.050  -2.171  -7.914  0.00  0.00    +0.000 HD
ENDBRANCH   1   3
BRANCH   1   7
ATOM      7  C   UNL     1       1.342  -3.598  -9.508  0.00  0.00    +0.000 C 
ATOM      8  H   UNL     1       1.025  -2.649  -9.952  0.00  0.00    +0.000 HD
ATOM      9  H   UNL     1       1.621  -4.276 -10.321  0.00  0.00    +0.000 HD
ATOM     10  H   UNL     1       2.242  -3.410  -8.911  0.00  0.00    +0.000 HD
ENDBRANCH   1   7
BRANCH   1  12
ATOM     11  O   UNL     1       1.929  -5.667  -7.725  0.00  0.00    +0.000 OA
ATOM     12  C   UNL     1       0.772  -5.267  -7.728  0.00  0.00    +0.000 C 
BRANCH  12  13
ATOM     13  O   UNL     1      -0.223  -5.697  -6.895  0.00  0.00    +0.000 OA
BRANCH  13  14
ATOM     14  C   UNL     1       0.083  -5.659  -5.498  0.00  0.00    +0.000 C 
ATOM     15  H   UNL     1       0.693  -6.531  -5.234  0.00  0.00    +0.000 HD
ATOM     16  H   UNL     1       0.640  -4.744  -5.270  0.00  0.00    +0.000 HD
BRANCH  14  17
ATOM     17  C   UNL     1      -1.209  -5.681  -4.709  0.00  0.00    +0.000 C 
ATOM     18  H   UNL     1      -1.759  -4.744  -4.833  0.00  0.00    +0.000 HD
ATOM     19  H   UNL     1      -1.844  -6.511  -5.033  0.00  0.00    +0.000 HD
ATOM     20  H   UNL     1      -1.006  -5.832  -3.643  0.00  0.00    +0.000 HD
ENDBRANCH  14  17
ENDBRANCH  13  14
ENDBRANCH  12  13
ENDBRANCH   1  12
TORSDOF 6
ENDMDL
MODEL 6
REMARK VINA RESULT:    -3.562     13.370     14.373
REMARK INTER + INTRA:          -4.632
REMARK INTER:                  -4.524
REMARK INTRA:                  -0.108
REMARK UNBOUND:                -0.133
REMARK  Name = 7342
REMARK  6 active torsions:
REMARK  status: ('A' for Active; 'I' for Inactive)
REMARK    1  A    between atoms: O_1  and  C_6
REMARK    2  A    between atoms: O_1  and  C_7
REMARK    3  A    between atoms: C_3  and  C_4
REMARK    4  A    between atoms: C_3  and  C_5
REMARK    5  A    between atoms: C_3  and  C_6
REMARK    6  A    between atoms: C_7  and  C_8
REMARK                            x       y       z     vdW  Elec       q    Type
REMARK                         _______ _______ _______ _____ _____    ______ ____
ROOT
ATOM      1  C   UNL     1     -13.223  -5.384  -4.573  0.00  0.00    +0.000 C 
ATOM      2  H   UNL     1     -13.753  -4.539  -4.115  0.00  0.00    +0.000 HD
ENDROOT
BRANCH   1   3
ATOM      3  C   UNL     1     -12.193  -5.930  -3.592  0.00  0.00    +0.000 C 
ATOM      4  H   UNL     1     -12.041  -7.004  -3.740  0.00  0.00    +0.000 HD
ATOM      5  H   UNL     1     -12.506  -5.768  -2.555  0.00  0.00    +0.000 HD
ATOM      6  H   UNL     1     -11.226  -5.430  -3.724  0.00  0.00    +0.000 HD
ENDBRANCH   1   3
BRANCH   1   7
ATOM      7  C   UNL     1     -12.549  -4.869  -5.843  0.00  0.00    +0.000 C 
ATOM      8  H   UNL     1     -12.719  -3.794  -5.966  0.00  0.00    +0.000 HD
ATOM      9  H   UNL     1     -12.946  -5.379  -6.726  0.00  0.00    +0.000 HD
ATOM     10  H   UNL     1     -11.467  -5.041  -5.821  0.00  0.00    +0.000 HD
ENDBRANCH   1   7
BRANCH   1  12
ATOM     11  O   UNL     1     -14.384  -6.975  -6.004  0.00  0.00    +0.000 OA
ATOM     12  C   UNL     1     -14.240  -6.461  -4.902  0.00  0.00    +0.000 C 
BRANCH  12  13
ATOM     13  O   UNL     1     -14.956  -6.768  -3.779  0.00  0.00    +0.000 OA
BRANCH  13  14
ATOM     14  C   UNL     1     -16.296  -6.266  -3.745  0.00  0.00    +0.000 C 
ATOM     15  H   UNL     1     -16.315  -5.251  -4.157  0.00  0.00    +0.000 HD
ATOM     16  H   UNL     1     -16.945  -6.914  -4.344  0.00  0.00    +0.000 HD
BRANCH  14  17
ATOM     17  C   UNL     1     -16.779  -6.246  -2.311  0.00  0.00    +0.000 C 
ATOM     18  H   UNL     1     -17.731  -6.775  -2.211  0.00  0.00    +0.000 HD
ATOM     19  H   UNL     1     -16.043  -6.713  -1.649  0.00  0.00    +0.000 HD
ATOM     20  H   UNL     1     -16.910  -5.215  -1.963  0.00  0.00    +0.000 HD
ENDBRANCH  14  17
ENDBRANCH  13  14
ENDBRANCH  12  13
ENDBRANCH   1  12
TORSDOF 6
ENDMDL
MODEL 7
REMARK VINA RESULT:    -3.534      2.745      4.138
REMARK INTER + INTRA:          -4.596
REMARK INTER:                  -4.493
REMARK INTRA:                  -0.103
REMARK UNBOUND:                -0.133
REMARK  Name = 7342
REMARK  6 active torsions:
REMARK  status: ('A' for Active; 'I' for Inactive)
REMARK    1  A    between atoms: O_1  and  C_6
REMARK    2  A    between atoms: O_1  and  C_7
REMARK    3  A    between atoms: C_3  and  C_4
REMARK    4  A    between atoms: C_3  and  C_5
REMARK    5  A    between atoms: C_3  and  C_6
REMARK    6  A    between atoms: C_7  and  C_8
REMARK                            x       y       z     vdW  Elec       q    Type
REMARK                         _______ _______ _______ _____ _____    ______ ____
ROOT
ATOM      1  C   UNL     1       0.032  -4.214  -8.427  0.00  0.00    +0.000 C 
ATOM      2  H   UNL     1      -0.640  -4.661  -9.171  0.00  0.00    +0.000 HD
ENDROOT
BRANCH   1   3
ATOM      3  C   UNL     1      -0.746  -3.224  -7.568  0.00  0.00    +0.000 C 
ATOM      4  H   UNL     1      -1.402  -3.746  -6.865  0.00  0.00    +0.000 HD
ATOM      5  H   UNL     1      -1.363  -2.562  -8.186  0.00  0.00    +0.000 HD
ATOM      6  H   UNL     1      -0.064  -2.591  -6.990  0.00  0.00    +0.000 HD
ENDBRANCH   1   3
BRANCH   1   7
ATOM      7  C   UNL     1       1.157  -3.513  -9.185  0.00  0.00    +0.000 C 
ATOM      8  H   UNL     1       0.822  -2.544  -9.571  0.00  0.00    +0.000 HD
ATOM      9  H   UNL     1       1.489  -4.120 -10.034  0.00  0.00    +0.000 HD
ATOM     10  H   UNL     1       2.027  -3.341  -8.542  0.00  0.00    +0.000 HD
ENDBRANCH   1   7
BRANCH   1  12
ATOM     11  O   UNL     1      -0.080  -5.996  -6.772  0.00  0.00    +0.000 OA
ATOM     12  C   UNL     1       0.583  -5.328  -7.555  0.00  0.00    +0.000 C 
BRANCH  12  13
ATOM     13  O   UNL     1       1.921  -5.468  -7.789  0.00  0.00    +0.000 OA
BRANCH  13  14
ATOM     14  C   UNL     1       2.355  -6.794  -8.112  0.00  0.00    +0.000 C 
ATOM     15  H   UNL     1       2.084  -7.475  -7.298  0.00  0.00    +0.000 HD
ATOM     16  H   UNL     1       1.870  -7.122  -9.038  0.00  0.00    +0.000 HD
BRANCH  14  17
ATOM     17  C   UNL     1       3.858  -6.790  -8.298  0.00  0.00    +0.000 C 
ATOM     18  H   UNL     1       4.278  -5.807  -8.066  0.00  0.00    +0.000 HD
ATOM     19  H   UNL     1       4.328  -7.537  -7.651  0.00  0.00    +0.000 HD
ATOM     20  H   UNL     1       4.119  -7.051  -9.329  0.00  0.00    +0.000 HD
ENDBRANCH  14  17
ENDBRANCH  13  14
ENDBRANCH  12  13
ENDBRANCH   1  12
TORSDOF 6
ENDMDL
MODEL 8
REMARK VINA RESULT:    -3.469     33.382     34.607
REMARK INTER + INTRA:          -4.514
REMARK INTER:                  -4.331
REMARK INTRA:                  -0.184
REMARK UNBOUND:                -0.133
REMARK  Name = 7342
REMARK  6 active torsions:
REMARK  status: ('A' for Active; 'I' for Inactive)
REMARK    1  A    between atoms: O_1  and  C_6
REMARK    2  A    between atoms: O_1  and  C_7
REMARK    3  A    between atoms: C_3  and  C_4
REMARK    4  A    between atoms: C_3  and  C_5
REMARK    5  A    between atoms: C_3  and  C_6
REMARK    6  A    between atoms: C_7  and  C_8
REMARK                            x       y       z     vdW  Elec       q    Type
REMARK                         _______ _______ _______ _____ _____    ______ ____
ROOT
ATOM      1  C   UNL     1      -3.940   4.254  24.996  0.00  0.00    +0.000 C 
ATOM      2  H   UNL     1      -3.611   3.318  24.526  0.00  0.00    +0.000 HD
ENDROOT
BRANCH   1   3
ATOM      3  C   UNL     1      -5.300   4.654  24.437  0.00  0.00    +0.000 C 
ATOM      4  H   UNL     1      -5.861   5.253  25.160  0.00  0.00    +0.000 HD
ATOM      5  H   UNL     1      -5.900   3.773  24.182  0.00  0.00    +0.000 HD
ATOM      6  H   UNL     1      -5.185   5.246  23.522  0.00  0.00    +0.000 HD
ENDBRANCH   1   3
BRANCH   1   7
ATOM      7  C   UNL     1      -2.888   5.317  24.688  0.00  0.00    +0.000 C 
ATOM      8  H   UNL     1      -3.106   6.247  25.224  0.00  0.00    +0.000 HD
ATOM      9  H   UNL     1      -2.864   5.540  23.617  0.00  0.00    +0.000 HD
ATOM     10  H   UNL     1      -1.885   4.985  24.979  0.00  0.00    +0.000 HD
ENDBRANCH   1   7
BRANCH   1  12
ATOM     11  O   UNL     1      -3.103   4.010  27.269  0.00  0.00    +0.000 OA
ATOM     12  C   UNL     1      -4.049   4.021  26.492  0.00  0.00    +0.000 C 
BRANCH  12  13
ATOM     13  O   UNL     1      -5.360   3.837  26.829  0.00  0.00    +0.000 OA
BRANCH  13  14
ATOM     14  C   UNL     1      -5.769   4.435  28.064  0.00  0.00    +0.000 C 
ATOM     15  H   UNL     1      -6.247   3.677  28.695  0.00  0.00    +0.000 HD
ATOM     16  H   UNL     1      -4.893   4.840  28.582  0.00  0.00    +0.000 HD
BRANCH  14  17
ATOM     17  C   UNL     1      -6.751   5.549  27.771  0.00  0.00    +0.000 C 
ATOM     18  H   UNL     1      -6.520   6.440  28.362  0.00  0.00    +0.000 HD
ATOM     19  H   UNL     1      -6.729   5.813  26.709  0.00  0.00    +0.000 HD
ATOM     20  H   UNL     1      -7.774   5.231  27.999  0.00  0.00    +0.000 HD
ENDBRANCH  14  17
ENDBRANCH  13  14
ENDBRANCH  12  13
ENDBRANCH   1  12
TORSDOF 6
ENDMDL
MODEL 9
REMARK VINA RESULT:    -3.341     15.094     17.175
REMARK INTER + INTRA:          -4.353
REMARK INTER:                  -4.220
REMARK INTRA:                  -0.133
REMARK UNBOUND:                -0.133
REMARK  Name = 7342
REMARK  6 active torsions:
REMARK  status: ('A' for Active; 'I' for Inactive)
REMARK    1  A    between atoms: O_1  and  C_6
REMARK    2  A    between atoms: O_1  and  C_7
REMARK    3  A    between atoms: C_3  and  C_4
REMARK    4  A    between atoms: C_3  and  C_5
REMARK    5  A    between atoms: C_3  and  C_6
REMARK    6  A    between atoms: C_7  and  C_8
REMARK                            x       y       z     vdW  Elec       q    Type
REMARK                         _______ _______ _______ _____ _____    ______ ____
ROOT
ATOM      1  C   UNL     1      -6.423 -13.628   3.724  0.00  0.00    +0.000 C 
ATOM      2  H   UNL     1      -5.783 -14.516   3.812  0.00  0.00    +0.000 HD
ENDROOT
BRANCH   1   3
ATOM      3  C   UNL     1      -7.282 -13.742   2.471  0.00  0.00    +0.000 C 
ATOM      4  H   UNL     1      -8.083 -14.475   2.608  0.00  0.00    +0.000 HD
ATOM      5  H   UNL     1      -6.683 -14.046   1.605  0.00  0.00    +0.000 HD
ATOM      6  H   UNL     1      -7.743 -12.778   2.226  0.00  0.00    +0.000 HD
ENDBRANCH   1   3
BRANCH   1   7
ATOM      7  C   UNL     1      -5.508 -12.407   3.652  0.00  0.00    +0.000 C 
ATOM      8  H   UNL     1      -5.099 -12.169   4.639  0.00  0.00    +0.000 HD
ATOM      9  H   UNL     1      -6.058 -11.532   3.291  0.00  0.00    +0.000 HD
ATOM     10  H   UNL     1      -4.669 -12.576   2.968  0.00  0.00    +0.000 HD
ENDBRANCH   1   7
BRANCH   1  12
ATOM     11  O   UNL     1      -8.135 -12.682   5.173  0.00  0.00    +0.000 OA
ATOM     12  C   UNL     1      -7.313 -13.562   4.952  0.00  0.00    +0.000 C 
BRANCH  12  13
ATOM     13  O   UNL     1      -7.059 -14.637   5.756  0.00  0.00    +0.000 OA
BRANCH  13  14
ATOM     14  C   UNL     1      -8.112 -14.997   6.656  0.00  0.00    +0.000 C 
ATOM     15  H   UNL     1      -7.684 -15.456   7.554  0.00  0.00    +0.000 HD
ATOM     16  H   UNL     1      -8.674 -14.100   6.939  0.00  0.00    +0.000 HD
BRANCH  14  17
ATOM     17  C   UNL     1      -9.034 -15.981   5.969  0.00  0.00    +0.000 C 
ATOM     18  H   UNL     1      -8.501 -16.541   5.195  0.00  0.00    +0.000 HD
ATOM     19  H   UNL     1      -9.453 -16.687   6.692  0.00  0.00    +0.000 HD
ATOM     20  H   UNL     1      -9.879 -15.459   5.507  0.00  0.00    +0.000 HD
ENDBRANCH  14  17
ENDBRANCH  13  14
ENDBRANCH  12  13
ENDBRANCH   1  12
TORSDOF 6
ENDMDL
MODEL 10
REMARK VINA RESULT:    -3.338     15.095     16.207
REMARK INTER + INTRA:          -4.348
REMARK INTER:                  -4.111
REMARK INTRA:                  -0.238
REMARK UNBOUND:                -0.133
REMARK  Name = 7342
REMARK  6 active torsions:
REMARK  status: ('A' for Active; 'I' for Inactive)
REMARK    1  A    between atoms: O_1  and  C_6
REMARK    2  A    between atoms: O_1  and  C_7
REMARK    3  A    between atoms: C_3  and  C_4
REMARK    4  A    between atoms: C_3  and  C_5
REMARK    5  A    between atoms: C_3  and  C_6
REMARK    6  A    between atoms: C_7  and  C_8
REMARK                            x       y       z     vdW  Elec       q    Type
REMARK                         _______ _______ _______ _____ _____    ______ ____
ROOT
ATOM      1  C   UNL     1       1.133   6.415 -19.786  0.00  0.00    +0.000 C 
ATOM      2  H   UNL     1       0.992   7.267 -20.465  0.00  0.00    +0.000 HD
ENDROOT
BRANCH   1   3
ATOM      3  C   UNL     1       0.410   6.686 -18.473  0.00  0.00    +0.000 C 
ATOM      4  H   UNL     1       0.920   6.198 -17.636  0.00  0.00    +0.000 HD
ATOM      5  H   UNL     1      -0.623   6.322 -18.505  0.00  0.00    +0.000 HD
ATOM      6  H   UNL     1       0.371   7.761 -18.264  0.00  0.00    +0.000 HD
ENDBRANCH   1   3
BRANCH   1   7
ATOM      7  C   UNL     1       2.634   6.251 -19.561  0.00  0.00    +0.000 C 
ATOM      8  H   UNL     1       3.197   7.003 -20.124  0.00  0.00    +0.000 HD
ATOM      9  H   UNL     1       2.969   5.262 -19.887  0.00  0.00    +0.000 HD
ATOM     10  H   UNL     1       2.894   6.356 -18.502  0.00  0.00    +0.000 HD
ENDBRANCH   1   7
BRANCH   1  12
ATOM     11  O   UNL     1       0.112   5.138 -21.591  0.00  0.00    +0.000 OA
ATOM     12  C   UNL     1       0.550   5.180 -20.448  0.00  0.00    +0.000 C 
BRANCH  12  13
ATOM     13  O   UNL     1       0.600   4.130 -19.574  0.00  0.00    +0.000 OA
BRANCH  13  14
ATOM     14  C   UNL     1       0.753   2.838 -20.171  0.00  0.00    +0.000 C 
ATOM     15  H   UNL     1       0.258   2.087 -19.546  0.00  0.00    +0.000 HD
ATOM     16  H   UNL     1       0.299   2.839 -21.168  0.00  0.00    +0.000 HD
BRANCH  14  17
ATOM     17  C   UNL     1       2.229   2.519 -20.283  0.00  0.00    +0.000 C 
ATOM     18  H   UNL     1       2.624   2.830 -21.254  0.00  0.00    +0.000 HD
ATOM     19  H   UNL     1       2.793   3.022 -19.492  0.00  0.00    +0.000 HD
ATOM     20  H   UNL     1       2.400   1.443 -20.161  0.00  0.00    +0.000 HD
ENDBRANCH  14  17
ENDBRANCH  13  14
ENDBRANCH  12  13
ENDBRANCH   1  12
TORSDOF 6
ENDMDL
