MODEL 1
REMARK VINA RESULT:    -5.928      0.000      0.000
REMARK INTER + INTRA:         -12.029
REMARK INTER:                 -10.681
REMARK INTRA:                  -1.348
REMARK UNBOUND:                -1.076
REMARK  Name = 10390702
REMARK  19 active torsions:
REMARK  status: ('A' for Active; 'I' for Inactive)
REMARK    1  A    between atoms: O_3  and  C_26
REMARK    2  A    between atoms: O_4  and  C_27
REMARK    3  A    between atoms: O_5  and  C_33
REMARK    4  A    between atoms: C_8  and  C_11
REMARK    5  A    between atoms: C_9  and  C_14
REMARK    6  A    between atoms: C_9  and  C_15
REMARK    7  A    between atoms: C_10  and  C_13
REMARK    8  A    between atoms: C_12  and  C_18
REMARK    9  A    between atoms: C_12  and  C_20
REMARK   10  A    between atoms: C_13  and  C_21
REMARK   11  A    between atoms: C_18  and  C_22
REMARK   12  A    between atoms: C_18  and  C_23
REMARK   13  A    between atoms: C_21  and  C_25
REMARK   14  A    between atoms: C_22  and  C_24
REMARK   15  A    between atoms: C_24  and  C_28
REMARK   16  A    between atoms: C_24  and  C_29
REMARK   17  A    between atoms: C_25  and  C_30
REMARK   18  A    between atoms: C_31  and  C_35
REMARK   19  A    between atoms: C_32  and  C_34
REMARK                            x       y       z     vdW  Elec       q    Type
REMARK                         _______ _______ _______ _____ _____    ______ ____
ROOT
ATOM      1  O   UNL     1     -21.340  -7.530  14.132  0.00  0.00    +0.000 OA
ATOM      2  C   UNL     1     -19.736  -6.087  15.248  0.00  0.00    +0.000 C 
ATOM      3  C   UNL     1     -18.946  -4.932  14.577  0.00  0.00    +0.000 C 
ATOM      4  C   UNL     1     -18.552  -5.550  13.218  0.00  0.00    +0.000 C 
ATOM      5  C   UNL     1     -20.402  -6.746  14.055  0.00  0.00    +0.000 C 
ATOM      6  C   UNL     1     -19.779  -6.324  12.750  0.00  0.00    +0.000 C 
ATOM      7  H   UNL     1     -19.018  -6.843  15.563  0.00  0.00    +0.000 HD
ATOM      8  H   UNL     1     -18.414  -4.852  12.397  0.00  0.00    +0.000 HD
ATOM      9  H   UNL     1     -17.749  -6.286  13.214  0.00  0.00    +0.000 HD
ATOM     10  H   UNL     1     -20.486  -5.686  12.210  0.00  0.00    +0.000 HD
ATOM     11  H   UNL     1     -19.510  -7.193  12.146  0.00  0.00    +0.000 HD
ENDROOT
BRANCH   2  12
ATOM     12  C   UNL     1     -20.691  -5.688  16.327  0.00  0.00    +0.000 C 
ATOM     13  C   UNL     1     -20.291  -5.772  17.772  0.00  0.00    +0.000 C 
ATOM     14  C   UNL     1     -21.277  -6.752  17.208  0.00  0.00    +0.000 C 
ATOM     15  H   UNL     1     -21.397  -4.925  16.024  0.00  0.00    +0.000 HD
ATOM     16  H   UNL     1     -22.324  -6.650  17.472  0.00  0.00    +0.000 HD
BRANCH  13  17
ATOM     17  C   UNL     1     -18.905  -6.231  18.073  0.00  0.00    +0.000 C 
ATOM     18  H   UNL     1     -18.961  -7.176  18.628  0.00  0.00    +0.000 HD
ATOM     19  H   UNL     1     -18.231  -6.432  17.241  0.00  0.00    +0.000 HD
ATOM     20  H   UNL     1     -18.415  -5.519  18.741  0.00  0.00    +0.000 HD
ENDBRANCH  13  17
BRANCH  13  21
ATOM     21  C   UNL     1     -20.807  -4.748  18.725  0.00  0.00    +0.000 C 
ATOM     22  H   UNL     1     -20.425  -3.754  18.468  0.00  0.00    +0.000 HD
ATOM     23  H   UNL     1     -21.901  -4.713  18.698  0.00  0.00    +0.000 HD
ATOM     24  H   UNL     1     -20.510  -4.959  19.759  0.00  0.00    +0.000 HD
ENDBRANCH  13  21
BRANCH  14  25
ATOM     25  C   UNL     1     -20.889  -8.166  16.977  0.00  0.00    +0.000 C 
ATOM     26  H   UNL     1     -19.820  -8.377  16.899  0.00  0.00    +0.000 HD
ATOM     27  H   UNL     1     -21.375  -8.506  16.062  0.00  0.00    +0.000 HD
BRANCH  25  28
ATOM     28  C   UNL     1     -21.530  -9.116  17.992  0.00  0.00    +0.000 C 
ATOM     29  H   UNL     1     -21.797  -8.561  18.898  0.00  0.00    +0.000 HD
ATOM     30  H   UNL     1     -22.449  -9.548  17.578  0.00  0.00    +0.000 HD
BRANCH  28  32
ATOM     31  O   UNL     1     -20.800 -10.934  19.409  0.00  0.00    +0.000 OA
ATOM     32  C   UNL     1     -20.614 -10.256  18.400  0.00  0.00    +0.000 C 
BRANCH  32  33
ATOM     33  C   UNL     1     -19.442 -10.521  17.491  0.00  0.00    +0.000 C 
ATOM     34  H   UNL     1     -18.800 -11.286  17.935  0.00  0.00    +0.000 HD
ATOM     35  H   UNL     1     -18.879  -9.596  17.339  0.00  0.00    +0.000 HD
ATOM     36  H   UNL     1     -19.800 -10.880  16.522  0.00  0.00    +0.000 HD
ENDBRANCH  32  33
ENDBRANCH  28  32
ENDBRANCH  25  28
ENDBRANCH  14  25
ENDBRANCH   2  12
BRANCH   3  37
ATOM     37  C   UNL     1     -19.781  -3.656  14.355  0.00  0.00    +0.000 C 
ATOM     38  H   UNL     1     -19.824  -3.356  13.301  0.00  0.00    +0.000 HD
ATOM     39  H   UNL     1     -20.795  -3.694  14.761  0.00  0.00    +0.000 HD
ATOM     40  H   UNL     1     -19.321  -2.810  14.883  0.00  0.00    +0.000 HD
ENDBRANCH   3  37
BRANCH   3  41
ATOM     41  C   UNL     1     -17.693  -4.569  15.383  0.00  0.00    +0.000 C 
ATOM     42  H   UNL     1     -17.911  -4.797  16.427  0.00  0.00    +0.000 HD
BRANCH  41  43
ATOM     43  C   UNL     1     -17.405  -3.082  15.268  0.00  0.00    +0.000 A 
ATOM     44  C   UNL     1     -16.853  -2.567  14.094  0.00  0.00    +0.000 A 
ATOM     45  C   UNL     1     -17.691  -2.231  16.336  0.00  0.00    +0.000 A 
ATOM     46  C   UNL     1     -16.589  -1.202  13.988  0.00  0.00    +0.000 A 
ATOM     47  C   UNL     1     -17.426  -0.866  16.230  0.00  0.00    +0.000 A 
ATOM     48  C   UNL     1     -16.876  -0.351  15.056  0.00  0.00    +0.000 A 
BRANCH  46  50
ATOM     49  O   UNL     1     -14.891  -0.973  12.357  0.00  0.00    +0.000 OA
ATOM     50  C   UNL     1     -16.013  -0.663  12.761  0.00  0.00    +0.000 C 
ATOM     51  H   UNL     1     -16.626   0.041  12.177  0.00  0.00    +0.000 HD
ENDBRANCH  46  50
BRANCH  47  53
ATOM     52  O   UNL     1     -16.864   0.698  17.914  0.00  0.00    +0.000 OA
ATOM     53  C   UNL     1     -17.725   0.024  17.347  0.00  0.00    +0.000 C 
ATOM     54  H   UNL     1     -18.772   0.082  17.686  0.00  0.00    +0.000 HD
ENDBRANCH  47  53
BRANCH  48  55
ATOM     55  O   UNL     1     -16.616   0.985  14.953  0.00  0.00    +0.000 OA
ATOM     56  H   UNL     1     -16.480   1.229  14.023  0.00  0.00    +0.000 HD
ENDBRANCH  48  55
BRANCH  45  57
ATOM     57  O   UNL     1     -18.230  -2.738  17.482  0.00  0.00    +0.000 OA
ATOM     58  H   UNL     1     -17.993  -2.197  18.250  0.00  0.00    +0.000 HD
ENDBRANCH  45  57
BRANCH  44  59
ATOM     59  O   UNL     1     -16.576  -3.403  13.052  0.00  0.00    +0.000 OA
ATOM     60  H   UNL     1     -16.050  -4.164  13.347  0.00  0.00    +0.000 HD
ENDBRANCH  44  59
ENDBRANCH  41  43
BRANCH  41  61
ATOM     61  C   UNL     1     -16.504  -5.457  14.947  0.00  0.00    +0.000 C 
ATOM     62  H   UNL     1     -16.780  -6.058  14.073  0.00  0.00    +0.000 HD
ATOM     63  H   UNL     1     -15.622  -4.871  14.674  0.00  0.00    +0.000 HD
BRANCH  61  64
ATOM     64  C   UNL     1     -15.981  -6.438  16.019  0.00  0.00    +0.000 C 
ATOM     65  H   UNL     1     -16.805  -7.076  16.358  0.00  0.00    +0.000 HD
BRANCH  64  66
ATOM     66  C   UNL     1     -14.865  -7.339  15.490  0.00  0.00    +0.000 C 
ATOM     67  H   UNL     1     -14.979  -8.371  15.829  0.00  0.00    +0.000 HD
ATOM     68  H   UNL     1     -13.890  -6.995  15.853  0.00  0.00    +0.000 HD
ATOM     69  H   UNL     1     -14.831  -7.328  14.396  0.00  0.00    +0.000 HD
ENDBRANCH  64  66
BRANCH  64  70
ATOM     70  C   UNL     1     -15.475  -5.652  17.232  0.00  0.00    +0.000 C 
ATOM     71  H   UNL     1     -15.938  -6.008  18.159  0.00  0.00    +0.000 HD
ATOM     72  H   UNL     1     -15.702  -4.586  17.127  0.00  0.00    +0.000 HD
ATOM     73  H   UNL     1     -14.389  -5.750  17.336  0.00  0.00    +0.000 HD
ENDBRANCH  64  70
ENDBRANCH  61  64
ENDBRANCH  41  61
ENDBRANCH   3  41
TORSDOF 19
ENDMDL
MODEL 2
REMARK VINA RESULT:    -5.857      1.880      4.411
REMARK INTER + INTRA:         -11.897
REMARK INTER:                 -10.441
REMARK INTRA:                  -1.456
REMARK UNBOUND:                -1.076
REMARK  Name = 10390702
REMARK  19 active torsions:
REMARK  status: ('A' for Active; 'I' for Inactive)
REMARK    1  A    between atoms: O_3  and  C_26
REMARK    2  A    between atoms: O_4  and  C_27
REMARK    3  A    between atoms: O_5  and  C_33
REMARK    4  A    between atoms: C_8  and  C_11
REMARK    5  A    between atoms: C_9  and  C_14
REMARK    6  A    between atoms: C_9  and  C_15
REMARK    7  A    between atoms: C_10  and  C_13
REMARK    8  A    between atoms: C_12  and  C_18
REMARK    9  A    between atoms: C_12  and  C_20
REMARK   10  A    between atoms: C_13  and  C_21
REMARK   11  A    between atoms: C_18  and  C_22
REMARK   12  A    between atoms: C_18  and  C_23
REMARK   13  A    between atoms: C_21  and  C_25
REMARK   14  A    between atoms: C_22  and  C_24
REMARK   15  A    between atoms: C_24  and  C_28
REMARK   16  A    between atoms: C_24  and  C_29
REMARK   17  A    between atoms: C_25  and  C_30
REMARK   18  A    between atoms: C_31  and  C_35
REMARK   19  A    between atoms: C_32  and  C_34
REMARK                            x       y       z     vdW  Elec       q    Type
REMARK                         _______ _______ _______ _____ _____    ______ ____
ROOT
ATOM      1  O   UNL     1     -18.577  -5.809  19.533  0.00  0.00    +0.000 OA
ATOM      2  C   UNL     1     -18.468  -4.807  17.322  0.00  0.00    +0.000 C 
ATOM      3  C   UNL     1     -18.489  -3.285  17.023  0.00  0.00    +0.000 C 
ATOM      4  C   UNL     1     -19.564  -2.772  18.006  0.00  0.00    +0.000 C 
ATOM      5  C   UNL     1     -18.766  -4.839  18.809  0.00  0.00    +0.000 C 
ATOM      6  C   UNL     1     -19.324  -3.531  19.306  0.00  0.00    +0.000 C 
ATOM      7  H   UNL     1     -19.368  -5.245  16.893  0.00  0.00    +0.000 HD
ATOM      8  H   UNL     1     -19.458  -1.743  18.336  0.00  0.00    +0.000 HD
ATOM      9  H   UNL     1     -20.606  -2.975  17.762  0.00  0.00    +0.000 HD
ATOM     10  H   UNL     1     -18.573  -3.041  19.934  0.00  0.00    +0.000 HD
ATOM     11  H   UNL     1     -20.248  -3.687  19.866  0.00  0.00    +0.000 HD
ENDROOT
BRANCH   2  12
ATOM     12  C   UNL     1     -17.216  -5.533  16.943  0.00  0.00    +0.000 C 
ATOM     13  C   UNL     1     -17.072  -6.149  15.582  0.00  0.00    +0.000 C 
ATOM     14  C   UNL     1     -17.261  -7.024  16.786  0.00  0.00    +0.000 C 
ATOM     15  H   UNL     1     -16.331  -5.166  17.448  0.00  0.00    +0.000 HD
ATOM     16  H   UNL     1     -16.411  -7.584  17.163  0.00  0.00    +0.000 HD
BRANCH  13  17
ATOM     17  C   UNL     1     -18.204  -5.975  14.628  0.00  0.00    +0.000 C 
ATOM     18  H   UNL     1     -19.085  -5.633  15.187  0.00  0.00    +0.000 HD
ATOM     19  H   UNL     1     -18.092  -5.261  13.814  0.00  0.00    +0.000 HD
ATOM     20  H   UNL     1     -18.478  -6.941  14.197  0.00  0.00    +0.000 HD
ENDBRANCH  13  17
BRANCH  13  21
ATOM     21  C   UNL     1     -15.731  -6.156  14.930  0.00  0.00    +0.000 C 
ATOM     22  H   UNL     1     -15.581  -7.082  14.365  0.00  0.00    +0.000 HD
ATOM     23  H   UNL     1     -15.635  -5.312  14.238  0.00  0.00    +0.000 HD
ATOM     24  H   UNL     1     -14.916  -6.077  15.659  0.00  0.00    +0.000 HD
ENDBRANCH  13  21
BRANCH  14  25
ATOM     25  C   UNL     1     -18.547  -7.730  17.013  0.00  0.00    +0.000 C 
ATOM     26  H   UNL     1     -19.373  -7.472  16.347  0.00  0.00    +0.000 HD
ATOM     27  H   UNL     1     -18.860  -7.542  18.040  0.00  0.00    +0.000 HD
BRANCH  25  28
ATOM     28  C   UNL     1     -18.374  -9.250  17.057  0.00  0.00    +0.000 C 
ATOM     29  H   UNL     1     -18.289  -9.641  16.037  0.00  0.00    +0.000 HD
ATOM     30  H   UNL     1     -17.455  -9.510  17.596  0.00  0.00    +0.000 HD
BRANCH  28  32
ATOM     31  O   UNL     1     -20.689  -9.902  17.308  0.00  0.00    +0.000 OA
ATOM     32  C   UNL     1     -19.535  -9.961  17.730  0.00  0.00    +0.000 C 
BRANCH  32  33
ATOM     33  C   UNL     1     -19.198 -10.756  18.965  0.00  0.00    +0.000 C 
ATOM     34  H   UNL     1     -20.048 -10.742  19.652  0.00  0.00    +0.000 HD
ATOM     35  H   UNL     1     -18.315 -10.329  19.447  0.00  0.00    +0.000 HD
ATOM     36  H   UNL     1     -18.984 -11.793  18.689  0.00  0.00    +0.000 HD
ENDBRANCH  32  33
ENDBRANCH  28  32
ENDBRANCH  25  28
ENDBRANCH  14  25
ENDBRANCH   2  12
BRANCH   3  37
ATOM     37  C   UNL     1     -17.146  -2.580  17.294  0.00  0.00    +0.000 C 
ATOM     38  H   UNL     1     -16.983  -2.372  18.358  0.00  0.00    +0.000 HD
ATOM     39  H   UNL     1     -16.268  -3.091  16.889  0.00  0.00    +0.000 HD
ATOM     40  H   UNL     1     -17.129  -1.600  16.798  0.00  0.00    +0.000 HD
ENDBRANCH   3  37
BRANCH   3  41
ATOM     41  C   UNL     1     -18.911  -3.005  15.575  0.00  0.00    +0.000 C 
ATOM     42  H   UNL     1     -18.553  -3.843  14.974  0.00  0.00    +0.000 HD
BRANCH  41  43
ATOM     43  C   UNL     1     -18.248  -1.736  15.069  0.00  0.00    +0.000 A 
ATOM     44  C   UNL     1     -18.789  -0.490  15.390  0.00  0.00    +0.000 A 
ATOM     45  C   UNL     1     -17.098  -1.814  14.283  0.00  0.00    +0.000 A 
ATOM     46  C   UNL     1     -18.180   0.675  14.926  0.00  0.00    +0.000 A 
ATOM     47  C   UNL     1     -16.490  -0.649  13.818  0.00  0.00    +0.000 A 
ATOM     48  C   UNL     1     -17.031   0.596  14.140  0.00  0.00    +0.000 A 
BRANCH  46  50
ATOM     49  O   UNL     1     -19.204   2.241  16.374  0.00  0.00    +0.000 OA
ATOM     50  C   UNL     1     -18.746   1.977  15.261  0.00  0.00    +0.000 C 
ATOM     51  H   UNL     1     -18.745   2.750  14.476  0.00  0.00    +0.000 HD
ENDBRANCH  46  50
BRANCH  47  53
ATOM     52  O   UNL     1     -14.253  -0.115  13.259  0.00  0.00    +0.000 OA
ATOM     53  C   UNL     1     -15.287  -0.732  12.996  0.00  0.00    +0.000 C 
ATOM     54  H   UNL     1     -15.323  -1.377  12.104  0.00  0.00    +0.000 HD
ENDBRANCH  47  53
BRANCH  48  55
ATOM     55  O   UNL     1     -16.435   1.737  13.685  0.00  0.00    +0.000 OA
ATOM     56  H   UNL     1     -15.582   1.870  14.130  0.00  0.00    +0.000 HD
ENDBRANCH  48  55
BRANCH  45  57
ATOM     57  O   UNL     1     -16.571  -3.034  13.971  0.00  0.00    +0.000 OA
ATOM     58  H   UNL     1     -16.832  -3.705  14.619  0.00  0.00    +0.000 HD
ENDBRANCH  45  57
BRANCH  44  59
ATOM     59  O   UNL     1     -19.913  -0.418  16.159  0.00  0.00    +0.000 OA
ATOM     60  H   UNL     1     -20.287  -1.301  16.313  0.00  0.00    +0.000 HD
ENDBRANCH  44  59
ENDBRANCH  41  43
BRANCH  41  61
ATOM     61  C   UNL     1     -20.453  -2.974  15.467  0.00  0.00    +0.000 C 
ATOM     62  H   UNL     1     -20.901  -2.853  16.460  0.00  0.00    +0.000 HD
ATOM     63  H   UNL     1     -20.812  -2.149  14.846  0.00  0.00    +0.000 HD
BRANCH  61  64
ATOM     64  C   UNL     1     -21.099  -4.225  14.833  0.00  0.00    +0.000 C 
ATOM     65  H   UNL     1     -20.318  -4.846  14.381  0.00  0.00    +0.000 HD
BRANCH  64  66
ATOM     66  C   UNL     1     -21.855  -5.074  15.856  0.00  0.00    +0.000 C 
ATOM     67  H   UNL     1     -22.592  -5.725  15.380  0.00  0.00    +0.000 HD
ATOM     68  H   UNL     1     -22.405  -4.432  16.554  0.00  0.00    +0.000 HD
ATOM     69  H   UNL     1     -21.167  -5.688  16.445  0.00  0.00    +0.000 HD
ENDBRANCH  64  66
BRANCH  64  70
ATOM     70  C   UNL     1     -22.055  -3.798  13.714  0.00  0.00    +0.000 C 
ATOM     71  H   UNL     1     -21.907  -4.401  12.812  0.00  0.00    +0.000 HD
ATOM     72  H   UNL     1     -21.899  -2.747  13.449  0.00  0.00    +0.000 HD
ATOM     73  H   UNL     1     -23.099  -3.909  14.028  0.00  0.00    +0.000 HD
ENDBRANCH  64  70
ENDBRANCH  61  64
ENDBRANCH  41  61
ENDBRANCH   3  41
TORSDOF 19
ENDMDL
MODEL 3
REMARK VINA RESULT:    -5.779      0.605      2.426
REMARK INTER + INTRA:         -11.754
REMARK INTER:                 -10.335
REMARK INTRA:                  -1.419
REMARK UNBOUND:                -1.076
REMARK  Name = 10390702
REMARK  19 active torsions:
REMARK  status: ('A' for Active; 'I' for Inactive)
REMARK    1  A    between atoms: O_3  and  C_26
REMARK    2  A    between atoms: O_4  and  C_27
REMARK    3  A    between atoms: O_5  and  C_33
REMARK    4  A    between atoms: C_8  and  C_11
REMARK    5  A    between atoms: C_9  and  C_14
REMARK    6  A    between atoms: C_9  and  C_15
REMARK    7  A    between atoms: C_10  and  C_13
REMARK    8  A    between atoms: C_12  and  C_18
REMARK    9  A    between atoms: C_12  and  C_20
REMARK   10  A    between atoms: C_13  and  C_21
REMARK   11  A    between atoms: C_18  and  C_22
REMARK   12  A    between atoms: C_18  and  C_23
REMARK   13  A    between atoms: C_21  and  C_25
REMARK   14  A    between atoms: C_22  and  C_24
REMARK   15  A    between atoms: C_24  and  C_28
REMARK   16  A    between atoms: C_24  and  C_29
REMARK   17  A    between atoms: C_25  and  C_30
REMARK   18  A    between atoms: C_31  and  C_35
REMARK   19  A    between atoms: C_32  and  C_34
REMARK                            x       y       z     vdW  Elec       q    Type
REMARK                         _______ _______ _______ _____ _____    ______ ____
ROOT
ATOM      1  O   UNL     1     -22.133  -7.003  14.141  0.00  0.00    +0.000 OA
ATOM      2  C   UNL     1     -20.324  -5.849  15.280  0.00  0.00    +0.000 C 
ATOM      3  C   UNL     1     -19.533  -4.640  14.716  0.00  0.00    +0.000 C 
ATOM      4  C   UNL     1     -19.329  -5.041  13.240  0.00  0.00    +0.000 C 
ATOM      5  C   UNL     1     -21.157  -6.265  14.083  0.00  0.00    +0.000 C 
ATOM      6  C   UNL     1     -20.649  -5.663  12.799  0.00  0.00    +0.000 C 
ATOM      7  H   UNL     1     -19.630  -6.683  15.385  0.00  0.00    +0.000 HD
ATOM      8  H   UNL     1     -19.231  -4.223  12.531  0.00  0.00    +0.000 HD
ATOM      9  H   UNL     1     -18.583  -5.806  13.024  0.00  0.00    +0.000 HD
ATOM     10  H   UNL     1     -21.363  -4.909  12.454  0.00  0.00    +0.000 HD
ATOM     11  H   UNL     1     -20.505  -6.432  12.037  0.00  0.00    +0.000 HD
ENDROOT
BRANCH   2  12
ATOM     12  C   UNL     1     -21.130  -5.588  16.513  0.00  0.00    +0.000 C 
ATOM     13  C   UNL     1     -20.533  -5.798  17.875  0.00  0.00    +0.000 C 
ATOM     14  C   UNL     1     -21.567  -6.752  17.354  0.00  0.00    +0.000 C 
ATOM     15  H   UNL     1     -21.885  -4.824  16.386  0.00  0.00    +0.000 HD
ATOM     16  H   UNL     1     -22.570  -6.711  17.766  0.00  0.00    +0.000 HD
BRANCH  13  17
ATOM     17  C   UNL     1     -19.109  -6.237  17.939  0.00  0.00    +0.000 C 
ATOM     18  H   UNL     1     -18.592  -5.640  18.701  0.00  0.00    +0.000 HD
ATOM     19  H   UNL     1     -18.896  -7.272  18.200  0.00  0.00    +0.000 HD
ATOM     20  H   UNL     1     -18.610  -6.015  16.994  0.00  0.00    +0.000 HD
ENDBRANCH  13  17
BRANCH  13  21
ATOM     21  C   UNL     1     -20.933  -4.889  18.987  0.00  0.00    +0.000 C 
ATOM     22  H   UNL     1     -20.114  -4.208  19.242  0.00  0.00    +0.000 HD
ATOM     23  H   UNL     1     -21.802  -4.288  18.700  0.00  0.00    +0.000 HD
ATOM     24  H   UNL     1     -21.201  -5.440  19.896  0.00  0.00    +0.000 HD
ENDBRANCH  13  21
BRANCH  14  25
ATOM     25  C   UNL     1     -21.186  -8.123  16.932  0.00  0.00    +0.000 C 
ATOM     26  H   UNL     1     -20.217  -8.236  16.442  0.00  0.00    +0.000 HD
ATOM     27  H   UNL     1     -21.959  -8.498  16.260  0.00  0.00    +0.000 HD
BRANCH  25  28
ATOM     28  C   UNL     1     -21.308  -9.135  18.074  0.00  0.00    +0.000 C 
ATOM     29  H   UNL     1     -21.419  -8.604  19.027  0.00  0.00    +0.000 HD
ATOM     30  H   UNL     1     -22.196  -9.762  17.931  0.00  0.00    +0.000 HD
BRANCH  28  32
ATOM     31  O   UNL     1     -19.983 -10.891  19.079  0.00  0.00    +0.000 OA
ATOM     32  C   UNL     1     -20.099 -10.047  18.191  0.00  0.00    +0.000 C 
BRANCH  32  33
ATOM     33  C   UNL     1     -19.028  -9.864  17.148  0.00  0.00    +0.000 C 
ATOM     34  H   UNL     1     -18.263  -9.182  17.525  0.00  0.00    +0.000 HD
ATOM     35  H   UNL     1     -19.473  -9.465  16.232  0.00  0.00    +0.000 HD
ATOM     36  H   UNL     1     -18.563 -10.828  16.923  0.00  0.00    +0.000 HD
ENDBRANCH  32  33
ENDBRANCH  28  32
ENDBRANCH  25  28
ENDBRANCH  14  25
ENDBRANCH   2  12
BRANCH   3  37
ATOM     37  C   UNL     1     -20.297  -3.304  14.800  0.00  0.00    +0.000 C 
ATOM     38  H   UNL     1     -20.789  -3.157  15.768  0.00  0.00    +0.000 HD
ATOM     39  H   UNL     1     -19.702  -2.419  14.559  0.00  0.00    +0.000 HD
ATOM     40  H   UNL     1     -21.104  -3.286  14.055  0.00  0.00    +0.000 HD
ENDBRANCH   3  37
BRANCH   3  41
ATOM     41  C   UNL     1     -18.179  -4.480  15.419  0.00  0.00    +0.000 C 
ATOM     42  H   UNL     1     -18.333  -4.742  16.467  0.00  0.00    +0.000 HD
BRANCH  41  43
ATOM     43  C   UNL     1     -17.718  -3.034  15.352  0.00  0.00    +0.000 A 
ATOM     44  C   UNL     1     -17.912  -2.188  16.444  0.00  0.00    +0.000 A 
ATOM     45  C   UNL     1     -17.100  -2.551  14.197  0.00  0.00    +0.000 A 
ATOM     46  C   UNL     1     -17.488  -0.861  16.383  0.00  0.00    +0.000 A 
ATOM     47  C   UNL     1     -16.677  -1.224  14.136  0.00  0.00    +0.000 A 
ATOM     48  C   UNL     1     -16.870  -0.379  15.228  0.00  0.00    +0.000 A 
BRANCH  46  50
ATOM     49  O   UNL     1     -16.783   0.693  18.021  0.00  0.00    +0.000 OA
ATOM     50  C   UNL     1     -17.690   0.024  17.525  0.00  0.00    +0.000 C 
ATOM     51  H   UNL     1     -18.707   0.092  17.941  0.00  0.00    +0.000 HD
ENDBRANCH  46  50
BRANCH  47  53
ATOM     52  O   UNL     1     -16.514  -0.859  11.803  0.00  0.00    +0.000 OA
ATOM     53  C   UNL     1     -16.031  -0.720  12.929  0.00  0.00    +0.000 C 
ATOM     54  H   UNL     1     -15.069  -0.197  13.046  0.00  0.00    +0.000 HD
ENDBRANCH  47  53
BRANCH  48  55
ATOM     55  O   UNL     1     -16.455   0.920  15.168  0.00  0.00    +0.000 OA
ATOM     56  H   UNL     1     -17.109   1.459  14.694  0.00  0.00    +0.000 HD
ENDBRANCH  48  55
BRANCH  45  57
ATOM     57  O   UNL     1     -16.913  -3.381  13.131  0.00  0.00    +0.000 OA
ATOM     58  H   UNL     1     -17.637  -4.020  13.052  0.00  0.00    +0.000 HD
ENDBRANCH  45  57
BRANCH  44  59
ATOM     59  O   UNL     1     -18.516  -2.664  17.571  0.00  0.00    +0.000 OA
ATOM     60  H   UNL     1     -19.302  -3.189  17.350  0.00  0.00    +0.000 HD
ENDBRANCH  44  59
ENDBRANCH  41  43
BRANCH  41  61
ATOM     61  C   UNL     1     -17.153  -5.476  14.831  0.00  0.00    +0.000 C 
ATOM     62  H   UNL     1     -17.654  -6.186  14.163  0.00  0.00    +0.000 HD
ATOM     63  H   UNL     1     -16.372  -4.979  14.251  0.00  0.00    +0.000 HD
BRANCH  61  64
ATOM     64  C   UNL     1     -16.371  -6.312  15.868  0.00  0.00    +0.000 C 
ATOM     65  H   UNL     1     -17.051  -7.029  16.342  0.00  0.00    +0.000 HD
BRANCH  64  66
ATOM     66  C   UNL     1     -15.216  -7.091  15.238  0.00  0.00    +0.000 C 
ATOM     67  H   UNL     1     -15.403  -8.167  15.238  0.00  0.00    +0.000 HD
ATOM     68  H   UNL     1     -14.292  -6.932  15.805  0.00  0.00    +0.000 HD
ATOM     69  H   UNL     1     -15.032  -6.765  14.209  0.00  0.00    +0.000 HD
ENDBRANCH  64  66
BRANCH  64  70
ATOM     70  C   UNL     1     -15.830  -5.392  16.967  0.00  0.00    +0.000 C 
ATOM     71  H   UNL     1     -16.642  -4.965  17.565  0.00  0.00    +0.000 HD
ATOM     72  H   UNL     1     -15.256  -4.565  16.535  0.00  0.00    +0.000 HD
ATOM     73  H   UNL     1     -15.164  -5.940  17.643  0.00  0.00    +0.000 HD
ENDBRANCH  64  70
ENDBRANCH  61  64
ENDBRANCH  41  61
ENDBRANCH   3  41
TORSDOF 19
ENDMDL
MODEL 4
REMARK VINA RESULT:    -5.730     16.958     20.739
REMARK INTER + INTRA:         -11.662
REMARK INTER:                 -10.150
REMARK INTRA:                  -1.512
REMARK UNBOUND:                -1.076
REMARK  Name = 10390702
REMARK  19 active torsions:
REMARK  status: ('A' for Active; 'I' for Inactive)
REMARK    1  A    between atoms: O_3  and  C_26
REMARK    2  A    between atoms: O_4  and  C_27
REMARK    3  A    between atoms: O_5  and  C_33
REMARK    4  A    between atoms: C_8  and  C_11
REMARK    5  A    between atoms: C_9  and  C_14
REMARK    6  A    between atoms: C_9  and  C_15
REMARK    7  A    between atoms: C_10  and  C_13
REMARK    8  A    between atoms: C_12  and  C_18
REMARK    9  A    between atoms: C_12  and  C_20
REMARK   10  A    between atoms: C_13  and  C_21
REMARK   11  A    between atoms: C_18  and  C_22
REMARK   12  A    between atoms: C_18  and  C_23
REMARK   13  A    between atoms: C_21  and  C_25
REMARK   14  A    between atoms: C_22  and  C_24
REMARK   15  A    between atoms: C_24  and  C_28
REMARK   16  A    between atoms: C_24  and  C_29
REMARK   17  A    between atoms: C_25  and  C_30
REMARK   18  A    between atoms: C_31  and  C_35
REMARK   19  A    between atoms: C_32  and  C_34
REMARK                            x       y       z     vdW  Elec       q    Type
REMARK                         _______ _______ _______ _____ _____    ______ ____
ROOT
ATOM      1  O   UNL     1      -7.075 -12.782   4.550  0.00  0.00    +0.000 OA
ATOM      2  C   UNL     1      -7.303 -15.194   4.724  0.00  0.00    +0.000 C 
ATOM      3  C   UNL     1      -8.184 -15.942   5.758  0.00  0.00    +0.000 C 
ATOM      4  C   UNL     1      -7.926 -15.138   7.051  0.00  0.00    +0.000 C 
ATOM      5  C   UNL     1      -7.390 -13.762   5.215  0.00  0.00    +0.000 C 
ATOM      6  C   UNL     1      -7.911 -13.674   6.625  0.00  0.00    +0.000 C 
ATOM      7  H   UNL     1      -6.264 -15.449   4.923  0.00  0.00    +0.000 HD
ATOM      8  H   UNL     1      -8.729 -15.139   7.783  0.00  0.00    +0.000 HD
ATOM      9  H   UNL     1      -6.970 -15.284   7.552  0.00  0.00    +0.000 HD
ATOM     10  H   UNL     1      -8.917 -13.242   6.605  0.00  0.00    +0.000 HD
ATOM     11  H   UNL     1      -7.249 -13.072   7.251  0.00  0.00    +0.000 HD
ENDROOT
BRANCH   2  12
ATOM     12  C   UNL     1      -7.692 -15.363   3.289  0.00  0.00    +0.000 C 
ATOM     13  C   UNL     1      -7.102 -16.469   2.463  0.00  0.00    +0.000 C 
ATOM     14  C   UNL     1      -6.684 -15.049   2.222  0.00  0.00    +0.000 C 
ATOM     15  H   UNL     1      -8.694 -15.021   3.066  0.00  0.00    +0.000 HD
ATOM     16  H   UNL     1      -7.048 -14.540   1.336  0.00  0.00    +0.000 HD
BRANCH  13  17
ATOM     17  C   UNL     1      -6.154 -17.400   3.140  0.00  0.00    +0.000 C 
ATOM     18  H   UNL     1      -5.293 -16.822   3.500  0.00  0.00    +0.000 HD
ATOM     19  H   UNL     1      -6.503 -17.957   4.007  0.00  0.00    +0.000 HD
ATOM     20  H   UNL     1      -5.754 -18.113   2.416  0.00  0.00    +0.000 HD
ENDBRANCH  13  17
BRANCH  13  21
ATOM     21  C   UNL     1      -7.947 -17.123   1.422  0.00  0.00    +0.000 C 
ATOM     22  H   UNL     1      -7.594 -16.862   0.419  0.00  0.00    +0.000 HD
ATOM     23  H   UNL     1      -7.911 -18.213   1.526  0.00  0.00    +0.000 HD
ATOM     24  H   UNL     1      -8.998 -16.821   1.493  0.00  0.00    +0.000 HD
ENDBRANCH  13  21
BRANCH  14  25
ATOM     25  C   UNL     1      -5.335 -14.579   2.629  0.00  0.00    +0.000 C 
ATOM     26  H   UNL     1      -4.991 -14.873   3.622  0.00  0.00    +0.000 HD
ATOM     27  H   UNL     1      -5.322 -13.491   2.566  0.00  0.00    +0.000 HD
BRANCH  25  28
ATOM     28  C   UNL     1      -4.265 -14.923   1.588  0.00  0.00    +0.000 C 
ATOM     29  H   UNL     1      -4.550 -15.837   1.055  0.00  0.00    +0.000 HD
ATOM     30  H   UNL     1      -4.181 -14.115   0.852  0.00  0.00    +0.000 HD
BRANCH  28  32
ATOM     31  O   UNL     1      -2.698 -15.941   3.123  0.00  0.00    +0.000 OA
ATOM     32  C   UNL     1      -2.894 -15.152   2.200  0.00  0.00    +0.000 C 
BRANCH  32  33
ATOM     33  C   UNL     1      -1.764 -14.348   1.610  0.00  0.00    +0.000 C 
ATOM     34  H   UNL     1      -0.814 -14.850   1.812  0.00  0.00    +0.000 HD
ATOM     35  H   UNL     1      -1.762 -13.345   2.044  0.00  0.00    +0.000 HD
ATOM     36  H   UNL     1      -1.896 -14.264   0.527  0.00  0.00    +0.000 HD
ENDBRANCH  32  33
ENDBRANCH  28  32
ENDBRANCH  25  28
ENDBRANCH  14  25
ENDBRANCH   2  12
BRANCH   3  37
ATOM     37  C   UNL     1      -9.688 -15.930   5.420  0.00  0.00    +0.000 C 
ATOM     38  H   UNL     1     -10.025 -16.862   4.953  0.00  0.00    +0.000 HD
ATOM     39  H   UNL     1     -10.345 -15.688   6.259  0.00  0.00    +0.000 HD
ATOM     40  H   UNL     1      -9.901 -15.140   4.687  0.00  0.00    +0.000 HD
ENDBRANCH   3  37
BRANCH   3  41
ATOM     41  C   UNL     1      -7.729 -17.396   5.934  0.00  0.00    +0.000 C 
ATOM     42  H   UNL     1      -7.317 -17.717   4.976  0.00  0.00    +0.000 HD
BRANCH  41  43
ATOM     43  C   UNL     1      -8.916 -18.284   6.265  0.00  0.00    +0.000 A 
ATOM     44  C   UNL     1      -9.576 -18.975   5.248  0.00  0.00    +0.000 A 
ATOM     45  C   UNL     1      -9.348 -18.409   7.586  0.00  0.00    +0.000 A 
ATOM     46  C   UNL     1     -10.665 -19.791   5.551  0.00  0.00    +0.000 A 
ATOM     47  C   UNL     1     -10.438 -19.224   7.889  0.00  0.00    +0.000 A 
ATOM     48  C   UNL     1     -11.096 -19.915   6.872  0.00  0.00    +0.000 A 
BRANCH  46  50
ATOM     49  O   UNL     1     -11.889 -19.949   3.534  0.00  0.00    +0.000 OA
ATOM     50  C   UNL     1     -11.354 -20.514   4.489  0.00  0.00    +0.000 C 
ATOM     51  H   UNL     1     -11.377 -21.614   4.553  0.00  0.00    +0.000 HD
ENDBRANCH  46  50
BRANCH  47  53
ATOM     52  O   UNL     1     -12.050 -19.132   9.619  0.00  0.00    +0.000 OA
ATOM     53  C   UNL     1     -10.889 -19.354   9.270  0.00  0.00    +0.000 C 
ATOM     54  H   UNL     1     -10.146 -19.663  10.023  0.00  0.00    +0.000 HD
ENDBRANCH  47  53
BRANCH  48  55
ATOM     55  O   UNL     1     -12.163 -20.714   7.170  0.00  0.00    +0.000 OA
ATOM     56  H   UNL     1     -12.975 -20.345   6.787  0.00  0.00    +0.000 HD
ENDBRANCH  48  55
BRANCH  45  57
ATOM     57  O   UNL     1      -8.702 -17.731   8.578  0.00  0.00    +0.000 OA
ATOM     58  H   UNL     1      -8.169 -17.006   8.217  0.00  0.00    +0.000 HD
ENDBRANCH  45  57
BRANCH  44  59
ATOM     59  O   UNL     1      -9.150 -18.851   3.958  0.00  0.00    +0.000 OA
ATOM     60  H   UNL     1      -8.310 -18.366   3.913  0.00  0.00    +0.000 HD
ENDBRANCH  44  59
ENDBRANCH  41  43
BRANCH  41  61
ATOM     61  C   UNL     1      -6.595 -17.477   6.983  0.00  0.00    +0.000 C 
ATOM     62  H   UNL     1      -6.443 -16.498   7.452  0.00  0.00    +0.000 HD
ATOM     63  H   UNL     1      -6.814 -18.190   7.781  0.00  0.00    +0.000 HD
BRANCH  61  64
ATOM     64  C   UNL     1      -5.222 -17.932   6.442  0.00  0.00    +0.000 C 
ATOM     65  H   UNL     1      -5.366 -18.476   5.501  0.00  0.00    +0.000 HD
BRANCH  64  66
ATOM     66  C   UNL     1      -4.280 -16.758   6.178  0.00  0.00    +0.000 C 
ATOM     67  H   UNL     1      -3.772 -16.430   7.088  0.00  0.00    +0.000 HD
ATOM     68  H   UNL     1      -4.841 -15.894   5.802  0.00  0.00    +0.000 HD
ATOM     69  H   UNL     1      -3.528 -17.015   5.426  0.00  0.00    +0.000 HD
ENDBRANCH  64  66
BRANCH  64  70
ATOM     70  C   UNL     1      -4.573 -18.897   7.438  0.00  0.00    +0.000 C 
ATOM     71  H   UNL     1      -4.233 -18.372   8.338  0.00  0.00    +0.000 HD
ATOM     72  H   UNL     1      -3.706 -19.395   6.990  0.00  0.00    +0.000 HD
ATOM     73  H   UNL     1      -5.279 -19.676   7.747  0.00  0.00    +0.000 HD
ENDBRANCH  64  70
ENDBRANCH  61  64
ENDBRANCH  41  61
ENDBRANCH   3  41
TORSDOF 19
ENDMDL
MODEL 5
REMARK VINA RESULT:    -5.719     16.998     20.893
REMARK INTER + INTRA:         -11.643
REMARK INTER:                 -10.105
REMARK INTRA:                  -1.538
REMARK UNBOUND:                -1.076
REMARK  Name = 10390702
REMARK  19 active torsions:
REMARK  status: ('A' for Active; 'I' for Inactive)
REMARK    1  A    between atoms: O_3  and  C_26
REMARK    2  A    between atoms: O_4  and  C_27
REMARK    3  A    between atoms: O_5  and  C_33
REMARK    4  A    between atoms: C_8  and  C_11
REMARK    5  A    between atoms: C_9  and  C_14
REMARK    6  A    between atoms: C_9  and  C_15
REMARK    7  A    between atoms: C_10  and  C_13
REMARK    8  A    between atoms: C_12  and  C_18
REMARK    9  A    between atoms: C_12  and  C_20
REMARK   10  A    between atoms: C_13  and  C_21
REMARK   11  A    between atoms: C_18  and  C_22
REMARK   12  A    between atoms: C_18  and  C_23
REMARK   13  A    between atoms: C_21  and  C_25
REMARK   14  A    between atoms: C_22  and  C_24
REMARK   15  A    between atoms: C_24  and  C_28
REMARK   16  A    between atoms: C_24  and  C_29
REMARK   17  A    between atoms: C_25  and  C_30
REMARK   18  A    between atoms: C_31  and  C_35
REMARK   19  A    between atoms: C_32  and  C_34
REMARK                            x       y       z     vdW  Elec       q    Type
REMARK                         _______ _______ _______ _____ _____    ______ ____
ROOT
ATOM      1  O   UNL     1      -7.085 -12.850   4.538  0.00  0.00    +0.000 OA
ATOM      2  C   UNL     1      -7.296 -15.262   4.736  0.00  0.00    +0.000 C 
ATOM      3  C   UNL     1      -8.158 -16.006   5.789  0.00  0.00    +0.000 C 
ATOM      4  C   UNL     1      -7.888 -15.188   7.071  0.00  0.00    +0.000 C 
ATOM      5  C   UNL     1      -7.384 -13.826   5.216  0.00  0.00    +0.000 C 
ATOM      6  C   UNL     1      -7.888 -13.729   6.632  0.00  0.00    +0.000 C 
ATOM      7  H   UNL     1      -6.252 -15.509   4.924  0.00  0.00    +0.000 HD
ATOM      8  H   UNL     1      -8.680 -15.188   7.814  0.00  0.00    +0.000 HD
ATOM      9  H   UNL     1      -6.924 -15.325   7.561  0.00  0.00    +0.000 HD
ATOM     10  H   UNL     1      -8.896 -13.303   6.621  0.00  0.00    +0.000 HD
ATOM     11  H   UNL     1      -7.221 -13.117   7.243  0.00  0.00    +0.000 HD
ENDROOT
BRANCH   2  12
ATOM     12  C   UNL     1      -7.702 -15.447   3.308  0.00  0.00    +0.000 C 
ATOM     13  C   UNL     1      -7.099 -16.541   2.477  0.00  0.00    +0.000 C 
ATOM     14  C   UNL     1      -6.719 -15.112   2.225  0.00  0.00    +0.000 C 
ATOM     15  H   UNL     1      -8.716 -15.130   3.100  0.00  0.00    +0.000 HD
ATOM     16  H   UNL     1      -7.110 -14.616   1.343  0.00  0.00    +0.000 HD
BRANCH  13  17
ATOM     17  C   UNL     1      -6.117 -17.445   3.142  0.00  0.00    +0.000 C 
ATOM     18  H   UNL     1      -5.105 -17.152   2.834  0.00  0.00    +0.000 HD
ATOM     19  H   UNL     1      -6.085 -17.467   4.230  0.00  0.00    +0.000 HD
ATOM     20  H   UNL     1      -6.255 -18.468   2.786  0.00  0.00    +0.000 HD
ENDBRANCH  13  17
BRANCH  13  21
ATOM     21  C   UNL     1      -7.943 -17.220   1.453  0.00  0.00    +0.000 C 
ATOM     22  H   UNL     1      -8.685 -17.868   1.931  0.00  0.00    +0.000 HD
ATOM     23  H   UNL     1      -8.476 -16.483   0.842  0.00  0.00    +0.000 HD
ATOM     24  H   UNL     1      -7.350 -17.842   0.773  0.00  0.00    +0.000 HD
ENDBRANCH  13  21
BRANCH  14  25
ATOM     25  C   UNL     1      -5.376 -14.608   2.608  0.00  0.00    +0.000 C 
ATOM     26  H   UNL     1      -5.013 -14.882   3.600  0.00  0.00    +0.000 HD
ATOM     27  H   UNL     1      -5.388 -13.520   2.533  0.00  0.00    +0.000 HD
BRANCH  25  28
ATOM     28  C   UNL     1      -4.313 -14.940   1.558  0.00  0.00    +0.000 C 
ATOM     29  H   UNL     1      -4.607 -15.840   1.007  0.00  0.00    +0.000 HD
ATOM     30  H   UNL     1      -4.223 -14.118   0.838  0.00  0.00    +0.000 HD
BRANCH  28  32
ATOM     31  O   UNL     1      -2.760 -15.953   3.110  0.00  0.00    +0.000 OA
ATOM     32  C   UNL     1      -2.942 -15.193   2.160  0.00  0.00    +0.000 C 
BRANCH  32  33
ATOM     33  C   UNL     1      -1.793 -14.451   1.527  0.00  0.00    +0.000 C 
ATOM     34  H   UNL     1      -1.845 -13.394   1.800  0.00  0.00    +0.000 HD
ATOM     35  H   UNL     1      -1.838 -14.565   0.441  0.00  0.00    +0.000 HD
ATOM     36  H   UNL     1      -0.845 -14.863   1.886  0.00  0.00    +0.000 HD
ENDBRANCH  32  33
ENDBRANCH  28  32
ENDBRANCH  25  28
ENDBRANCH  14  25
ENDBRANCH   2  12
BRANCH   3  37
ATOM     37  C   UNL     1      -9.666 -16.005   5.471  0.00  0.00    +0.000 C 
ATOM     38  H   UNL     1     -10.288 -16.125   6.366  0.00  0.00    +0.000 HD
ATOM     39  H   UNL     1     -10.015 -15.139   4.902  0.00  0.00    +0.000 HD
ATOM     40  H   UNL     1      -9.913 -16.858   4.825  0.00  0.00    +0.000 HD
ENDBRANCH   3  37
BRANCH   3  41
ATOM     41  C   UNL     1      -7.692 -17.455   5.972  0.00  0.00    +0.000 C 
ATOM     42  H   UNL     1      -7.284 -17.780   5.013  0.00  0.00    +0.000 HD
BRANCH  41  43
ATOM     43  C   UNL     1      -8.871 -18.349   6.315  0.00  0.00    +0.000 A 
ATOM     44  C   UNL     1      -9.296 -18.466   7.640  0.00  0.00    +0.000 A 
ATOM     45  C   UNL     1      -9.530 -19.055   5.308  0.00  0.00    +0.000 A 
ATOM     46  C   UNL     1     -10.379 -19.286   7.955  0.00  0.00    +0.000 A 
ATOM     47  C   UNL     1     -10.612 -19.876   5.624  0.00  0.00    +0.000 A 
ATOM     48  C   UNL     1     -11.037 -19.990   6.947  0.00  0.00    +0.000 A 
BRANCH  46  50
ATOM     49  O   UNL     1     -11.971 -19.140   9.699  0.00  0.00    +0.000 OA
ATOM     50  C   UNL     1     -10.823 -19.407   9.339  0.00  0.00    +0.000 C 
ATOM     51  H   UNL     1     -10.090 -19.765  10.080  0.00  0.00    +0.000 HD
ENDBRANCH  46  50
BRANCH  47  53
ATOM     52  O   UNL     1     -11.828 -20.062   3.602  0.00  0.00    +0.000 OA
ATOM     53  C   UNL     1     -11.300 -20.613   4.570  0.00  0.00    +0.000 C 
ATOM     54  H   UNL     1     -11.341 -21.710   4.659  0.00  0.00    +0.000 HD
ENDBRANCH  47  53
BRANCH  48  55
ATOM     55  O   UNL     1     -12.097 -20.794   7.256  0.00  0.00    +0.000 OA
ATOM     56  H   UNL     1     -12.341 -20.683   8.189  0.00  0.00    +0.000 HD
ENDBRANCH  48  55
BRANCH  45  57
ATOM     57  O   UNL     1      -9.111 -18.940   4.014  0.00  0.00    +0.000 OA
ATOM     58  H   UNL     1      -8.633 -18.109   3.873  0.00  0.00    +0.000 HD
ENDBRANCH  45  57
BRANCH  44  59
ATOM     59  O   UNL     1      -8.650 -17.773   8.622  0.00  0.00    +0.000 OA
ATOM     60  H   UNL     1      -8.934 -18.070   9.501  0.00  0.00    +0.000 HD
ENDBRANCH  44  59
ENDBRANCH  41  43
BRANCH  41  61
ATOM     61  C   UNL     1      -6.552 -17.521   7.015  0.00  0.00    +0.000 C 
ATOM     62  H   UNL     1      -6.414 -16.542   7.488  0.00  0.00    +0.000 HD
ATOM     63  H   UNL     1      -6.754 -18.242   7.811  0.00  0.00    +0.000 HD
BRANCH  61  64
ATOM     64  C   UNL     1      -5.174 -17.952   6.465  0.00  0.00    +0.000 C 
ATOM     65  H   UNL     1      -5.313 -18.481   5.516  0.00  0.00    +0.000 HD
BRANCH  64  66
ATOM     66  C   UNL     1      -4.246 -16.761   6.219  0.00  0.00    +0.000 C 
ATOM     67  H   UNL     1      -3.447 -16.708   6.961  0.00  0.00    +0.000 HD
ATOM     68  H   UNL     1      -4.804 -15.820   6.289  0.00  0.00    +0.000 HD
ATOM     69  H   UNL     1      -3.800 -16.807   5.221  0.00  0.00    +0.000 HD
ENDBRANCH  64  66
BRANCH  64  70
ATOM     70  C   UNL     1      -4.512 -18.925   7.445  0.00  0.00    +0.000 C 
ATOM     71  H   UNL     1      -5.130 -19.075   8.337  0.00  0.00    +0.000 HD
ATOM     72  H   UNL     1      -3.536 -18.547   7.769  0.00  0.00    +0.000 HD
ATOM     73  H   UNL     1      -4.350 -19.902   6.977  0.00  0.00    +0.000 HD
ENDBRANCH  64  70
ENDBRANCH  61  64
ENDBRANCH  41  61
ENDBRANCH   3  41
TORSDOF 19
ENDMDL
MODEL 6
REMARK VINA RESULT:    -5.671     17.494     20.960
REMARK INTER + INTRA:         -11.555
REMARK INTER:                 -10.479
REMARK INTRA:                  -1.076
REMARK UNBOUND:                -1.076
REMARK  Name = 10390702
REMARK  19 active torsions:
REMARK  status: ('A' for Active; 'I' for Inactive)
REMARK    1  A    between atoms: O_3  and  C_26
REMARK    2  A    between atoms: O_4  and  C_27
REMARK    3  A    between atoms: O_5  and  C_33
REMARK    4  A    between atoms: C_8  and  C_11
REMARK    5  A    between atoms: C_9  and  C_14
REMARK    6  A    between atoms: C_9  and  C_15
REMARK    7  A    between atoms: C_10  and  C_13
REMARK    8  A    between atoms: C_12  and  C_18
REMARK    9  A    between atoms: C_12  and  C_20
REMARK   10  A    between atoms: C_13  and  C_21
REMARK   11  A    between atoms: C_18  and  C_22
REMARK   12  A    between atoms: C_18  and  C_23
REMARK   13  A    between atoms: C_21  and  C_25
REMARK   14  A    between atoms: C_22  and  C_24
REMARK   15  A    between atoms: C_24  and  C_28
REMARK   16  A    between atoms: C_24  and  C_29
REMARK   17  A    between atoms: C_25  and  C_30
REMARK   18  A    between atoms: C_31  and  C_35
REMARK   19  A    between atoms: C_32  and  C_34
REMARK                            x       y       z     vdW  Elec       q    Type
REMARK                         _______ _______ _______ _____ _____    ______ ____
ROOT
ATOM      1  O   UNL     1      -2.957 -18.018   7.262  0.00  0.00    +0.000 OA
ATOM      2  C   UNL     1      -5.038 -17.479   6.129  0.00  0.00    +0.000 C 
ATOM      3  C   UNL     1      -5.162 -16.645   4.827  0.00  0.00    +0.000 C 
ATOM      4  C   UNL     1      -4.144 -15.509   5.066  0.00  0.00    +0.000 C 
ATOM      5  C   UNL     1      -3.569 -17.313   6.468  0.00  0.00    +0.000 C 
ATOM      6  C   UNL     1      -2.935 -16.174   5.714  0.00  0.00    +0.000 C 
ATOM      7  H   UNL     1      -5.528 -16.925   6.929  0.00  0.00    +0.000 HD
ATOM      8  H   UNL     1      -3.698 -15.072   4.177  0.00  0.00    +0.000 HD
ATOM      9  H   UNL     1      -4.426 -14.720   5.763  0.00  0.00    +0.000 HD
ATOM     10  H   UNL     1      -2.244 -16.583   4.970  0.00  0.00    +0.000 HD
ATOM     11  H   UNL     1      -2.410 -15.498   6.393  0.00  0.00    +0.000 HD
ENDROOT
BRANCH   2  12
ATOM     12  C   UNL     1      -5.478 -18.906   6.038  0.00  0.00    +0.000 C 
ATOM     13  C   UNL     1      -6.814 -19.329   6.574  0.00  0.00    +0.000 C 
ATOM     14  C   UNL     1      -5.559 -19.721   7.295  0.00  0.00    +0.000 C 
ATOM     15  H   UNL     1      -5.062 -19.436   5.192  0.00  0.00    +0.000 HD
ATOM     16  H   UNL     1      -5.223 -20.751   7.236  0.00  0.00    +0.000 HD
BRANCH  13  17
ATOM     17  C   UNL     1      -7.685 -18.269   7.159  0.00  0.00    +0.000 C 
ATOM     18  H   UNL     1      -8.524 -18.087   6.475  0.00  0.00    +0.000 HD
ATOM     19  H   UNL     1      -8.147 -18.452   8.128  0.00  0.00    +0.000 HD
ATOM     20  H   UNL     1      -7.135 -17.327   7.217  0.00  0.00    +0.000 HD
ENDBRANCH  13  17
BRANCH  13  21
ATOM     21  C   UNL     1      -7.568 -20.405   5.869  0.00  0.00    +0.000 C 
ATOM     22  H   UNL     1      -6.893 -21.006   5.249  0.00  0.00    +0.000 HD
ATOM     23  H   UNL     1      -8.055 -21.070   6.589  0.00  0.00    +0.000 HD
ATOM     24  H   UNL     1      -8.349 -20.002   5.213  0.00  0.00    +0.000 HD
ENDBRANCH  13  21
BRANCH  14  25
ATOM     25  C   UNL     1      -5.199 -19.084   8.587  0.00  0.00    +0.000 C 
ATOM     26  H   UNL     1      -5.658 -18.118   8.803  0.00  0.00    +0.000 HD
ATOM     27  H   UNL     1      -4.115 -18.965   8.616  0.00  0.00    +0.000 HD
BRANCH  25  28
ATOM     28  C   UNL     1      -5.398 -20.029   9.775  0.00  0.00    +0.000 C 
ATOM     29  H   UNL     1      -6.135 -20.797   9.514  0.00  0.00    +0.000 HD
ATOM     30  H   UNL     1      -4.456 -20.534  10.018  0.00  0.00    +0.000 HD
BRANCH  28  32
ATOM     31  O   UNL     1      -5.140 -18.958  11.927  0.00  0.00    +0.000 OA
ATOM     32  C   UNL     1      -5.892 -19.319  11.023  0.00  0.00    +0.000 C 
BRANCH  32  33
ATOM     33  C   UNL     1      -7.376 -19.073  11.102  0.00  0.00    +0.000 C 
ATOM     34  H   UNL     1      -7.609 -18.533  12.023  0.00  0.00    +0.000 HD
ATOM     35  H   UNL     1      -7.907 -20.028  11.078  0.00  0.00    +0.000 HD
ATOM     36  H   UNL     1      -7.696 -18.469  10.248  0.00  0.00    +0.000 HD
ENDBRANCH  32  33
ENDBRANCH  28  32
ENDBRANCH  25  28
ENDBRANCH  14  25
ENDBRANCH   2  12
BRANCH   3  37
ATOM     37  C   UNL     1      -4.792 -17.426   3.551  0.00  0.00    +0.000 C 
ATOM     38  H   UNL     1      -3.840 -17.101   3.116  0.00  0.00    +0.000 HD
ATOM     39  H   UNL     1      -4.785 -18.513   3.664  0.00  0.00    +0.000 HD
ATOM     40  H   UNL     1      -5.546 -17.250   2.772  0.00  0.00    +0.000 HD
ENDBRANCH   3  37
BRANCH   3  41
ATOM     41  C   UNL     1      -6.575 -16.071   4.663  0.00  0.00    +0.000 C 
ATOM     42  H   UNL     1      -7.243 -16.701   5.252  0.00  0.00    +0.000 HD
BRANCH  41  43
ATOM     43  C   UNL     1      -7.008 -16.144   3.209  0.00  0.00    +0.000 A 
ATOM     44  C   UNL     1      -7.799 -17.206   2.768  0.00  0.00    +0.000 A 
ATOM     45  C   UNL     1      -6.615 -15.149   2.313  0.00  0.00    +0.000 A 
ATOM     46  C   UNL     1      -8.197 -17.272   1.433  0.00  0.00    +0.000 A 
ATOM     47  C   UNL     1      -7.013 -15.215   0.978  0.00  0.00    +0.000 A 
ATOM     48  C   UNL     1      -7.804 -16.277   0.538  0.00  0.00    +0.000 A 
BRANCH  46  50
ATOM     49  O   UNL     1     -10.111 -18.220   0.416  0.00  0.00    +0.000 OA
ATOM     50  C   UNL     1      -9.024 -18.382   0.973  0.00  0.00    +0.000 C 
ATOM     51  H   UNL     1      -8.638 -19.402   1.127  0.00  0.00    +0.000 HD
ENDBRANCH  46  50
BRANCH  47  53
ATOM     52  O   UNL     1      -7.068 -13.034   0.062  0.00  0.00    +0.000 OA
ATOM     53  C   UNL     1      -6.602 -14.175   0.042  0.00  0.00    +0.000 C 
ATOM     54  H   UNL     1      -5.841 -14.437  -0.711  0.00  0.00    +0.000 HD
ENDBRANCH  47  53
BRANCH  48  55
ATOM     55  O   UNL     1      -8.194 -16.342  -0.769  0.00  0.00    +0.000 OA
ATOM     56  H   UNL     1      -9.075 -15.950  -0.876  0.00  0.00    +0.000 HD
ENDBRANCH  48  55
BRANCH  45  57
ATOM     57  O   UNL     1      -5.842 -14.112   2.747  0.00  0.00    +0.000 OA
ATOM     58  H   UNL     1      -5.466 -13.619   2.002  0.00  0.00    +0.000 HD
ENDBRANCH  45  57
BRANCH  44  59
ATOM     59  O   UNL     1      -8.181 -18.176   3.647  0.00  0.00    +0.000 OA
ATOM     60  H   UNL     1      -7.421 -18.711   3.928  0.00  0.00    +0.000 HD
ENDBRANCH  44  59
ENDBRANCH  41  43
BRANCH  41  61
ATOM     61  C   UNL     1      -6.641 -14.641   5.249  0.00  0.00    +0.000 C 
ATOM     62  H   UNL     1      -5.946 -14.545   6.092  0.00  0.00    +0.000 HD
ATOM     63  H   UNL     1      -6.371 -13.876   4.517  0.00  0.00    +0.000 HD
BRANCH  61  64
ATOM     64  C   UNL     1      -8.029 -14.196   5.758  0.00  0.00    +0.000 C 
ATOM     65  H   UNL     1      -8.484 -13.521   5.024  0.00  0.00    +0.000 HD
BRANCH  64  66
ATOM     66  C   UNL     1      -8.977 -15.376   5.976  0.00  0.00    +0.000 C 
ATOM     67  H   UNL     1      -9.955 -15.201   5.523  0.00  0.00    +0.000 HD
ATOM     68  H   UNL     1      -9.149 -15.536   7.046  0.00  0.00    +0.000 HD
ATOM     69  H   UNL     1      -8.558 -16.301   5.567  0.00  0.00    +0.000 HD
ENDBRANCH  64  66
BRANCH  64  70
ATOM     70  C   UNL     1      -7.870 -13.417   7.067  0.00  0.00    +0.000 C 
ATOM     71  H   UNL     1      -8.720 -13.587   7.738  0.00  0.00    +0.000 HD
ATOM     72  H   UNL     1      -7.801 -12.341   6.874  0.00  0.00    +0.000 HD
ATOM     73  H   UNL     1      -6.958 -13.718   7.594  0.00  0.00    +0.000 HD
ENDBRANCH  64  70
ENDBRANCH  61  64
ENDBRANCH  41  61
ENDBRANCH   3  41
TORSDOF 19
ENDMDL
MODEL 7
REMARK VINA RESULT:    -5.626     17.668     21.675
REMARK INTER + INTRA:         -11.471
REMARK INTER:                  -9.981
REMARK INTRA:                  -1.490
REMARK UNBOUND:                -1.076
REMARK  Name = 10390702
REMARK  19 active torsions:
REMARK  status: ('A' for Active; 'I' for Inactive)
REMARK    1  A    between atoms: O_3  and  C_26
REMARK    2  A    between atoms: O_4  and  C_27
REMARK    3  A    between atoms: O_5  and  C_33
REMARK    4  A    between atoms: C_8  and  C_11
REMARK    5  A    between atoms: C_9  and  C_14
REMARK    6  A    between atoms: C_9  and  C_15
REMARK    7  A    between atoms: C_10  and  C_13
REMARK    8  A    between atoms: C_12  and  C_18
REMARK    9  A    between atoms: C_12  and  C_20
REMARK   10  A    between atoms: C_13  and  C_21
REMARK   11  A    between atoms: C_18  and  C_22
REMARK   12  A    between atoms: C_18  and  C_23
REMARK   13  A    between atoms: C_21  and  C_25
REMARK   14  A    between atoms: C_22  and  C_24
REMARK   15  A    between atoms: C_24  and  C_28
REMARK   16  A    between atoms: C_24  and  C_29
REMARK   17  A    between atoms: C_25  and  C_30
REMARK   18  A    between atoms: C_31  and  C_35
REMARK   19  A    between atoms: C_32  and  C_34
REMARK                            x       y       z     vdW  Elec       q    Type
REMARK                         _______ _______ _______ _____ _____    ______ ____
ROOT
ATOM      1  O   UNL     1      -5.999 -17.038   0.951  0.00  0.00    +0.000 OA
ATOM      2  C   UNL     1      -5.992 -16.818   3.370  0.00  0.00    +0.000 C 
ATOM      3  C   UNL     1      -7.061 -17.405   4.329  0.00  0.00    +0.000 C 
ATOM      4  C   UNL     1      -8.376 -17.115   3.573  0.00  0.00    +0.000 C 
ATOM      5  C   UNL     1      -6.611 -17.083   2.011  0.00  0.00    +0.000 C 
ATOM      6  C   UNL     1      -8.078 -17.413   2.107  0.00  0.00    +0.000 C 
ATOM      7  H   UNL     1      -6.038 -15.732   3.442  0.00  0.00    +0.000 HD
ATOM      8  H   UNL     1      -9.200 -17.795   3.766  0.00  0.00    +0.000 HD
ATOM      9  H   UNL     1      -8.740 -16.087   3.572  0.00  0.00    +0.000 HD
ATOM     10  H   UNL     1      -8.220 -18.471   1.867  0.00  0.00    +0.000 HD
ATOM     11  H   UNL     1      -8.665 -16.785   1.434  0.00  0.00    +0.000 HD
ENDROOT
BRANCH   2  12
ATOM     12  C   UNL     1      -4.608 -17.365   3.519  0.00  0.00    +0.000 C 
ATOM     13  C   UNL     1      -3.609 -16.685   4.409  0.00  0.00    +0.000 C 
ATOM     14  C   UNL     1      -3.460 -16.608   2.918  0.00  0.00    +0.000 C 
ATOM     15  H   UNL     1      -4.548 -18.438   3.390  0.00  0.00    +0.000 HD
ATOM     16  H   UNL     1      -2.682 -17.193   2.440  0.00  0.00    +0.000 HD
BRANCH  13  17
ATOM     17  C   UNL     1      -4.066 -15.477   5.155  0.00  0.00    +0.000 C 
ATOM     18  H   UNL     1      -4.840 -15.779   5.871  0.00  0.00    +0.000 HD
ATOM     19  H   UNL     1      -3.337 -14.923   5.744  0.00  0.00    +0.000 HD
ATOM     20  H   UNL     1      -4.549 -14.778   4.468  0.00  0.00    +0.000 HD
ENDBRANCH  13  17
BRANCH  13  21
ATOM     21  C   UNL     1      -2.623 -17.516   5.157  0.00  0.00    +0.000 C 
ATOM     22  H   UNL     1      -1.869 -17.927   4.477  0.00  0.00    +0.000 HD
ATOM     23  H   UNL     1      -2.109 -16.916   5.916  0.00  0.00    +0.000 HD
ATOM     24  H   UNL     1      -3.099 -18.359   5.672  0.00  0.00    +0.000 HD
ENDBRANCH  13  21
BRANCH  14  25
ATOM     25  C   UNL     1      -3.739 -15.342   2.195  0.00  0.00    +0.000 C 
ATOM     26  H   UNL     1      -4.195 -14.536   2.772  0.00  0.00    +0.000 HD
ATOM     27  H   UNL     1      -4.387 -15.570   1.349  0.00  0.00    +0.000 HD
BRANCH  25  28
ATOM     28  C   UNL     1      -2.506 -14.814   1.456  0.00  0.00    +0.000 C 
ATOM     29  H   UNL     1      -2.739 -13.850   0.990  0.00  0.00    +0.000 HD
ATOM     30  H   UNL     1      -1.681 -14.658   2.160  0.00  0.00    +0.000 HD
BRANCH  28  32
ATOM     31  O   UNL     1      -1.084 -16.530   0.516  0.00  0.00    +0.000 OA
ATOM     32  C   UNL     1      -2.024 -15.751   0.362  0.00  0.00    +0.000 C 
BRANCH  32  33
ATOM     33  C   UNL     1      -2.766 -15.678  -0.947  0.00  0.00    +0.000 C 
ATOM     34  H   UNL     1      -2.051 -15.659  -1.773  0.00  0.00    +0.000 HD
ATOM     35  H   UNL     1      -3.390 -14.780  -0.965  0.00  0.00    +0.000 HD
ATOM     36  H   UNL     1      -3.409 -16.557  -1.056  0.00  0.00    +0.000 HD
ENDBRANCH  32  33
ENDBRANCH  28  32
ENDBRANCH  25  28
ENDBRANCH  14  25
ENDBRANCH   2  12
BRANCH   3  37
ATOM     37  C   UNL     1      -6.915 -18.919   4.572  0.00  0.00    +0.000 C 
ATOM     38  H   UNL     1      -5.915 -19.198   4.922  0.00  0.00    +0.000 HD
ATOM     39  H   UNL     1      -7.665 -19.352   5.240  0.00  0.00    +0.000 HD
ATOM     40  H   UNL     1      -7.060 -19.466   3.630  0.00  0.00    +0.000 HD
ENDBRANCH   3  37
BRANCH   3  41
ATOM     41  C   UNL     1      -7.054 -16.684   5.683  0.00  0.00    +0.000 C 
ATOM     42  H   UNL     1      -6.041 -16.311   5.838  0.00  0.00    +0.000 HD
BRANCH  41  43
ATOM     43  C   UNL     1      -7.379 -17.660   6.801  0.00  0.00    +0.000 A 
ATOM     44  C   UNL     1      -8.709 -17.947   7.112  0.00  0.00    +0.000 A 
ATOM     45  C   UNL     1      -6.349 -18.269   7.519  0.00  0.00    +0.000 A 
ATOM     46  C   UNL     1      -9.008 -18.843   8.137  0.00  0.00    +0.000 A 
ATOM     47  C   UNL     1      -6.648 -19.164   8.545  0.00  0.00    +0.000 A 
ATOM     48  C   UNL     1      -7.978 -19.452   8.854  0.00  0.00    +0.000 A 
BRANCH  46  50
ATOM     49  O   UNL     1     -10.835 -19.125   9.613  0.00  0.00    +0.000 OA
ATOM     50  C   UNL     1     -10.398 -19.144   8.462  0.00  0.00    +0.000 C 
ATOM     51  H   UNL     1     -11.074 -19.386   7.627  0.00  0.00    +0.000 HD
ENDBRANCH  46  50
BRANCH  47  53
ATOM     52  O   UNL     1      -5.438 -19.674  10.514  0.00  0.00    +0.000 OA
ATOM     53  C   UNL     1      -5.571 -19.800   9.295  0.00  0.00    +0.000 C 
ATOM     54  H   UNL     1      -4.851 -20.414   8.731  0.00  0.00    +0.000 HD
ENDBRANCH  47  53
BRANCH  48  55
ATOM     55  O   UNL     1      -8.270 -20.328   9.859  0.00  0.00    +0.000 OA
ATOM     56  H   UNL     1      -9.200 -20.238  10.122  0.00  0.00    +0.000 HD
ENDBRANCH  48  55
BRANCH  45  57
ATOM     57  O   UNL     1      -5.050 -17.985   7.213  0.00  0.00    +0.000 OA
ATOM     58  H   UNL     1      -4.458 -18.221   7.943  0.00  0.00    +0.000 HD
ENDBRANCH  45  57
BRANCH  44  59
ATOM     59  O   UNL     1      -9.714 -17.351   6.407  0.00  0.00    +0.000 OA
ATOM     60  H   UNL     1     -10.581 -17.682   6.690  0.00  0.00    +0.000 HD
ENDBRANCH  44  59
ENDBRANCH  41  43
BRANCH  41  61
ATOM     61  C   UNL     1      -8.003 -15.464   5.643  0.00  0.00    +0.000 C 
ATOM     62  H   UNL     1      -8.691 -15.546   4.792  0.00  0.00    +0.000 HD
ATOM     63  H   UNL     1      -8.613 -15.377   6.546  0.00  0.00    +0.000 HD
BRANCH  61  64
ATOM     64  C   UNL     1      -7.311 -14.088   5.528  0.00  0.00    +0.000 C 
ATOM     65  H   UNL     1      -6.236 -14.209   5.701  0.00  0.00    +0.000 HD
BRANCH  64  66
ATOM     66  C   UNL     1      -7.505 -13.450   4.152  0.00  0.00    +0.000 C 
ATOM     67  H   UNL     1      -8.524 -13.585   3.781  0.00  0.00    +0.000 HD
ATOM     68  H   UNL     1      -6.839 -13.915   3.416  0.00  0.00    +0.000 HD
ATOM     69  H   UNL     1      -7.276 -12.381   4.175  0.00  0.00    +0.000 HD
ENDBRANCH  64  66
BRANCH  64  70
ATOM     70  C   UNL     1      -7.852 -13.149   6.610  0.00  0.00    +0.000 C 
ATOM     71  H   UNL     1      -8.940 -13.040   6.536  0.00  0.00    +0.000 HD
ATOM     72  H   UNL     1      -7.406 -12.153   6.519  0.00  0.00    +0.000 HD
ATOM     73  H   UNL     1      -7.616 -13.528   7.610  0.00  0.00    +0.000 HD
ENDBRANCH  64  70
ENDBRANCH  61  64
ENDBRANCH  41  61
ENDBRANCH   3  41
TORSDOF 19
ENDMDL
MODEL 8
REMARK VINA RESULT:    -5.618     17.674     21.658
REMARK INTER + INTRA:         -11.455
REMARK INTER:                 -10.039
REMARK INTRA:                  -1.416
REMARK UNBOUND:                -1.076
REMARK  Name = 10390702
REMARK  19 active torsions:
REMARK  status: ('A' for Active; 'I' for Inactive)
REMARK    1  A    between atoms: O_3  and  C_26
REMARK    2  A    between atoms: O_4  and  C_27
REMARK    3  A    between atoms: O_5  and  C_33
REMARK    4  A    between atoms: C_8  and  C_11
REMARK    5  A    between atoms: C_9  and  C_14
REMARK    6  A    between atoms: C_9  and  C_15
REMARK    7  A    between atoms: C_10  and  C_13
REMARK    8  A    between atoms: C_12  and  C_18
REMARK    9  A    between atoms: C_12  and  C_20
REMARK   10  A    between atoms: C_13  and  C_21
REMARK   11  A    between atoms: C_18  and  C_22
REMARK   12  A    between atoms: C_18  and  C_23
REMARK   13  A    between atoms: C_21  and  C_25
REMARK   14  A    between atoms: C_22  and  C_24
REMARK   15  A    between atoms: C_24  and  C_28
REMARK   16  A    between atoms: C_24  and  C_29
REMARK   17  A    between atoms: C_25  and  C_30
REMARK   18  A    between atoms: C_31  and  C_35
REMARK   19  A    between atoms: C_32  and  C_34
REMARK                            x       y       z     vdW  Elec       q    Type
REMARK                         _______ _______ _______ _____ _____    ______ ____
ROOT
ATOM      1  O   UNL     1      -5.921 -16.913   0.918  0.00  0.00    +0.000 OA
ATOM      2  C   UNL     1      -5.940 -16.734   3.341  0.00  0.00    +0.000 C 
ATOM      3  C   UNL     1      -7.022 -17.330   4.278  0.00  0.00    +0.000 C 
ATOM      4  C   UNL     1      -8.327 -17.019   3.513  0.00  0.00    +0.000 C 
ATOM      5  C   UNL     1      -6.545 -16.972   1.971  0.00  0.00    +0.000 C 
ATOM      6  C   UNL     1      -8.015 -17.294   2.046  0.00  0.00    +0.000 C 
ATOM      7  H   UNL     1      -5.980 -15.649   3.431  0.00  0.00    +0.000 HD
ATOM      8  H   UNL     1      -9.157 -17.698   3.686  0.00  0.00    +0.000 HD
ATOM      9  H   UNL     1      -8.685 -15.990   3.525  0.00  0.00    +0.000 HD
ATOM     10  H   UNL     1      -8.160 -18.348   1.786  0.00  0.00    +0.000 HD
ATOM     11  H   UNL     1      -8.591 -16.652   1.377  0.00  0.00    +0.000 HD
ENDROOT
BRANCH   2  12
ATOM     12  C   UNL     1      -4.560 -17.291   3.495  0.00  0.00    +0.000 C 
ATOM     13  C   UNL     1      -3.572 -16.642   4.419  0.00  0.00    +0.000 C 
ATOM     14  C   UNL     1      -3.400 -16.523   2.934  0.00  0.00    +0.000 C 
ATOM     15  H   UNL     1      -4.503 -18.361   3.336  0.00  0.00    +0.000 HD
ATOM     16  H   UNL     1      -2.617 -17.098   2.451  0.00  0.00    +0.000 HD
BRANCH  13  17
ATOM     17  C   UNL     1      -4.035 -15.454   5.193  0.00  0.00    +0.000 C 
ATOM     18  H   UNL     1      -4.574 -15.803   6.082  0.00  0.00    +0.000 HD
ATOM     19  H   UNL     1      -3.289 -14.757   5.571  0.00  0.00    +0.000 HD
ATOM     20  H   UNL     1      -4.761 -14.888   4.604  0.00  0.00    +0.000 HD
ENDBRANCH  13  17
BRANCH  13  21
ATOM     21  C   UNL     1      -2.602 -17.499   5.158  0.00  0.00    +0.000 C 
ATOM     22  H   UNL     1      -2.043 -16.907   5.891  0.00  0.00    +0.000 HD
ATOM     23  H   UNL     1      -3.124 -18.301   5.692  0.00  0.00    +0.000 HD
ATOM     24  H   UNL     1      -1.873 -17.971   4.489  0.00  0.00    +0.000 HD
ENDBRANCH  13  21
BRANCH  14  25
ATOM     25  C   UNL     1      -3.661 -15.235   2.243  0.00  0.00    +0.000 C 
ATOM     26  H   UNL     1      -4.063 -14.423   2.853  0.00  0.00    +0.000 HD
ATOM     27  H   UNL     1      -4.353 -15.425   1.422  0.00  0.00    +0.000 HD
BRANCH  25  28
ATOM     28  C   UNL     1      -2.442 -14.740   1.461  0.00  0.00    +0.000 C 
ATOM     29  H   UNL     1      -2.689 -13.803   0.948  0.00  0.00    +0.000 HD
ATOM     30  H   UNL     1      -1.609 -14.541   2.145  0.00  0.00    +0.000 HD
BRANCH  28  32
ATOM     31  O   UNL     1      -1.051 -16.527   0.613  0.00  0.00    +0.000 OA
ATOM     32  C   UNL     1      -1.967 -15.731   0.413  0.00  0.00    +0.000 C 
BRANCH  32  33
ATOM     33  C   UNL     1      -2.685 -15.689  -0.911  0.00  0.00    +0.000 C 
ATOM     34  H   UNL     1      -2.886 -14.651  -1.187  0.00  0.00    +0.000 HD
ATOM     35  H   UNL     1      -3.622 -16.249  -0.838  0.00  0.00    +0.000 HD
ATOM     36  H   UNL     1      -2.061 -16.146  -1.685  0.00  0.00    +0.000 HD
ENDBRANCH  32  33
ENDBRANCH  28  32
ENDBRANCH  25  28
ENDBRANCH  14  25
ENDBRANCH   2  12
BRANCH   3  37
ATOM     37  C   UNL     1      -6.888 -18.849   4.497  0.00  0.00    +0.000 C 
ATOM     38  H   UNL     1      -6.445 -19.101   5.467  0.00  0.00    +0.000 HD
ATOM     39  H   UNL     1      -7.813 -19.416   4.364  0.00  0.00    +0.000 HD
ATOM     40  H   UNL     1      -6.211 -19.278   3.745  0.00  0.00    +0.000 HD
ENDBRANCH   3  37
BRANCH   3  41
ATOM     41  C   UNL     1      -7.025 -16.633   5.644  0.00  0.00    +0.000 C 
ATOM     42  H   UNL     1      -6.013 -16.264   5.814  0.00  0.00    +0.000 HD
BRANCH  41  43
ATOM     43  C   UNL     1      -7.362 -17.626   6.743  0.00  0.00    +0.000 A 
ATOM     44  C   UNL     1      -6.338 -18.264   7.445  0.00  0.00    +0.000 A 
ATOM     45  C   UNL     1      -8.695 -17.903   7.050  0.00  0.00    +0.000 A 
ATOM     46  C   UNL     1      -6.647 -19.175   8.454  0.00  0.00    +0.000 A 
ATOM     47  C   UNL     1      -9.004 -18.815   8.058  0.00  0.00    +0.000 A 
ATOM     48  C   UNL     1      -7.980 -19.451   8.761  0.00  0.00    +0.000 A 
BRANCH  46  50
ATOM     49  O   UNL     1      -5.456 -19.761  10.412  0.00  0.00    +0.000 OA
ATOM     50  C   UNL     1      -5.577 -19.841   9.189  0.00  0.00    +0.000 C 
ATOM     51  H   UNL     1      -4.863 -20.446   8.609  0.00  0.00    +0.000 HD
ENDBRANCH  46  50
BRANCH  47  53
ATOM     52  O   UNL     1     -10.833 -19.102   9.531  0.00  0.00    +0.000 OA
ATOM     53  C   UNL     1     -10.397 -19.103   8.379  0.00  0.00    +0.000 C 
ATOM     54  H   UNL     1     -11.076 -19.332   7.542  0.00  0.00    +0.000 HD
ENDBRANCH  47  53
BRANCH  48  55
ATOM     55  O   UNL     1      -8.283 -20.343   9.748  0.00  0.00    +0.000 OA
ATOM     56  H   UNL     1      -8.913 -21.004   9.420  0.00  0.00    +0.000 HD
ENDBRANCH  48  55
BRANCH  45  57
ATOM     57  O   UNL     1      -9.693 -17.278   6.361  0.00  0.00    +0.000 OA
ATOM     58  H   UNL     1      -9.897 -17.747   5.537  0.00  0.00    +0.000 HD
ENDBRANCH  45  57
BRANCH  44  59
ATOM     59  O   UNL     1      -5.037 -17.990   7.142  0.00  0.00    +0.000 OA
ATOM     60  H   UNL     1      -4.777 -18.414   6.309  0.00  0.00    +0.000 HD
ENDBRANCH  44  59
ENDBRANCH  41  43
BRANCH  41  61
ATOM     61  C   UNL     1      -7.972 -15.410   5.616  0.00  0.00    +0.000 C 
ATOM     62  H   UNL     1      -8.634 -15.463   4.744  0.00  0.00    +0.000 HD
ATOM     63  H   UNL     1      -8.607 -15.352   6.503  0.00  0.00    +0.000 HD
BRANCH  61  64
ATOM     64  C   UNL     1      -7.275 -14.032   5.567  0.00  0.00    +0.000 C 
ATOM     65  H   UNL     1      -6.204 -14.162   5.756  0.00  0.00    +0.000 HD
BRANCH  64  66
ATOM     66  C   UNL     1      -7.442 -13.342   4.213  0.00  0.00    +0.000 C 
ATOM     67  H   UNL     1      -7.554 -12.261   4.318  0.00  0.00    +0.000 HD
ATOM     68  H   UNL     1      -8.345 -13.704   3.707  0.00  0.00    +0.000 HD
ATOM     69  H   UNL     1      -6.591 -13.548   3.556  0.00  0.00    +0.000 HD
ENDBRANCH  64  66
BRANCH  64  70
ATOM     70  C   UNL     1      -7.836 -13.134   6.673  0.00  0.00    +0.000 C 
ATOM     71  H   UNL     1      -8.007 -13.698   7.597  0.00  0.00    +0.000 HD
ATOM     72  H   UNL     1      -8.788 -12.688   6.367  0.00  0.00    +0.000 HD
ATOM     73  H   UNL     1      -7.144 -12.315   6.900  0.00  0.00    +0.000 HD
ENDBRANCH  64  70
ENDBRANCH  61  64
ENDBRANCH  41  61
ENDBRANCH   3  41
TORSDOF 19
ENDMDL
MODEL 9
REMARK VINA RESULT:    -5.597     42.226     45.647
REMARK INTER + INTRA:         -11.417
REMARK INTER:                  -9.931
REMARK INTRA:                  -1.485
REMARK UNBOUND:                -1.076
REMARK  Name = 10390702
REMARK  19 active torsions:
REMARK  status: ('A' for Active; 'I' for Inactive)
REMARK    1  A    between atoms: O_3  and  C_26
REMARK    2  A    between atoms: O_4  and  C_27
REMARK    3  A    between atoms: O_5  and  C_33
REMARK    4  A    between atoms: C_8  and  C_11
REMARK    5  A    between atoms: C_9  and  C_14
REMARK    6  A    between atoms: C_9  and  C_15
REMARK    7  A    between atoms: C_10  and  C_13
REMARK    8  A    between atoms: C_12  and  C_18
REMARK    9  A    between atoms: C_12  and  C_20
REMARK   10  A    between atoms: C_13  and  C_21
REMARK   11  A    between atoms: C_18  and  C_22
REMARK   12  A    between atoms: C_18  and  C_23
REMARK   13  A    between atoms: C_21  and  C_25
REMARK   14  A    between atoms: C_22  and  C_24
REMARK   15  A    between atoms: C_24  and  C_28
REMARK   16  A    between atoms: C_24  and  C_29
REMARK   17  A    between atoms: C_25  and  C_30
REMARK   18  A    between atoms: C_31  and  C_35
REMARK   19  A    between atoms: C_32  and  C_34
REMARK                            x       y       z     vdW  Elec       q    Type
REMARK                         _______ _______ _______ _____ _____    ______ ____
ROOT
ATOM      1  O   UNL     1       1.326   7.500 -23.525  0.00  0.00    +0.000 OA
ATOM      2  C   UNL     1       3.043   5.892 -22.919  0.00  0.00    +0.000 C 
ATOM      3  C   UNL     1       4.516   6.235 -22.576  0.00  0.00    +0.000 C 
ATOM      4  C   UNL     1       4.859   7.305 -23.636  0.00  0.00    +0.000 C 
ATOM      5  C   UNL     1       2.515   7.227 -23.407  0.00  0.00    +0.000 C 
ATOM      6  C   UNL     1       3.624   8.193 -23.733  0.00  0.00    +0.000 C 
ATOM      7  H   UNL     1       3.042   5.292 -23.828  0.00  0.00    +0.000 HD
ATOM      8  H   UNL     1       5.620   8.027 -23.357  0.00  0.00    +0.000 HD
ATOM      9  H   UNL     1       5.030   6.965 -24.657  0.00  0.00    +0.000 HD
ATOM     10  H   UNL     1       3.631   8.990 -22.983  0.00  0.00    +0.000 HD
ATOM     11  H   UNL     1       3.497   8.610 -24.734  0.00  0.00    +0.000 HD
ENDROOT
BRANCH   2  12
ATOM     12  C   UNL     1       2.235   5.292 -21.812  0.00  0.00    +0.000 C 
ATOM     13  C   UNL     1       2.169   3.804 -21.632  0.00  0.00    +0.000 C 
ATOM     14  C   UNL     1       0.976   4.550 -22.151  0.00  0.00    +0.000 C 
ATOM     15  H   UNL     1       2.153   5.928 -20.939  0.00  0.00    +0.000 HD
ATOM     16  H   UNL     1       0.126   4.697 -21.494  0.00  0.00    +0.000 HD
BRANCH  13  17
ATOM     17  C   UNL     1       2.965   2.964 -22.573  0.00  0.00    +0.000 C 
ATOM     18  H   UNL     1       2.555   1.946 -22.567  0.00  0.00    +0.000 HD
ATOM     19  H   UNL     1       2.996   3.249 -23.624  0.00  0.00    +0.000 HD
ATOM     20  H   UNL     1       3.992   2.877 -22.215  0.00  0.00    +0.000 HD
ENDBRANCH  13  17
BRANCH  13  21
ATOM     21  C   UNL     1       2.085   3.245 -20.253  0.00  0.00    +0.000 C 
ATOM     22  H   UNL     1       1.150   2.691 -20.117  0.00  0.00    +0.000 HD
ATOM     23  H   UNL     1       2.919   2.562 -20.061  0.00  0.00    +0.000 HD
ATOM     24  H   UNL     1       2.120   4.028 -19.486  0.00  0.00    +0.000 HD
ENDBRANCH  13  21
BRANCH  14  25
ATOM     25  C   UNL     1       0.575   4.436 -23.576  0.00  0.00    +0.000 C 
ATOM     26  H   UNL     1       1.340   4.100 -24.278  0.00  0.00    +0.000 HD
ATOM     27  H   UNL     1       0.209   5.410 -23.904  0.00  0.00    +0.000 HD
BRANCH  25  28
ATOM     28  C   UNL     1      -0.694   3.597 -23.755  0.00  0.00    +0.000 C 
ATOM     29  H   UNL     1      -1.560   4.154 -23.378  0.00  0.00    +0.000 HD
ATOM     30  H   UNL     1      -0.863   3.389 -24.818  0.00  0.00    +0.000 HD
BRANCH  28  32
ATOM     31  O   UNL     1       0.034   1.318 -23.406  0.00  0.00    +0.000 OA
ATOM     32  C   UNL     1      -0.638   2.272 -23.016  0.00  0.00    +0.000 C 
BRANCH  32  33
ATOM     33  C   UNL     1      -1.463   2.179 -21.759  0.00  0.00    +0.000 C 
ATOM     34  H   UNL     1      -1.705   1.134 -21.556  0.00  0.00    +0.000 HD
ATOM     35  H   UNL     1      -2.379   2.764 -21.877  0.00  0.00    +0.000 HD
ATOM     36  H   UNL     1      -0.895   2.581 -20.914  0.00  0.00    +0.000 HD
ENDBRANCH  32  33
ENDBRANCH  28  32
ENDBRANCH  25  28
ENDBRANCH  14  25
ENDBRANCH   2  12
BRANCH   3  37
ATOM     37  C   UNL     1       4.707   6.813 -21.161  0.00  0.00    +0.000 C 
ATOM     38  H   UNL     1       4.953   7.881 -21.169  0.00  0.00    +0.000 HD
ATOM     39  H   UNL     1       3.871   6.641 -20.478  0.00  0.00    +0.000 HD
ATOM     40  H   UNL     1       5.554   6.320 -20.665  0.00  0.00    +0.000 HD
ENDBRANCH   3  37
BRANCH   3  41
ATOM     41  C   UNL     1       5.428   5.012 -22.738  0.00  0.00    +0.000 C 
ATOM     42  H   UNL     1       4.811   4.131 -22.556  0.00  0.00    +0.000 HD
BRANCH  41  43
ATOM     43  C   UNL     1       6.537   5.041 -21.701  0.00  0.00    +0.000 A 
ATOM     44  C   UNL     1       6.371   4.381 -20.482  0.00  0.00    +0.000 A 
ATOM     45  C   UNL     1       7.723   5.727 -21.965  0.00  0.00    +0.000 A 
ATOM     46  C   UNL     1       7.390   4.407 -19.530  0.00  0.00    +0.000 A 
ATOM     47  C   UNL     1       8.741   5.753 -21.013  0.00  0.00    +0.000 A 
ATOM     48  C   UNL     1       8.575   5.093 -19.796  0.00  0.00    +0.000 A 
BRANCH  46  50
ATOM     49  O   UNL     1       7.225   2.490 -18.155  0.00  0.00    +0.000 OA
ATOM     50  C   UNL     1       7.216   3.717 -18.257  0.00  0.00    +0.000 C 
ATOM     51  H   UNL     1       7.084   4.338 -17.356  0.00  0.00    +0.000 HD
ENDBRANCH  46  50
BRANCH  47  53
ATOM     52  O   UNL     1      10.017   7.683 -21.511  0.00  0.00    +0.000 OA
ATOM     53  C   UNL     1       9.980   6.471 -21.291  0.00  0.00    +0.000 C 
ATOM     54  H   UNL     1      10.916   5.889 -21.302  0.00  0.00    +0.000 HD
ENDBRANCH  47  53
BRANCH  48  55
ATOM     55  O   UNL     1       9.572   5.119 -18.864  0.00  0.00    +0.000 OA
ATOM     56  H   UNL     1       9.538   4.320 -18.314  0.00  0.00    +0.000 HD
ENDBRANCH  48  55
BRANCH  45  57
ATOM     57  O   UNL     1       7.882   6.371 -23.158  0.00  0.00    +0.000 OA
ATOM     58  H   UNL     1       7.249   6.050 -23.817  0.00  0.00    +0.000 HD
ENDBRANCH  45  57
BRANCH  44  59
ATOM     59  O   UNL     1       5.210   3.711 -20.227  0.00  0.00    +0.000 OA
ATOM     60  H   UNL     1       4.799   3.401 -21.051  0.00  0.00    +0.000 HD
ENDBRANCH  44  59
ENDBRANCH  41  43
BRANCH  41  61
ATOM     61  C   UNL     1       5.952   4.926 -24.190  0.00  0.00    +0.000 C 
ATOM     62  H   UNL     1       5.811   5.886 -24.701  0.00  0.00    +0.000 HD
ATOM     63  H   UNL     1       7.017   4.685 -24.237  0.00  0.00    +0.000 HD
BRANCH  61  64
ATOM     64  C   UNL     1       5.287   3.847 -25.073  0.00  0.00    +0.000 C 
ATOM     65  H   UNL     1       4.979   3.004 -24.444  0.00  0.00    +0.000 HD
BRANCH  64  66
ATOM     66  C   UNL     1       4.054   4.373 -25.808  0.00  0.00    +0.000 C 
ATOM     67  H   UNL     1       4.317   5.109 -26.570  0.00  0.00    +0.000 HD
ATOM     68  H   UNL     1       3.375   4.873 -25.108  0.00  0.00    +0.000 HD
ATOM     69  H   UNL     1       3.497   3.557 -26.280  0.00  0.00    +0.000 HD
ENDBRANCH  64  66
BRANCH  64  70
ATOM     70  C   UNL     1       6.304   3.317 -26.089  0.00  0.00    +0.000 C 
ATOM     71  H   UNL     1       5.805   2.851 -26.946  0.00  0.00    +0.000 HD
ATOM     72  H   UNL     1       6.958   2.569 -25.631  0.00  0.00    +0.000 HD
ATOM     73  H   UNL     1       6.938   4.127 -26.466  0.00  0.00    +0.000 HD
ENDBRANCH  64  70
ENDBRANCH  61  64
ENDBRANCH  41  61
ENDBRANCH   3  41
TORSDOF 19
ENDMDL
MODEL 10
REMARK VINA RESULT:    -5.585     42.229     45.684
REMARK INTER + INTRA:         -11.396
REMARK INTER:                  -9.857
REMARK INTRA:                  -1.539
REMARK UNBOUND:                -1.076
REMARK  Name = 10390702
REMARK  19 active torsions:
REMARK  status: ('A' for Active; 'I' for Inactive)
REMARK    1  A    between atoms: O_3  and  C_26
REMARK    2  A    between atoms: O_4  and  C_27
REMARK    3  A    between atoms: O_5  and  C_33
REMARK    4  A    between atoms: C_8  and  C_11
REMARK    5  A    between atoms: C_9  and  C_14
REMARK    6  A    between atoms: C_9  and  C_15
REMARK    7  A    between atoms: C_10  and  C_13
REMARK    8  A    between atoms: C_12  and  C_18
REMARK    9  A    between atoms: C_12  and  C_20
REMARK   10  A    between atoms: C_13  and  C_21
REMARK   11  A    between atoms: C_18  and  C_22
REMARK   12  A    between atoms: C_18  and  C_23
REMARK   13  A    between atoms: C_21  and  C_25
REMARK   14  A    between atoms: C_22  and  C_24
REMARK   15  A    between atoms: C_24  and  C_28
REMARK   16  A    between atoms: C_24  and  C_29
REMARK   17  A    between atoms: C_25  and  C_30
REMARK   18  A    between atoms: C_31  and  C_35
REMARK   19  A    between atoms: C_32  and  C_34
REMARK                            x       y       z     vdW  Elec       q    Type
REMARK                         _______ _______ _______ _____ _____    ______ ____
ROOT
ATOM      1  O   UNL     1       1.348   7.488 -23.453  0.00  0.00    +0.000 OA
ATOM      2  C   UNL     1       3.091   5.889 -22.897  0.00  0.00    +0.000 C 
ATOM      3  C   UNL     1       4.565   6.243 -22.567  0.00  0.00    +0.000 C 
ATOM      4  C   UNL     1       4.881   7.335 -23.612  0.00  0.00    +0.000 C 
ATOM      5  C   UNL     1       2.541   7.226 -23.355  0.00  0.00    +0.000 C 
ATOM      6  C   UNL     1       3.635   8.210 -23.679  0.00  0.00    +0.000 C 
ATOM      7  H   UNL     1       3.085   5.305 -23.816  0.00  0.00    +0.000 HD
ATOM      8  H   UNL     1       5.638   8.062 -23.330  0.00  0.00    +0.000 HD
ATOM      9  H   UNL     1       5.043   7.015 -24.641  0.00  0.00    +0.000 HD
ATOM     10  H   UNL     1       3.643   8.995 -22.915  0.00  0.00    +0.000 HD
ATOM     11  H   UNL     1       3.490   8.644 -24.670  0.00  0.00    +0.000 HD
ENDROOT
BRANCH   2  12
ATOM     12  C   UNL     1       2.304   5.261 -21.790  0.00  0.00    +0.000 C 
ATOM     13  C   UNL     1       2.256   3.769 -21.637  0.00  0.00    +0.000 C 
ATOM     14  C   UNL     1       1.048   4.513 -22.126  0.00  0.00    +0.000 C 
ATOM     15  H   UNL     1       2.229   5.880 -20.905  0.00  0.00    +0.000 HD
ATOM     16  H   UNL     1       0.206   4.639 -21.454  0.00  0.00    +0.000 HD
BRANCH  13  17
ATOM     17  C   UNL     1       3.047   2.955 -22.605  0.00  0.00    +0.000 C 
ATOM     18  H   UNL     1       4.009   2.698 -22.143  0.00  0.00    +0.000 HD
ATOM     19  H   UNL     1       2.635   2.006 -22.944  0.00  0.00    +0.000 HD
ATOM     20  H   UNL     1       3.287   3.555 -23.485  0.00  0.00    +0.000 HD
ENDBRANCH  13  17
BRANCH  13  21
ATOM     21  C   UNL     1       2.196   3.184 -20.267  0.00  0.00    +0.000 C 
ATOM     22  H   UNL     1       1.676   3.861 -19.581  0.00  0.00    +0.000 HD
ATOM     23  H   UNL     1       1.661   2.229 -20.278  0.00  0.00    +0.000 HD
ATOM     24  H   UNL     1       3.194   2.996 -19.853  0.00  0.00    +0.000 HD
ENDBRANCH  13  21
BRANCH  14  25
ATOM     25  C   UNL     1       0.629   4.421 -23.547  0.00  0.00    +0.000 C 
ATOM     26  H   UNL     1       1.379   4.076 -24.260  0.00  0.00    +0.000 HD
ATOM     27  H   UNL     1       0.280   5.405 -23.862  0.00  0.00    +0.000 HD
BRANCH  25  28
ATOM     28  C   UNL     1      -0.659   3.610 -23.719  0.00  0.00    +0.000 C 
ATOM     29  H   UNL     1      -1.509   4.182 -23.330  0.00  0.00    +0.000 HD
ATOM     30  H   UNL     1      -0.843   3.413 -24.781  0.00  0.00    +0.000 HD
BRANCH  28  32
ATOM     31  O   UNL     1       0.041   1.320 -23.380  0.00  0.00    +0.000 OA
ATOM     32  C   UNL     1      -0.624   2.279 -22.989  0.00  0.00    +0.000 C 
BRANCH  32  33
ATOM     33  C   UNL     1      -1.461   2.186 -21.740  0.00  0.00    +0.000 C 
ATOM     34  H   UNL     1      -1.672   3.191 -21.365  0.00  0.00    +0.000 HD
ATOM     35  H   UNL     1      -0.927   1.604 -20.984  0.00  0.00    +0.000 HD
ATOM     36  H   UNL     1      -2.408   1.688 -21.966  0.00  0.00    +0.000 HD
ENDBRANCH  32  33
ENDBRANCH  28  32
ENDBRANCH  25  28
ENDBRANCH  14  25
ENDBRANCH   2  12
BRANCH   3  37
ATOM     37  C   UNL     1       4.767   6.800 -21.144  0.00  0.00    +0.000 C 
ATOM     38  H   UNL     1       4.701   6.024 -20.373  0.00  0.00    +0.000 HD
ATOM     39  H   UNL     1       5.688   7.372 -21.002  0.00  0.00    +0.000 HD
ATOM     40  H   UNL     1       3.973   7.520 -20.907  0.00  0.00    +0.000 HD
ENDBRANCH   3  37
BRANCH   3  41
ATOM     41  C   UNL     1       5.488   5.034 -22.761  0.00  0.00    +0.000 C 
ATOM     42  H   UNL     1       4.886   4.143 -22.576  0.00  0.00    +0.000 HD
BRANCH  41  43
ATOM     43  C   UNL     1       6.619   5.066 -21.748  0.00  0.00    +0.000 A 
ATOM     44  C   UNL     1       7.800   5.749 -22.042  0.00  0.00    +0.000 A 
ATOM     45  C   UNL     1       6.479   4.413 -20.523  0.00  0.00    +0.000 A 
ATOM     46  C   UNL     1       8.839   5.780 -21.112  0.00  0.00    +0.000 A 
ATOM     47  C   UNL     1       7.517   4.443 -19.593  0.00  0.00    +0.000 A 
ATOM     48  C   UNL     1       8.697   5.127 -19.888  0.00  0.00    +0.000 A 
BRANCH  46  50
ATOM     49  O   UNL     1      10.804   6.190 -22.363  0.00  0.00    +0.000 OA
ATOM     50  C   UNL     1      10.073   6.493 -21.419  0.00  0.00    +0.000 C 
ATOM     51  H   UNL     1      10.342   7.346 -20.775  0.00  0.00    +0.000 HD
ENDBRANCH  46  50
BRANCH  47  53
ATOM     52  O   UNL     1       7.291   2.534 -18.213  0.00  0.00    +0.000 OA
ATOM     53  C   UNL     1       7.369   3.760 -18.313  0.00  0.00    +0.000 C 
ATOM     54  H   UNL     1       7.326   4.382 -17.405  0.00  0.00    +0.000 HD
ENDBRANCH  47  53
BRANCH  48  55
ATOM     55  O   UNL     1       9.714   5.156 -18.977  0.00  0.00    +0.000 OA
ATOM     56  H   UNL     1      10.153   4.291 -18.937  0.00  0.00    +0.000 HD
ENDBRANCH  48  55
BRANCH  45  57
ATOM     57  O   UNL     1       5.323   3.746 -20.239  0.00  0.00    +0.000 OA
ATOM     58  H   UNL     1       5.131   3.075 -20.911  0.00  0.00    +0.000 HD
ENDBRANCH  45  57
BRANCH  44  59
ATOM     59  O   UNL     1       7.934   6.387 -23.241  0.00  0.00    +0.000 OA
ATOM     60  H   UNL     1       7.503   7.257 -23.222  0.00  0.00    +0.000 HD
ENDBRANCH  44  59
ENDBRANCH  41  43
BRANCH  41  61
ATOM     61  C   UNL     1       5.982   4.971 -24.226  0.00  0.00    +0.000 C 
ATOM     62  H   UNL     1       5.811   5.932 -24.725  0.00  0.00    +0.000 HD
ATOM     63  H   UNL     1       7.050   4.752 -24.298  0.00  0.00    +0.000 HD
BRANCH  61  64
ATOM     64  C   UNL     1       5.320   3.885 -25.103  0.00  0.00    +0.000 C 
ATOM     65  H   UNL     1       5.010   3.047 -24.468  0.00  0.00    +0.000 HD
BRANCH  64  66
ATOM     66  C   UNL     1       4.089   4.406 -25.845  0.00  0.00    +0.000 C 
ATOM     67  H   UNL     1       3.201   3.806 -25.632  0.00  0.00    +0.000 HD
ATOM     68  H   UNL     1       4.247   4.359 -26.929  0.00  0.00    +0.000 HD
ATOM     69  H   UNL     1       3.882   5.449 -25.587  0.00  0.00    +0.000 HD
ENDBRANCH  64  66
BRANCH  64  70
ATOM     70  C   UNL     1       6.340   3.348 -26.112  0.00  0.00    +0.000 C 
ATOM     71  H   UNL     1       5.851   3.021 -27.036  0.00  0.00    +0.000 HD
ATOM     72  H   UNL     1       6.886   2.495 -25.697  0.00  0.00    +0.000 HD
ATOM     73  H   UNL     1       7.075   4.117 -26.372  0.00  0.00    +0.000 HD
ENDBRANCH  64  70
ENDBRANCH  61  64
ENDBRANCH  41  61
ENDBRANCH   3  41
TORSDOF 19
ENDMDL
