MODEL 1
REMARK VINA RESULT:    -5.354      0.000      0.000
REMARK INTER + INTRA:          -6.848
REMARK INTER:                  -6.580
REMARK INTRA:                  -0.268
REMARK UNBOUND:                -0.241
REMARK  Name = 3314
REMARK  5 active torsions:
REMARK  status: ('A' for Active; 'I' for Inactive)
REMARK    1  A    between atoms: O_1  and  C_6
REMARK    2  A    between atoms: O_1  and  C_11
REMARK    3  A    between atoms: O_2  and  C_8
REMARK    4  A    between atoms: C_3  and  C_4
REMARK    5  A    between atoms: C_4  and  C_10
REMARK                            x       y       z     vdW  Elec       q    Type
REMARK                         _______ _______ _______ _____ _____    ______ ____
ROOT
ATOM      1  C   UNL     1      17.110  -5.212  -3.122  0.00  0.00    +0.000 A 
ATOM      2  C   UNL     1      18.082  -4.285  -2.743  0.00  0.00    +0.000 A 
ATOM      3  C   UNL     1      19.373  -4.377  -3.262  0.00  0.00    +0.000 A 
ATOM      4  C   UNL     1      17.431  -6.231  -4.019  0.00  0.00    +0.000 A 
ATOM      5  C   UNL     1      19.693  -5.395  -4.159  0.00  0.00    +0.000 A 
ATOM      6  C   UNL     1      18.722  -6.322  -4.539  0.00  0.00    +0.000 A 
ATOM      7  H   UNL     1      17.838  -3.489  -2.043  0.00  0.00    +0.000 HD
ATOM      8  H   UNL     1      16.682  -6.958  -4.323  0.00  0.00    +0.000 HD
ATOM      9  H   UNL     1      18.958  -7.120  -5.237  0.00  0.00    +0.000 HD
ENDROOT
BRANCH   1  10
ATOM     10  C   UNL     1      15.730  -5.113  -2.567  0.00  0.00    +0.000 C 
ATOM     11  H   UNL     1      15.689  -4.316  -1.813  0.00  0.00    +0.000 HD
ATOM     12  H   UNL     1      15.037  -4.793  -3.356  0.00  0.00    +0.000 HD
BRANCH  10  13
ATOM     13  C   UNL     1      15.257  -6.394  -1.929  0.00  0.00    +0.000 C 
ATOM     14  C   UNL     1      15.431  -6.701  -0.639  0.00  0.00    +0.000 C 
ATOM     15  H   UNL     1      14.756  -7.117  -2.571  0.00  0.00    +0.000 HD
ATOM     16  H   UNL     1      15.072  -7.646  -0.245  0.00  0.00    +0.000 HD
ATOM     17  H   UNL     1      15.929  -6.021   0.043  0.00  0.00    +0.000 HD
ENDBRANCH  10  13
ENDBRANCH   1  10
BRANCH   5  18
ATOM     18  O   UNL     1      20.951  -5.496  -4.672  0.00  0.00    +0.000 OA
ATOM     19  H   UNL     1      21.071  -6.386  -5.047  0.00  0.00    +0.000 HD
ENDBRANCH   5  18
BRANCH   3  20
ATOM     20  O   UNL     1      20.313  -3.466  -2.884  0.00  0.00    +0.000 OA
BRANCH  20  21
ATOM     21  C   UNL     1      20.317  -3.067  -1.516  0.00  0.00    +0.000 C 
ATOM     22  H   UNL     1      21.198  -2.455  -1.297  0.00  0.00    +0.000 HD
ATOM     23  H   UNL     1      20.296  -3.942  -0.859  0.00  0.00    +0.000 HD
ATOM     24  H   UNL     1      19.420  -2.470  -1.330  0.00  0.00    +0.000 HD
ENDBRANCH  20  21
ENDBRANCH   3  20
TORSDOF 5
ENDMDL
MODEL 2
REMARK VINA RESULT:    -5.039     36.646     39.112
REMARK INTER + INTRA:          -6.459
REMARK INTER:                  -6.274
REMARK INTRA:                  -0.185
REMARK UNBOUND:                -0.241
REMARK  Name = 3314
REMARK  5 active torsions:
REMARK  status: ('A' for Active; 'I' for Inactive)
REMARK    1  A    between atoms: O_1  and  C_6
REMARK    2  A    between atoms: O_1  and  C_11
REMARK    3  A    between atoms: O_2  and  C_8
REMARK    4  A    between atoms: C_3  and  C_4
REMARK    5  A    between atoms: C_4  and  C_10
REMARK                            x       y       z     vdW  Elec       q    Type
REMARK                         _______ _______ _______ _____ _____    ______ ____
ROOT
ATOM      1  C   UNL     1      -4.485   4.440  25.929  0.00  0.00    +0.000 A 
ATOM      2  C   UNL     1      -4.060   3.679  27.019  0.00  0.00    +0.000 A 
ATOM      3  C   UNL     1      -4.865   3.576  28.153  0.00  0.00    +0.000 A 
ATOM      4  C   UNL     1      -5.713   5.098  25.974  0.00  0.00    +0.000 A 
ATOM      5  C   UNL     1      -6.094   4.234  28.197  0.00  0.00    +0.000 A 
ATOM      6  C   UNL     1      -6.519   4.994  27.108  0.00  0.00    +0.000 A 
ATOM      7  H   UNL     1      -3.103   3.164  26.990  0.00  0.00    +0.000 HD
ATOM      8  H   UNL     1      -6.056   5.692  25.130  0.00  0.00    +0.000 HD
ATOM      9  H   UNL     1      -7.474   5.512  27.129  0.00  0.00    +0.000 HD
ENDROOT
BRANCH   1  10
ATOM     10  C   UNL     1      -3.623   4.548  24.716  0.00  0.00    +0.000 C 
ATOM     11  H   UNL     1      -3.124   3.588  24.528  0.00  0.00    +0.000 HD
ATOM     12  H   UNL     1      -4.251   4.720  23.833  0.00  0.00    +0.000 HD
BRANCH  10  13
ATOM     13  C   UNL     1      -2.567   5.617  24.837  0.00  0.00    +0.000 C 
ATOM     14  C   UNL     1      -1.845   6.079  23.810  0.00  0.00    +0.000 C 
ATOM     15  H   UNL     1      -2.376   6.020  25.829  0.00  0.00    +0.000 HD
ATOM     16  H   UNL     1      -1.093   6.845  23.968  0.00  0.00    +0.000 HD
ATOM     17  H   UNL     1      -1.989   5.707  22.803  0.00  0.00    +0.000 HD
ENDBRANCH  10  13
ENDBRANCH   1  10
BRANCH   5  18
ATOM     18  O   UNL     1      -6.889   4.143  29.300  0.00  0.00    +0.000 OA
ATOM     19  H   UNL     1      -6.729   3.288  29.737  0.00  0.00    +0.000 HD
ENDBRANCH   5  18
BRANCH   3  20
ATOM     20  O   UNL     1      -4.441   2.832  29.212  0.00  0.00    +0.000 OA
BRANCH  20  21
ATOM     21  C   UNL     1      -4.693   1.429  29.161  0.00  0.00    +0.000 C 
ATOM     22  H   UNL     1      -5.207   1.166  28.230  0.00  0.00    +0.000 HD
ATOM     23  H   UNL     1      -5.291   1.114  30.021  0.00  0.00    +0.000 HD
ATOM     24  H   UNL     1      -3.733   0.906  29.192  0.00  0.00    +0.000 HD
ENDBRANCH  20  21
ENDBRANCH   3  20
TORSDOF 5
ENDMDL
MODEL 3
REMARK VINA RESULT:    -5.032     25.842     26.470
REMARK INTER + INTRA:          -6.450
REMARK INTER:                  -6.260
REMARK INTRA:                  -0.189
REMARK UNBOUND:                -0.241
REMARK  Name = 3314
REMARK  5 active torsions:
REMARK  status: ('A' for Active; 'I' for Inactive)
REMARK    1  A    between atoms: O_1  and  C_6
REMARK    2  A    between atoms: O_1  and  C_11
REMARK    3  A    between atoms: O_2  and  C_8
REMARK    4  A    between atoms: C_3  and  C_4
REMARK    5  A    between atoms: C_4  and  C_10
REMARK                            x       y       z     vdW  Elec       q    Type
REMARK                         _______ _______ _______ _____ _____    ______ ____
ROOT
ATOM      1  C   UNL     1       1.944   4.841 -20.342  0.00  0.00    +0.000 A 
ATOM      2  C   UNL     1       0.830   4.002 -20.310  0.00  0.00    +0.000 A 
ATOM      3  C   UNL     1       0.808   2.842 -21.084  0.00  0.00    +0.000 A 
ATOM      4  C   UNL     1       3.035   4.520 -21.150  0.00  0.00    +0.000 A 
ATOM      5  C   UNL     1       1.900   2.521 -21.890  0.00  0.00    +0.000 A 
ATOM      6  C   UNL     1       3.014   3.360 -21.923  0.00  0.00    +0.000 A 
ATOM      7  H   UNL     1      -0.024   4.247 -19.683  0.00  0.00    +0.000 HD
ATOM      8  H   UNL     1       3.910   5.165 -21.182  0.00  0.00    +0.000 HD
ATOM      9  H   UNL     1       3.871   3.121 -22.546  0.00  0.00    +0.000 HD
ENDROOT
BRANCH   1  10
ATOM     10  C   UNL     1       1.967   6.081 -19.514  0.00  0.00    +0.000 C 
ATOM     11  H   UNL     1       2.477   5.882 -18.562  0.00  0.00    +0.000 HD
ATOM     12  H   UNL     1       2.579   6.844 -20.010  0.00  0.00    +0.000 HD
BRANCH  10  13
ATOM     13  C   UNL     1       0.590   6.614 -19.212  0.00  0.00    +0.000 C 
ATOM     14  C   UNL     1       0.137   6.872 -17.980  0.00  0.00    +0.000 C 
ATOM     15  H   UNL     1      -0.077   6.782 -20.055  0.00  0.00    +0.000 HD
ATOM     16  H   UNL     1      -0.869   7.247 -17.832  0.00  0.00    +0.000 HD
ATOM     17  H   UNL     1       0.756   6.716 -17.105  0.00  0.00    +0.000 HD
ENDBRANCH  10  13
ENDBRANCH   1  10
BRANCH   5  18
ATOM     18  O   UNL     1       1.889   1.391 -22.652  0.00  0.00    +0.000 OA
ATOM     19  H   UNL     1       2.254   0.654 -22.132  0.00  0.00    +0.000 HD
ENDBRANCH   5  18
BRANCH   3  20
ATOM     20  O   UNL     1      -0.285   2.030 -21.044  0.00  0.00    +0.000 OA
BRANCH  20  21
ATOM     21  C   UNL     1      -1.339   2.316 -21.961  0.00  0.00    +0.000 C 
ATOM     22  H   UNL     1      -1.759   1.389 -22.364  0.00  0.00    +0.000 HD
ATOM     23  H   UNL     1      -0.978   2.950 -22.777  0.00  0.00    +0.000 HD
ATOM     24  H   UNL     1      -2.125   2.853 -21.424  0.00  0.00    +0.000 HD
ENDBRANCH  20  21
ENDBRANCH   3  20
TORSDOF 5
ENDMDL
MODEL 4
REMARK VINA RESULT:    -4.945     25.595     26.684
REMARK INTER + INTRA:          -6.343
REMARK INTER:                  -6.197
REMARK INTRA:                  -0.145
REMARK UNBOUND:                -0.241
REMARK  Name = 3314
REMARK  5 active torsions:
REMARK  status: ('A' for Active; 'I' for Inactive)
REMARK    1  A    between atoms: O_1  and  C_6
REMARK    2  A    between atoms: O_1  and  C_11
REMARK    3  A    between atoms: O_2  and  C_8
REMARK    4  A    between atoms: C_3  and  C_4
REMARK    5  A    between atoms: C_4  and  C_10
REMARK                            x       y       z     vdW  Elec       q    Type
REMARK                         _______ _______ _______ _____ _____    ______ ____
ROOT
ATOM      1  C   UNL     1       2.001   2.620 -20.679  0.00  0.00    +0.000 A 
ATOM      2  C   UNL     1       1.534   2.258 -21.943  0.00  0.00    +0.000 A 
ATOM      3  C   UNL     1       0.165   2.250 -22.206  0.00  0.00    +0.000 A 
ATOM      4  C   UNL     1       1.097   2.973 -19.677  0.00  0.00    +0.000 A 
ATOM      5  C   UNL     1      -0.739   2.604 -21.204  0.00  0.00    +0.000 A 
ATOM      6  C   UNL     1      -0.273   2.966 -19.940  0.00  0.00    +0.000 A 
ATOM      7  H   UNL     1       2.234   1.981 -22.728  0.00  0.00    +0.000 HD
ATOM      8  H   UNL     1       1.447   3.258 -18.689  0.00  0.00    +0.000 HD
ATOM      9  H   UNL     1      -0.966   3.244 -19.150  0.00  0.00    +0.000 HD
ENDROOT
BRANCH   1  10
ATOM     10  C   UNL     1       3.466   2.628 -20.400  0.00  0.00    +0.000 C 
ATOM     11  H   UNL     1       3.663   2.142 -19.435  0.00  0.00    +0.000 HD
ATOM     12  H   UNL     1       3.985   2.008 -21.141  0.00  0.00    +0.000 HD
BRANCH  10  13
ATOM     13  C   UNL     1       4.051   4.017 -20.361  0.00  0.00    +0.000 C 
ATOM     14  C   UNL     1       5.094   4.371 -19.603  0.00  0.00    +0.000 C 
ATOM     15  H   UNL     1       3.579   4.776 -20.981  0.00  0.00    +0.000 HD
ATOM     16  H   UNL     1       5.461   5.392 -19.616  0.00  0.00    +0.000 HD
ATOM     17  H   UNL     1       5.597   3.657 -18.961  0.00  0.00    +0.000 HD
ENDBRANCH  10  13
ENDBRANCH   1  10
BRANCH   5  18
ATOM     18  O   UNL     1      -2.080   2.599 -21.447  0.00  0.00    +0.000 OA
ATOM     19  H   UNL     1      -2.254   3.084 -22.272  0.00  0.00    +0.000 HD
ENDBRANCH   5  18
BRANCH   3  20
ATOM     20  O   UNL     1      -0.279   1.895 -23.443  0.00  0.00    +0.000 OA
BRANCH  20  21
ATOM     21  C   UNL     1      -0.524   2.949 -24.372  0.00  0.00    +0.000 C 
ATOM     22  H   UNL     1       0.215   2.929 -25.179  0.00  0.00    +0.000 HD
ATOM     23  H   UNL     1      -0.502   3.920 -23.867  0.00  0.00    +0.000 HD
ATOM     24  H   UNL     1      -1.519   2.802 -24.803  0.00  0.00    +0.000 HD
ENDBRANCH  20  21
ENDBRANCH   3  20
TORSDOF 5
ENDMDL
MODEL 5
REMARK VINA RESULT:    -4.888     24.236     25.196
REMARK INTER + INTRA:          -6.273
REMARK INTER:                  -6.044
REMARK INTRA:                  -0.229
REMARK UNBOUND:                -0.241
REMARK  Name = 3314
REMARK  5 active torsions:
REMARK  status: ('A' for Active; 'I' for Inactive)
REMARK    1  A    between atoms: O_1  and  C_6
REMARK    2  A    between atoms: O_1  and  C_11
REMARK    3  A    between atoms: O_2  and  C_8
REMARK    4  A    between atoms: C_3  and  C_4
REMARK    5  A    between atoms: C_4  and  C_10
REMARK                            x       y       z     vdW  Elec       q    Type
REMARK                         _______ _______ _______ _____ _____    ______ ____
ROOT
ATOM      1  C   UNL     1       3.779   4.991 -19.938  0.00  0.00    +0.000 A 
ATOM      2  C   UNL     1       2.804   5.952 -19.667  0.00  0.00    +0.000 A 
ATOM      3  C   UNL     1       1.453   5.633 -19.800  0.00  0.00    +0.000 A 
ATOM      4  C   UNL     1       3.401   3.710 -20.343  0.00  0.00    +0.000 A 
ATOM      5  C   UNL     1       1.076   4.352 -20.203  0.00  0.00    +0.000 A 
ATOM      6  C   UNL     1       2.050   3.390 -20.474  0.00  0.00    +0.000 A 
ATOM      7  H   UNL     1       3.092   6.952 -19.352  0.00  0.00    +0.000 HD
ATOM      8  H   UNL     1       4.150   2.952 -20.555  0.00  0.00    +0.000 HD
ATOM      9  H   UNL     1       1.770   2.389 -20.789  0.00  0.00    +0.000 HD
ENDROOT
BRANCH   1  10
ATOM     10  C   UNL     1       5.223   5.333 -19.796  0.00  0.00    +0.000 C 
ATOM     11  H   UNL     1       5.824   4.690 -20.452  0.00  0.00    +0.000 HD
ATOM     12  H   UNL     1       5.397   6.353 -20.162  0.00  0.00    +0.000 HD
BRANCH  10  13
ATOM     13  C   UNL     1       5.730   5.178 -18.385  0.00  0.00    +0.000 C 
ATOM     14  C   UNL     1       6.690   4.321 -18.021  0.00  0.00    +0.000 C 
ATOM     15  H   UNL     1       5.268   5.797 -17.618  0.00  0.00    +0.000 HD
ATOM     16  H   UNL     1       7.003   4.254 -16.985  0.00  0.00    +0.000 HD
ATOM     17  H   UNL     1       7.178   3.677 -18.744  0.00  0.00    +0.000 HD
ENDBRANCH  10  13
ENDBRANCH   1  10
BRANCH   5  18
ATOM     18  O   UNL     1      -0.240   4.028 -20.338  0.00  0.00    +0.000 OA
ATOM     19  H   UNL     1      -0.434   3.250 -19.786  0.00  0.00    +0.000 HD
ENDBRANCH   5  18
BRANCH   3  20
ATOM     20  O   UNL     1       0.511   6.579 -19.533  0.00  0.00    +0.000 OA
BRANCH  20  21
ATOM     21  C   UNL     1       0.207   6.823 -18.161  0.00  0.00    +0.000 C 
ATOM     22  H   UNL     1      -0.653   7.494 -18.072  0.00  0.00    +0.000 HD
ATOM     23  H   UNL     1       1.072   7.251 -17.645  0.00  0.00    +0.000 HD
ATOM     24  H   UNL     1      -0.043   5.868 -17.690  0.00  0.00    +0.000 HD
ENDBRANCH  20  21
ENDBRANCH   3  20
TORSDOF 5
ENDMDL
MODEL 6
REMARK VINA RESULT:    -4.836     24.646     26.616
REMARK INTER + INTRA:          -6.208
REMARK INTER:                  -5.933
REMARK INTRA:                  -0.275
REMARK UNBOUND:                -0.241
REMARK  Name = 3314
REMARK  5 active torsions:
REMARK  status: ('A' for Active; 'I' for Inactive)
REMARK    1  A    between atoms: O_1  and  C_6
REMARK    2  A    between atoms: O_1  and  C_11
REMARK    3  A    between atoms: O_2  and  C_8
REMARK    4  A    between atoms: C_3  and  C_4
REMARK    5  A    between atoms: C_4  and  C_10
REMARK                            x       y       z     vdW  Elec       q    Type
REMARK                         _______ _______ _______ _____ _____    ______ ____
ROOT
ATOM      1  C   UNL     1      -6.515 -13.465   3.403  0.00  0.00    +0.000 A 
ATOM      2  C   UNL     1      -5.217 -13.961   3.277  0.00  0.00    +0.000 A 
ATOM      3  C   UNL     1      -4.830 -14.612   2.106  0.00  0.00    +0.000 A 
ATOM      4  C   UNL     1      -7.426 -13.622   2.359  0.00  0.00    +0.000 A 
ATOM      5  C   UNL     1      -5.742 -14.768   1.061  0.00  0.00    +0.000 A 
ATOM      6  C   UNL     1      -7.040 -14.273   1.187  0.00  0.00    +0.000 A 
ATOM      7  H   UNL     1      -4.502 -13.842   4.087  0.00  0.00    +0.000 HD
ATOM      8  H   UNL     1      -8.440 -13.239   2.445  0.00  0.00    +0.000 HD
ATOM      9  H   UNL     1      -7.759 -14.387   0.382  0.00  0.00    +0.000 HD
ENDROOT
BRANCH   1  10
ATOM     10  C   UNL     1      -6.927 -12.768   4.656  0.00  0.00    +0.000 C 
ATOM     11  H   UNL     1      -6.112 -12.810   5.390  0.00  0.00    +0.000 HD
ATOM     12  H   UNL     1      -7.071 -11.700   4.452  0.00  0.00    +0.000 HD
BRANCH  10  13
ATOM     13  C   UNL     1      -8.162 -13.363   5.283  0.00  0.00    +0.000 C 
ATOM     14  C   UNL     1      -8.150 -14.402   6.126  0.00  0.00    +0.000 C 
ATOM     15  H   UNL     1      -9.120 -12.923   5.015  0.00  0.00    +0.000 HD
ATOM     16  H   UNL     1      -9.078 -14.787   6.536  0.00  0.00    +0.000 HD
ATOM     17  H   UNL     1      -7.225 -14.883   6.420  0.00  0.00    +0.000 HD
ENDBRANCH  10  13
ENDBRANCH   1  10
BRANCH   5  18
ATOM     18  O   UNL     1      -5.377 -15.404  -0.087  0.00  0.00    +0.000 OA
ATOM     19  H   UNL     1      -4.616 -14.940  -0.479  0.00  0.00    +0.000 HD
ENDBRANCH   5  18
BRANCH   3  20
ATOM     20  O   UNL     1      -3.561 -15.093   1.993  0.00  0.00    +0.000 OA
BRANCH  20  21
ATOM     21  C   UNL     1      -3.041 -15.819   3.105  0.00  0.00    +0.000 C 
ATOM     22  H   UNL     1      -3.711 -15.732   3.966  0.00  0.00    +0.000 HD
ATOM     23  H   UNL     1      -2.042 -15.458   3.368  0.00  0.00    +0.000 HD
ATOM     24  H   UNL     1      -2.968 -16.873   2.822  0.00  0.00    +0.000 HD
ENDBRANCH  20  21
ENDBRANCH   3  20
TORSDOF 5
ENDMDL
MODEL 7
REMARK VINA RESULT:    -4.674     26.882     28.107
REMARK INTER + INTRA:          -6.008
REMARK INTER:                  -5.798
REMARK INTRA:                  -0.210
REMARK UNBOUND:                -0.241
REMARK  Name = 3314
REMARK  5 active torsions:
REMARK  status: ('A' for Active; 'I' for Inactive)
REMARK    1  A    between atoms: O_1  and  C_6
REMARK    2  A    between atoms: O_1  and  C_11
REMARK    3  A    between atoms: O_2  and  C_8
REMARK    4  A    between atoms: C_3  and  C_4
REMARK    5  A    between atoms: C_4  and  C_10
REMARK                            x       y       z     vdW  Elec       q    Type
REMARK                         _______ _______ _______ _____ _____    ______ ____
ROOT
ATOM      1  C   UNL     1      -6.668 -14.054   3.566  0.00  0.00    +0.000 A 
ATOM      2  C   UNL     1      -6.225 -15.164   4.287  0.00  0.00    +0.000 A 
ATOM      3  C   UNL     1      -6.700 -15.393   5.577  0.00  0.00    +0.000 A 
ATOM      4  C   UNL     1      -7.587 -13.173   4.138  0.00  0.00    +0.000 A 
ATOM      5  C   UNL     1      -7.620 -14.512   6.148  0.00  0.00    +0.000 A 
ATOM      6  C   UNL     1      -8.063 -13.403   5.428  0.00  0.00    +0.000 A 
ATOM      7  H   UNL     1      -5.509 -15.854   3.847  0.00  0.00    +0.000 HD
ATOM      8  H   UNL     1      -7.941 -12.306   3.586  0.00  0.00    +0.000 HD
ATOM      9  H   UNL     1      -8.779 -12.709   5.860  0.00  0.00    +0.000 HD
ENDROOT
BRANCH   1  10
ATOM     10  C   UNL     1      -6.159 -13.810   2.186  0.00  0.00    +0.000 C 
ATOM     11  H   UNL     1      -5.432 -12.988   2.198  0.00  0.00    +0.000 HD
ATOM     12  H   UNL     1      -5.592 -14.685   1.843  0.00  0.00    +0.000 HD
BRANCH  10  13
ATOM     13  C   UNL     1      -7.251 -13.464   1.207  0.00  0.00    +0.000 C 
ATOM     14  C   UNL     1      -7.063 -13.326  -0.111  0.00  0.00    +0.000 C 
ATOM     15  H   UNL     1      -8.249 -13.302   1.608  0.00  0.00    +0.000 HD
ATOM     16  H   UNL     1      -7.893 -13.067  -0.760  0.00  0.00    +0.000 HD
ATOM     17  H   UNL     1      -6.088 -13.468  -0.562  0.00  0.00    +0.000 HD
ENDBRANCH  10  13
ENDBRANCH   1  10
BRANCH   5  18
ATOM     18  O   UNL     1      -8.091 -14.724   7.409  0.00  0.00    +0.000 OA
ATOM     19  H   UNL     1      -7.339 -14.766   8.025  0.00  0.00    +0.000 HD
ENDBRANCH   5  18
BRANCH   3  20
ATOM     20  O   UNL     1      -6.261 -16.479   6.271  0.00  0.00    +0.000 OA
BRANCH  20  21
ATOM     21  C   UNL     1      -4.892 -16.843   6.107  0.00  0.00    +0.000 C 
ATOM     22  H   UNL     1      -4.797 -17.665   5.390  0.00  0.00    +0.000 HD
ATOM     23  H   UNL     1      -4.451 -17.129   7.067  0.00  0.00    +0.000 HD
ATOM     24  H   UNL     1      -4.351 -15.975   5.718  0.00  0.00    +0.000 HD
ENDBRANCH  20  21
ENDBRANCH   3  20
TORSDOF 5
ENDMDL
MODEL 8
REMARK VINA RESULT:    -4.628     22.852     23.812
REMARK INTER + INTRA:          -5.951
REMARK INTER:                  -5.721
REMARK INTRA:                  -0.230
REMARK UNBOUND:                -0.241
REMARK  Name = 3314
REMARK  5 active torsions:
REMARK  status: ('A' for Active; 'I' for Inactive)
REMARK    1  A    between atoms: O_1  and  C_6
REMARK    2  A    between atoms: O_1  and  C_11
REMARK    3  A    between atoms: O_2  and  C_8
REMARK    4  A    between atoms: C_3  and  C_4
REMARK    5  A    between atoms: C_4  and  C_10
REMARK                            x       y       z     vdW  Elec       q    Type
REMARK                         _______ _______ _______ _____ _____    ______ ____
ROOT
ATOM      1  C   UNL     1       5.831   4.585 -18.786  0.00  0.00    +0.000 A 
ATOM      2  C   UNL     1       4.989   4.046 -19.759  0.00  0.00    +0.000 A 
ATOM      3  C   UNL     1       3.837   4.732 -20.142  0.00  0.00    +0.000 A 
ATOM      4  C   UNL     1       5.520   5.810 -18.195  0.00  0.00    +0.000 A 
ATOM      5  C   UNL     1       3.526   5.957 -19.551  0.00  0.00    +0.000 A 
ATOM      6  C   UNL     1       4.367   6.496 -18.578  0.00  0.00    +0.000 A 
ATOM      7  H   UNL     1       5.227   3.092 -20.223  0.00  0.00    +0.000 HD
ATOM      8  H   UNL     1       6.168   6.241 -17.437  0.00  0.00    +0.000 HD
ATOM      9  H   UNL     1       4.137   7.449 -18.110  0.00  0.00    +0.000 HD
ENDROOT
BRANCH   1  10
ATOM     10  C   UNL     1       7.064   3.851 -18.378  0.00  0.00    +0.000 C 
ATOM     11  H   UNL     1       6.890   3.336 -17.424  0.00  0.00    +0.000 HD
ATOM     12  H   UNL     1       7.271   3.051 -19.099  0.00  0.00    +0.000 HD
BRANCH  10  13
ATOM     13  C   UNL     1       8.262   4.752 -18.220  0.00  0.00    +0.000 C 
ATOM     14  C   UNL     1       9.512   4.401 -18.540  0.00  0.00    +0.000 C 
ATOM     15  H   UNL     1       8.091   5.742 -17.804  0.00  0.00    +0.000 HD
ATOM     16  H   UNL     1      10.332   5.096 -18.394  0.00  0.00    +0.000 HD
ATOM     17  H   UNL     1       9.740   3.425 -18.951  0.00  0.00    +0.000 HD
ENDBRANCH  10  13
ENDBRANCH   1  10
BRANCH   5  18
ATOM     18  O   UNL     1       2.402   6.636 -19.915  0.00  0.00    +0.000 OA
ATOM     19  H   UNL     1       2.470   6.880 -20.854  0.00  0.00    +0.000 HD
ENDBRANCH   5  18
BRANCH   3  20
ATOM     20  O   UNL     1       3.022   4.196 -21.093  0.00  0.00    +0.000 OA
BRANCH  20  21
ATOM     21  C   UNL     1       3.432   4.335 -22.451  0.00  0.00    +0.000 C 
ATOM     22  H   UNL     1       2.636   4.007 -23.127  0.00  0.00    +0.000 HD
ATOM     23  H   UNL     1       4.345   3.761 -22.639  0.00  0.00    +0.000 HD
ATOM     24  H   UNL     1       3.640   5.392 -22.640  0.00  0.00    +0.000 HD
ENDBRANCH  20  21
ENDBRANCH   3  20
TORSDOF 5
ENDMDL
MODEL 9
REMARK VINA RESULT:    -4.497     32.650     34.073
REMARK INTER + INTRA:          -5.791
REMARK INTER:                  -5.533
REMARK INTRA:                  -0.258
REMARK UNBOUND:                -0.241
REMARK  Name = 3314
REMARK  5 active torsions:
REMARK  status: ('A' for Active; 'I' for Inactive)
REMARK    1  A    between atoms: O_1  and  C_6
REMARK    2  A    between atoms: O_1  and  C_11
REMARK    3  A    between atoms: O_2  and  C_8
REMARK    4  A    between atoms: C_3  and  C_4
REMARK    5  A    between atoms: C_4  and  C_10
REMARK                            x       y       z     vdW  Elec       q    Type
REMARK                         _______ _______ _______ _____ _____    ______ ____
ROOT
ATOM      1  C   UNL     1     -16.219  -5.672  -3.087  0.00  0.00    +0.000 A 
ATOM      2  C   UNL     1     -15.347  -6.397  -3.901  0.00  0.00    +0.000 A 
ATOM      3  C   UNL     1     -14.504  -5.728  -4.788  0.00  0.00    +0.000 A 
ATOM      4  C   UNL     1     -16.249  -4.280  -3.163  0.00  0.00    +0.000 A 
ATOM      5  C   UNL     1     -14.533  -4.336  -4.863  0.00  0.00    +0.000 A 
ATOM      6  C   UNL     1     -15.405  -3.611  -4.050  0.00  0.00    +0.000 A 
ATOM      7  H   UNL     1     -15.319  -7.482  -3.847  0.00  0.00    +0.000 HD
ATOM      8  H   UNL     1     -16.923  -3.704  -2.534  0.00  0.00    +0.000 HD
ATOM      9  H   UNL     1     -15.438  -2.526  -4.098  0.00  0.00    +0.000 HD
ENDROOT
BRANCH   1  10
ATOM     10  C   UNL     1     -17.119  -6.388  -2.139  0.00  0.00    +0.000 C 
ATOM     11  H   UNL     1     -17.002  -7.473  -2.261  0.00  0.00    +0.000 HD
ATOM     12  H   UNL     1     -16.805  -6.184  -1.107  0.00  0.00    +0.000 HD
BRANCH  10  13
ATOM     13  C   UNL     1     -18.574  -6.044  -2.332  0.00  0.00    +0.000 C 
ATOM     14  C   UNL     1     -19.468  -6.853  -2.911  0.00  0.00    +0.000 C 
ATOM     15  H   UNL     1     -18.905  -5.066  -1.989  0.00  0.00    +0.000 HD
ATOM     16  H   UNL     1     -20.499  -6.539  -3.026  0.00  0.00    +0.000 HD
ATOM     17  H   UNL     1     -19.190  -7.834  -3.276  0.00  0.00    +0.000 HD
ENDBRANCH  10  13
ENDBRANCH   1  10
BRANCH   5  18
ATOM     18  O   UNL     1     -13.716  -3.671  -5.727  0.00  0.00    +0.000 OA
ATOM     19  H   UNL     1     -13.907  -2.719  -5.676  0.00  0.00    +0.000 HD
ENDBRANCH   5  18
BRANCH   3  20
ATOM     20  O   UNL     1     -13.656  -6.446  -5.578  0.00  0.00    +0.000 OA
BRANCH  20  21
ATOM     21  C   UNL     1     -14.225  -7.109  -6.704  0.00  0.00    +0.000 C 
ATOM     22  H   UNL     1     -15.297  -7.270  -6.554  0.00  0.00    +0.000 HD
ATOM     23  H   UNL     1     -13.723  -8.065  -6.883  0.00  0.00    +0.000 HD
ATOM     24  H   UNL     1     -14.086  -6.472  -7.583  0.00  0.00    +0.000 HD
ENDBRANCH  20  21
ENDBRANCH   3  20
TORSDOF 5
ENDMDL
MODEL 10
REMARK VINA RESULT:    -4.479     34.627     36.192
REMARK INTER + INTRA:          -5.767
REMARK INTER:                  -5.526
REMARK INTRA:                  -0.241
REMARK UNBOUND:                -0.241
REMARK  Name = 3314
REMARK  5 active torsions:
REMARK  status: ('A' for Active; 'I' for Inactive)
REMARK    1  A    between atoms: O_1  and  C_6
REMARK    2  A    between atoms: O_1  and  C_11
REMARK    3  A    between atoms: O_2  and  C_8
REMARK    4  A    between atoms: C_3  and  C_4
REMARK    5  A    between atoms: C_4  and  C_10
REMARK                            x       y       z     vdW  Elec       q    Type
REMARK                         _______ _______ _______ _____ _____    ______ ____
ROOT
ATOM      1  C   UNL     1      -2.175   5.962  25.175  0.00  0.00    +0.000 A 
ATOM      2  C   UNL     1      -1.298   6.697  25.974  0.00  0.00    +0.000 A 
ATOM      3  C   UNL     1      -0.283   7.450  25.385  0.00  0.00    +0.000 A 
ATOM      4  C   UNL     1      -2.036   5.980  23.788  0.00  0.00    +0.000 A 
ATOM      5  C   UNL     1      -0.145   7.469  23.997  0.00  0.00    +0.000 A 
ATOM      6  C   UNL     1      -1.022   6.734  23.198  0.00  0.00    +0.000 A 
ATOM      7  H   UNL     1      -1.401   6.686  27.057  0.00  0.00    +0.000 HD
ATOM      8  H   UNL     1      -2.714   5.413  23.155  0.00  0.00    +0.000 HD
ATOM      9  H   UNL     1      -0.926   6.740  22.116  0.00  0.00    +0.000 HD
ENDROOT
BRANCH   1  10
ATOM     10  C   UNL     1      -3.260   5.157  25.807  0.00  0.00    +0.000 C 
ATOM     11  H   UNL     1      -2.822   4.397  26.468  0.00  0.00    +0.000 HD
ATOM     12  H   UNL     1      -3.857   5.798  26.468  0.00  0.00    +0.000 HD
BRANCH  10  13
ATOM     13  C   UNL     1      -4.140   4.460  24.801  0.00  0.00    +0.000 C 
ATOM     14  C   UNL     1      -5.467   4.610  24.732  0.00  0.00    +0.000 C 
ATOM     15  H   UNL     1      -3.657   3.782  24.100  0.00  0.00    +0.000 HD
ATOM     16  H   UNL     1      -6.043   4.072  23.987  0.00  0.00    +0.000 HD
ATOM     17  H   UNL     1      -5.999   5.267  25.410  0.00  0.00    +0.000 HD
ENDBRANCH  10  13
ENDBRANCH   1  10
BRANCH   5  18
ATOM     18  O   UNL     1       0.843   8.200  23.409  0.00  0.00    +0.000 OA
ATOM     19  H   UNL     1       0.521   9.106  23.259  0.00  0.00    +0.000 HD
ENDBRANCH   5  18
BRANCH   3  20
ATOM     20  O   UNL     1       0.567   8.164  26.174  0.00  0.00    +0.000 OA
BRANCH  20  21
ATOM     21  C   UNL     1       0.859   7.628  27.463  0.00  0.00    +0.000 C 
ATOM     22  H   UNL     1       0.529   8.316  28.248  0.00  0.00    +0.000 HD
ATOM     23  H   UNL     1       1.930   7.429  27.564  0.00  0.00    +0.000 HD
ATOM     24  H   UNL     1       0.317   6.685  27.573  0.00  0.00    +0.000 HD
ENDBRANCH  20  21
ENDBRANCH   3  20
TORSDOF 5
ENDMDL
