MODEL 1
REMARK VINA RESULT:    -4.831      0.000      0.000
REMARK INTER + INTRA:          -6.730
REMARK INTER:                  -5.984
REMARK INTRA:                  -0.746
REMARK UNBOUND:                -0.346
REMARK  Name = 12813
REMARK  6 active torsions:
REMARK  status: ('A' for Active; 'I' for Inactive)
REMARK    1  A    between atoms: C_3  and  C_4
REMARK    2  A    between atoms: C_4  and  C_6
REMARK    3  A    between atoms: C_6  and  C_7
REMARK    4  A    between atoms: C_7  and  C_9
REMARK    5  A    between atoms: C_9  and  C_11
REMARK    6  A    between atoms: C_11  and  C_12
REMARK                            x       y       z     vdW  Elec       q    Type
REMARK                         _______ _______ _______ _____ _____    ______ ____
ROOT
ATOM      1  C   UNL     1      -8.031 -13.074   5.089  0.00  0.00    +0.000 C 
ATOM      2  H   UNL     1      -8.583 -13.866   4.569  0.00  0.00    +0.000 HD
ATOM      3  H   UNL     1      -8.626 -12.156   5.006  0.00  0.00    +0.000 HD
ENDROOT
BRANCH   1   4
ATOM      4  C   UNL     1      -7.855 -13.452   6.560  0.00  0.00    +0.000 C 
ATOM      5  H   UNL     1      -6.835 -13.214   6.885  0.00  0.00    +0.000 HD
ATOM      6  H   UNL     1      -8.543 -12.841   7.159  0.00  0.00    +0.000 HD
BRANCH   4   9
ATOM      7  O   UNL     1      -6.935 -15.684   6.636  0.00  0.00    +0.000 OA
ATOM      8  O   UNL     1      -6.433 -17.805   5.921  0.00  0.00    +0.000 OA
ATOM      9  C   UNL     1      -8.140 -14.923   6.793  0.00  0.00    +0.000 C 
ATOM     10  C   UNL     1      -9.093 -15.515   5.780  0.00  0.00    +0.000 C 
ATOM     11  C   UNL     1      -8.704 -16.975   5.792  0.00  0.00    +0.000 C 
ATOM     12  C   UNL     1      -7.238 -16.905   6.095  0.00  0.00    +0.000 C 
ATOM     13  H   UNL     1      -8.506 -15.084   7.816  0.00  0.00    +0.000 HD
ATOM     14  H   UNL     1      -8.913 -15.100   4.782  0.00  0.00    +0.000 HD
ATOM     15  H   UNL     1     -10.144 -15.347   6.031  0.00  0.00    +0.000 HD
ATOM     16  H   UNL     1      -8.885 -17.446   4.823  0.00  0.00    +0.000 HD
ATOM     17  H   UNL     1      -9.210 -17.524   6.591  0.00  0.00    +0.000 HD
ENDBRANCH   4   9
ENDBRANCH   1   4
BRANCH   1  18
ATOM     18  C   UNL     1      -6.679 -12.857   4.404  0.00  0.00    +0.000 C 
ATOM     19  H   UNL     1      -5.914 -12.636   5.158  0.00  0.00    +0.000 HD
ATOM     20  H   UNL     1      -6.738 -11.989   3.737  0.00  0.00    +0.000 HD
BRANCH  18  21
ATOM     21  C   UNL     1      -6.263 -14.090   3.598  0.00  0.00    +0.000 C 
ATOM     22  H   UNL     1      -6.138 -14.942   4.277  0.00  0.00    +0.000 HD
ATOM     23  H   UNL     1      -5.283 -13.906   3.139  0.00  0.00    +0.000 HD
BRANCH  21  24
ATOM     24  C   UNL     1      -7.265 -14.467   2.505  0.00  0.00    +0.000 C 
ATOM     25  H   UNL     1      -7.098 -15.508   2.204  0.00  0.00    +0.000 HD
ATOM     26  H   UNL     1      -8.282 -14.413   2.913  0.00  0.00    +0.000 HD
BRANCH  24  27
ATOM     27  C   UNL     1      -7.184 -13.579   1.274  0.00  0.00    +0.000 C 
ATOM     28  H   UNL     1      -6.265 -12.984   1.294  0.00  0.00    +0.000 HD
ATOM     29  H   UNL     1      -8.034 -12.892   1.231  0.00  0.00    +0.000 HD
ATOM     30  H   UNL     1      -7.181 -14.180   0.359  0.00  0.00    +0.000 HD
ENDBRANCH  24  27
ENDBRANCH  21  24
ENDBRANCH  18  21
ENDBRANCH   1  18
TORSDOF 6
ENDMDL
MODEL 2
REMARK VINA RESULT:    -4.754     32.241     33.606
REMARK INTER + INTRA:          -6.629
REMARK INTER:                  -6.319
REMARK INTRA:                  -0.310
REMARK UNBOUND:                -0.346
REMARK  Name = 12813
REMARK  6 active torsions:
REMARK  status: ('A' for Active; 'I' for Inactive)
REMARK    1  A    between atoms: C_3  and  C_4
REMARK    2  A    between atoms: C_4  and  C_6
REMARK    3  A    between atoms: C_6  and  C_7
REMARK    4  A    between atoms: C_7  and  C_9
REMARK    5  A    between atoms: C_9  and  C_11
REMARK    6  A    between atoms: C_11  and  C_12
REMARK                            x       y       z     vdW  Elec       q    Type
REMARK                         _______ _______ _______ _____ _____    ______ ____
ROOT
ATOM      1  C   UNL     1       2.026   6.355 -19.855  0.00  0.00    +0.000 C 
ATOM      2  H   UNL     1       1.935   6.803 -20.852  0.00  0.00    +0.000 HD
ATOM      3  H   UNL     1       2.043   7.178 -19.130  0.00  0.00    +0.000 HD
ENDROOT
BRANCH   1   4
ATOM      4  C   UNL     1       0.826   5.447 -19.588  0.00  0.00    +0.000 C 
ATOM      5  H   UNL     1       0.836   5.115 -18.543  0.00  0.00    +0.000 HD
ATOM      6  H   UNL     1      -0.091   6.032 -19.740  0.00  0.00    +0.000 HD
BRANCH   4   9
ATOM      7  O   UNL     1       0.179   4.578 -21.747  0.00  0.00    +0.000 OA
ATOM      8  O   UNL     1      -1.068   3.430 -23.293  0.00  0.00    +0.000 OA
ATOM      9  C   UNL     1       0.824   4.244 -20.511  0.00  0.00    +0.000 C 
ATOM     10  C   UNL     1       0.024   3.079 -19.973  0.00  0.00    +0.000 C 
ATOM     11  C   UNL     1      -0.374   2.355 -21.237  0.00  0.00    +0.000 C 
ATOM     12  C   UNL     1      -0.492   3.482 -22.219  0.00  0.00    +0.000 C 
ATOM     13  H   UNL     1       1.853   3.937 -20.742  0.00  0.00    +0.000 HD
ATOM     14  H   UNL     1      -0.878   3.428 -19.456  0.00  0.00    +0.000 HD
ATOM     15  H   UNL     1       0.592   2.454 -19.278  0.00  0.00    +0.000 HD
ATOM     16  H   UNL     1      -1.327   1.834 -21.117  0.00  0.00    +0.000 HD
ATOM     17  H   UNL     1       0.405   1.665 -21.574  0.00  0.00    +0.000 HD
ENDBRANCH   4   9
ENDBRANCH   1   4
BRANCH   1  18
ATOM     18  C   UNL     1       3.343   5.580 -19.761  0.00  0.00    +0.000 C 
ATOM     19  H   UNL     1       3.550   5.085 -20.717  0.00  0.00    +0.000 HD
ATOM     20  H   UNL     1       3.255   4.793 -19.001  0.00  0.00    +0.000 HD
BRANCH  18  21
ATOM     21  C   UNL     1       4.507   6.506 -19.399  0.00  0.00    +0.000 C 
ATOM     22  H   UNL     1       4.213   7.547 -19.584  0.00  0.00    +0.000 HD
ATOM     23  H   UNL     1       5.355   6.294 -20.062  0.00  0.00    +0.000 HD
BRANCH  21  24
ATOM     24  C   UNL     1       4.961   6.369 -17.945  0.00  0.00    +0.000 C 
ATOM     25  H   UNL     1       4.571   5.433 -17.529  0.00  0.00    +0.000 HD
ATOM     26  H   UNL     1       6.056   6.300 -17.913  0.00  0.00    +0.000 HD
BRANCH  24  27
ATOM     27  C   UNL     1       4.517   7.523 -17.059  0.00  0.00    +0.000 C 
ATOM     28  H   UNL     1       3.425   7.580 -17.030  0.00  0.00    +0.000 HD
ATOM     29  H   UNL     1       4.900   8.475 -17.438  0.00  0.00    +0.000 HD
ATOM     30  H   UNL     1       4.879   7.390 -16.034  0.00  0.00    +0.000 HD
ENDBRANCH  24  27
ENDBRANCH  21  24
ENDBRANCH  18  21
ENDBRANCH   1  18
TORSDOF 6
ENDMDL
MODEL 3
REMARK VINA RESULT:    -4.737     32.234     34.063
REMARK INTER + INTRA:          -6.607
REMARK INTER:                  -5.690
REMARK INTRA:                  -0.916
REMARK UNBOUND:                -0.346
REMARK  Name = 12813
REMARK  6 active torsions:
REMARK  status: ('A' for Active; 'I' for Inactive)
REMARK    1  A    between atoms: C_3  and  C_4
REMARK    2  A    between atoms: C_4  and  C_6
REMARK    3  A    between atoms: C_6  and  C_7
REMARK    4  A    between atoms: C_7  and  C_9
REMARK    5  A    between atoms: C_9  and  C_11
REMARK    6  A    between atoms: C_11  and  C_12
REMARK                            x       y       z     vdW  Elec       q    Type
REMARK                         _______ _______ _______ _____ _____    ______ ____
ROOT
ATOM      1  C   UNL     1      -0.853   2.953 -20.754  0.00  0.00    +0.000 C 
ATOM      2  H   UNL     1      -1.017   3.981 -21.097  0.00  0.00    +0.000 HD
ATOM      3  H   UNL     1      -1.739   2.658 -20.179  0.00  0.00    +0.000 HD
ENDROOT
BRANCH   1   4
ATOM      4  C   UNL     1      -0.680   2.030 -21.959  0.00  0.00    +0.000 C 
ATOM      5  H   UNL     1       0.076   1.266 -21.737  0.00  0.00    +0.000 HD
ATOM      6  H   UNL     1      -1.631   1.511 -22.137  0.00  0.00    +0.000 HD
BRANCH   4   9
ATOM      7  O   UNL     1       1.147   2.797 -23.340  0.00  0.00    +0.000 OA
ATOM      8  O   UNL     1       2.704   4.248 -24.197  0.00  0.00    +0.000 OA
ATOM      9  C   UNL     1      -0.280   2.805 -23.199  0.00  0.00    +0.000 C 
ATOM     10  C   UNL     1      -0.643   4.271 -23.131  0.00  0.00    +0.000 C 
ATOM     11  C   UNL     1       0.375   4.895 -24.057  0.00  0.00    +0.000 C 
ATOM     12  C   UNL     1       1.555   3.987 -23.880  0.00  0.00    +0.000 C 
ATOM     13  H   UNL     1      -0.707   2.338 -24.097  0.00  0.00    +0.000 HD
ATOM     14  H   UNL     1      -0.499   4.664 -22.118  0.00  0.00    +0.000 HD
ATOM     15  H   UNL     1      -1.676   4.471 -23.428  0.00  0.00    +0.000 HD
ATOM     16  H   UNL     1       0.615   5.918 -23.758  0.00  0.00    +0.000 HD
ATOM     17  H   UNL     1       0.050   4.862 -25.101  0.00  0.00    +0.000 HD
ENDBRANCH   4   9
ENDBRANCH   1   4
BRANCH   1  18
ATOM     18  C   UNL     1       0.373   2.908 -19.838  0.00  0.00    +0.000 C 
ATOM     19  H   UNL     1       0.990   2.036 -20.088  0.00  0.00    +0.000 HD
ATOM     20  H   UNL     1       0.052   2.790 -18.796  0.00  0.00    +0.000 HD
BRANCH  18  21
ATOM     21  C   UNL     1       1.210   4.183 -19.970  0.00  0.00    +0.000 C 
ATOM     22  H   UNL     1       1.213   4.715 -19.010  0.00  0.00    +0.000 HD
ATOM     23  H   UNL     1       0.736   4.852 -20.699  0.00  0.00    +0.000 HD
BRANCH  21  24
ATOM     24  C   UNL     1       2.655   3.919 -20.397  0.00  0.00    +0.000 C 
ATOM     25  H   UNL     1       2.812   4.312 -21.408  0.00  0.00    +0.000 HD
ATOM     26  H   UNL     1       3.334   4.467 -19.733  0.00  0.00    +0.000 HD
BRANCH  24  27
ATOM     27  C   UNL     1       3.034   2.446 -20.377  0.00  0.00    +0.000 C 
ATOM     28  H   UNL     1       2.137   1.824 -20.308  0.00  0.00    +0.000 HD
ATOM     29  H   UNL     1       3.674   2.220 -19.520  0.00  0.00    +0.000 HD
ATOM     30  H   UNL     1       3.572   2.170 -21.290  0.00  0.00    +0.000 HD
ENDBRANCH  24  27
ENDBRANCH  21  24
ENDBRANCH  18  21
ENDBRANCH   1  18
TORSDOF 6
ENDMDL
MODEL 4
REMARK VINA RESULT:    -4.673      1.582      2.923
REMARK INTER + INTRA:          -6.521
REMARK INTER:                  -6.138
REMARK INTRA:                  -0.383
REMARK UNBOUND:                -0.346
REMARK  Name = 12813
REMARK  6 active torsions:
REMARK  status: ('A' for Active; 'I' for Inactive)
REMARK    1  A    between atoms: C_3  and  C_4
REMARK    2  A    between atoms: C_4  and  C_6
REMARK    3  A    between atoms: C_6  and  C_7
REMARK    4  A    between atoms: C_7  and  C_9
REMARK    5  A    between atoms: C_9  and  C_11
REMARK    6  A    between atoms: C_11  and  C_12
REMARK                            x       y       z     vdW  Elec       q    Type
REMARK                         _______ _______ _______ _____ _____    ______ ____
ROOT
ATOM      1  C   UNL     1      -7.381 -13.622   2.442  0.00  0.00    +0.000 C 
ATOM      2  H   UNL     1      -7.602 -14.673   2.665  0.00  0.00    +0.000 HD
ATOM      3  H   UNL     1      -8.276 -13.042   2.697  0.00  0.00    +0.000 HD
ENDROOT
BRANCH   1   4
ATOM      4  C   UNL     1      -6.197 -13.156   3.288  0.00  0.00    +0.000 C 
ATOM      5  H   UNL     1      -5.288 -13.688   2.980  0.00  0.00    +0.000 HD
ATOM      6  H   UNL     1      -6.034 -12.088   3.097  0.00  0.00    +0.000 HD
BRANCH   4   9
ATOM      7  O   UNL     1      -6.220 -14.756   5.097  0.00  0.00    +0.000 OA
ATOM      8  O   UNL     1      -7.090 -16.225   6.628  0.00  0.00    +0.000 OA
ATOM      9  C   UNL     1      -6.447 -13.379   4.766  0.00  0.00    +0.000 C 
ATOM     10  C   UNL     1      -7.881 -13.127   5.175  0.00  0.00    +0.000 C 
ATOM     11  C   UNL     1      -8.024 -14.003   6.397  0.00  0.00    +0.000 C 
ATOM     12  C   UNL     1      -7.095 -15.136   6.079  0.00  0.00    +0.000 C 
ATOM     13  H   UNL     1      -5.758 -12.772   5.368  0.00  0.00    +0.000 HD
ATOM     14  H   UNL     1      -8.576 -13.472   4.399  0.00  0.00    +0.000 HD
ATOM     15  H   UNL     1      -8.092 -12.073   5.372  0.00  0.00    +0.000 HD
ATOM     16  H   UNL     1      -9.050 -14.356   6.520  0.00  0.00    +0.000 HD
ATOM     17  H   UNL     1      -7.676 -13.498   7.302  0.00  0.00    +0.000 HD
ENDBRANCH   4   9
ENDBRANCH   1   4
BRANCH   1  18
ATOM     18  C   UNL     1      -7.094 -13.465   0.947  0.00  0.00    +0.000 C 
ATOM     19  H   UNL     1      -6.103 -13.017   0.806  0.00  0.00    +0.000 HD
ATOM     20  H   UNL     1      -7.825 -12.782   0.499  0.00  0.00    +0.000 HD
BRANCH  18  21
ATOM     21  C   UNL     1      -7.153 -14.814   0.226  0.00  0.00    +0.000 C 
ATOM     22  H   UNL     1      -7.099 -14.650  -0.857  0.00  0.00    +0.000 HD
ATOM     23  H   UNL     1      -8.123 -15.287   0.425  0.00  0.00    +0.000 HD
BRANCH  21  24
ATOM     24  C   UNL     1      -6.035 -15.773   0.640  0.00  0.00    +0.000 C 
ATOM     25  H   UNL     1      -5.732 -15.554   1.671  0.00  0.00    +0.000 HD
ATOM     26  H   UNL     1      -6.418 -16.801   0.632  0.00  0.00    +0.000 HD
BRANCH  24  27
ATOM     27  C   UNL     1      -4.809 -15.700  -0.257  0.00  0.00    +0.000 C 
ATOM     28  H   UNL     1      -4.847 -16.487  -1.016  0.00  0.00    +0.000 HD
ATOM     29  H   UNL     1      -3.892 -15.829   0.324  0.00  0.00    +0.000 HD
ATOM     30  H   UNL     1      -4.759 -14.734  -0.771  0.00  0.00    +0.000 HD
ENDBRANCH  24  27
ENDBRANCH  21  24
ENDBRANCH  18  21
ENDBRANCH   1  18
TORSDOF 6
ENDMDL
MODEL 5
REMARK VINA RESULT:    -4.672     27.147     28.683
REMARK INTER + INTRA:          -6.520
REMARK INTER:                  -5.902
REMARK INTRA:                  -0.618
REMARK UNBOUND:                -0.346
REMARK  Name = 12813
REMARK  6 active torsions:
REMARK  status: ('A' for Active; 'I' for Inactive)
REMARK    1  A    between atoms: C_3  and  C_4
REMARK    2  A    between atoms: C_4  and  C_6
REMARK    3  A    between atoms: C_6  and  C_7
REMARK    4  A    between atoms: C_7  and  C_9
REMARK    5  A    between atoms: C_9  and  C_11
REMARK    6  A    between atoms: C_11  and  C_12
REMARK                            x       y       z     vdW  Elec       q    Type
REMARK                         _______ _______ _______ _____ _____    ______ ____
ROOT
ATOM      1  C   UNL     1      16.806  -4.720  -3.061  0.00  0.00    +0.000 C 
ATOM      2  H   UNL     1      16.540  -4.070  -3.903  0.00  0.00    +0.000 HD
ATOM      3  H   UNL     1      17.091  -5.692  -3.481  0.00  0.00    +0.000 HD
ENDROOT
BRANCH   1   4
ATOM      4  C   UNL     1      17.981  -4.115  -2.295  0.00  0.00    +0.000 C 
ATOM      5  H   UNL     1      18.157  -3.087  -2.635  0.00  0.00    +0.000 HD
ATOM      6  H   UNL     1      17.714  -4.068  -1.231  0.00  0.00    +0.000 HD
BRANCH   4   9
ATOM      7  O   UNL     1      20.035  -4.395  -3.534  0.00  0.00    +0.000 OA
ATOM      8  O   UNL     1      21.482  -5.262  -5.089  0.00  0.00    +0.000 OA
ATOM      9  C   UNL     1      19.242  -4.938  -2.470  0.00  0.00    +0.000 C 
ATOM     10  C   UNL     1      18.971  -6.364  -2.894  0.00  0.00    +0.000 C 
ATOM     11  C   UNL     1      20.248  -6.732  -3.612  0.00  0.00    +0.000 C 
ATOM     12  C   UNL     1      20.671  -5.415  -4.191  0.00  0.00    +0.000 C 
ATOM     13  H   UNL     1      19.847  -4.912  -1.554  0.00  0.00    +0.000 HD
ATOM     14  H   UNL     1      18.132  -6.411  -3.599  0.00  0.00    +0.000 HD
ATOM     15  H   UNL     1      18.743  -7.026  -2.053  0.00  0.00    +0.000 HD
ATOM     16  H   UNL     1      20.068  -7.469  -4.398  0.00  0.00    +0.000 HD
ATOM     17  H   UNL     1      21.018  -7.083  -2.920  0.00  0.00    +0.000 HD
ENDBRANCH   4   9
ENDBRANCH   1   4
BRANCH   1  18
ATOM     18  C   UNL     1      15.586  -4.906  -2.154  0.00  0.00    +0.000 C 
ATOM     19  H   UNL     1      14.704  -4.455  -2.623  0.00  0.00    +0.000 HD
ATOM     20  H   UNL     1      15.750  -4.384  -1.203  0.00  0.00    +0.000 HD
BRANCH  18  21
ATOM     21  C   UNL     1      15.320  -6.388  -1.880  0.00  0.00    +0.000 C 
ATOM     22  H   UNL     1      15.926  -6.998  -2.562  0.00  0.00    +0.000 HD
ATOM     23  H   UNL     1      14.270  -6.614  -2.103  0.00  0.00    +0.000 HD
BRANCH  21  24
ATOM     24  C   UNL     1      15.625  -6.803  -0.439  0.00  0.00    +0.000 C 
ATOM     25  H   UNL     1      14.820  -7.448  -0.069  0.00  0.00    +0.000 HD
ATOM     26  H   UNL     1      16.545  -7.401  -0.422  0.00  0.00    +0.000 HD
BRANCH  24  27
ATOM     27  C   UNL     1      15.788  -5.626   0.510  0.00  0.00    +0.000 C 
ATOM     28  H   UNL     1      16.006  -5.981   1.522  0.00  0.00    +0.000 HD
ATOM     29  H   UNL     1      14.874  -5.027   0.548  0.00  0.00    +0.000 HD
ATOM     30  H   UNL     1      16.611  -4.978   0.191  0.00  0.00    +0.000 HD
ENDBRANCH  24  27
ENDBRANCH  21  24
ENDBRANCH  18  21
ENDBRANCH   1  18
TORSDOF 6
ENDMDL
MODEL 6
REMARK VINA RESULT:    -4.591     29.813     31.458
REMARK INTER + INTRA:          -6.414
REMARK INTER:                  -6.109
REMARK INTRA:                  -0.305
REMARK UNBOUND:                -0.346
REMARK  Name = 12813
REMARK  6 active torsions:
REMARK  status: ('A' for Active; 'I' for Inactive)
REMARK    1  A    between atoms: C_3  and  C_4
REMARK    2  A    between atoms: C_4  and  C_6
REMARK    3  A    between atoms: C_6  and  C_7
REMARK    4  A    between atoms: C_7  and  C_9
REMARK    5  A    between atoms: C_9  and  C_11
REMARK    6  A    between atoms: C_11  and  C_12
REMARK                            x       y       z     vdW  Elec       q    Type
REMARK                         _______ _______ _______ _____ _____    ______ ____
ROOT
ATOM      1  C   UNL     1      14.937   6.829  -2.868  0.00  0.00    +0.000 C 
ATOM      2  H   UNL     1      15.858   6.270  -3.074  0.00  0.00    +0.000 HD
ATOM      3  H   UNL     1      14.184   6.489  -3.589  0.00  0.00    +0.000 HD
ENDROOT
BRANCH   1   4
ATOM      4  C   UNL     1      14.468   6.536  -1.443  0.00  0.00    +0.000 C 
ATOM      5  H   UNL     1      15.206   6.913  -0.724  0.00  0.00    +0.000 HD
ATOM      6  H   UNL     1      13.531   7.080  -1.269  0.00  0.00    +0.000 HD
BRANCH   4   9
ATOM      7  O   UNL     1      13.133   4.850  -0.345  0.00  0.00    +0.000 OA
ATOM      8  O   UNL     1      12.562   3.272   1.220  0.00  0.00    +0.000 OA
ATOM      9  C   UNL     1      14.247   5.052  -1.224  0.00  0.00    +0.000 C 
ATOM     10  C   UNL     1      15.404   4.372  -0.527  0.00  0.00    +0.000 C 
ATOM     11  C   UNL     1      14.728   3.198   0.140  0.00  0.00    +0.000 C 
ATOM     12  C   UNL     1      13.364   3.747   0.433  0.00  0.00    +0.000 C 
ATOM     13  H   UNL     1      14.017   4.555  -2.175  0.00  0.00    +0.000 HD
ATOM     14  H   UNL     1      15.838   5.024   0.241  0.00  0.00    +0.000 HD
ATOM     15  H   UNL     1      16.204   4.078  -1.212  0.00  0.00    +0.000 HD
ATOM     16  H   UNL     1      15.243   2.907   1.059  0.00  0.00    +0.000 HD
ATOM     17  H   UNL     1      14.632   2.344  -0.538  0.00  0.00    +0.000 HD
ENDBRANCH   4   9
ENDBRANCH   1   4
BRANCH   1  18
ATOM     18  C   UNL     1      15.189   8.324  -3.075  0.00  0.00    +0.000 C 
ATOM     19  H   UNL     1      14.236   8.867  -3.055  0.00  0.00    +0.000 HD
ATOM     20  H   UNL     1      15.635   8.491  -4.064  0.00  0.00    +0.000 HD
BRANCH  18  21
ATOM     21  C   UNL     1      16.121   8.884  -1.998  0.00  0.00    +0.000 C 
ATOM     22  H   UNL     1      15.685   8.697  -1.008  0.00  0.00    +0.000 HD
ATOM     23  H   UNL     1      16.190   9.973  -2.111  0.00  0.00    +0.000 HD
BRANCH  21  24
ATOM     24  C   UNL     1      17.528   8.286  -2.042  0.00  0.00    +0.000 C 
ATOM     25  H   UNL     1      18.117   8.680  -1.205  0.00  0.00    +0.000 HD
ATOM     26  H   UNL     1      17.464   7.200  -1.903  0.00  0.00    +0.000 HD
BRANCH  24  27
ATOM     27  C   UNL     1      18.268   8.571  -3.340  0.00  0.00    +0.000 C 
ATOM     28  H   UNL     1      18.089   7.769  -4.063  0.00  0.00    +0.000 HD
ATOM     29  H   UNL     1      19.346   8.640  -3.167  0.00  0.00    +0.000 HD
ATOM     30  H   UNL     1      17.929   9.512  -3.784  0.00  0.00    +0.000 HD
ENDBRANCH  24  27
ENDBRANCH  21  24
ENDBRANCH  18  21
ENDBRANCH   1  18
TORSDOF 6
ENDMDL
MODEL 7
REMARK VINA RESULT:    -4.525      2.527      3.676
REMARK INTER + INTRA:          -6.326
REMARK INTER:                  -5.921
REMARK INTRA:                  -0.404
REMARK UNBOUND:                -0.346
REMARK  Name = 12813
REMARK  6 active torsions:
REMARK  status: ('A' for Active; 'I' for Inactive)
REMARK    1  A    between atoms: C_3  and  C_4
REMARK    2  A    between atoms: C_4  and  C_6
REMARK    3  A    between atoms: C_6  and  C_7
REMARK    4  A    between atoms: C_7  and  C_9
REMARK    5  A    between atoms: C_9  and  C_11
REMARK    6  A    between atoms: C_11  and  C_12
REMARK                            x       y       z     vdW  Elec       q    Type
REMARK                         _______ _______ _______ _____ _____    ______ ____
ROOT
ATOM      1  C   UNL     1      -6.066 -14.110   2.273  0.00  0.00    +0.000 C 
ATOM      2  H   UNL     1      -6.739 -14.808   2.787  0.00  0.00    +0.000 HD
ATOM      3  H   UNL     1      -6.645 -13.634   1.473  0.00  0.00    +0.000 HD
ENDROOT
BRANCH   1   4
ATOM      4  C   UNL     1      -5.568 -13.055   3.260  0.00  0.00    +0.000 C 
ATOM      5  H   UNL     1      -4.476 -13.111   3.344  0.00  0.00    +0.000 HD
ATOM      6  H   UNL     1      -5.818 -12.064   2.861  0.00  0.00    +0.000 HD
BRANCH   4   9
ATOM      7  O   UNL     1      -6.038 -14.586   5.068  0.00  0.00    +0.000 OA
ATOM      8  O   UNL     1      -7.252 -16.026   6.377  0.00  0.00    +0.000 OA
ATOM      9  C   UNL     1      -6.200 -13.231   4.627  0.00  0.00    +0.000 C 
ATOM     10  C   UNL     1      -7.696 -13.013   4.627  0.00  0.00    +0.000 C 
ATOM     11  C   UNL     1      -8.140 -13.846   5.806  0.00  0.00    +0.000 C 
ATOM     12  C   UNL     1      -7.134 -14.959   5.798  0.00  0.00    +0.000 C 
ATOM     13  H   UNL     1      -5.710 -12.579   5.362  0.00  0.00    +0.000 HD
ATOM     14  H   UNL     1      -8.151 -13.409   3.711  0.00  0.00    +0.000 HD
ATOM     15  H   UNL     1      -7.976 -11.959   4.714  0.00  0.00    +0.000 HD
ATOM     16  H   UNL     1      -9.154 -14.229   5.667  0.00  0.00    +0.000 HD
ATOM     17  H   UNL     1      -8.058 -13.296   6.747  0.00  0.00    +0.000 HD
ENDBRANCH   4   9
ENDBRANCH   1   4
BRANCH   1  18
ATOM     18  C   UNL     1      -4.901 -14.886   1.652  0.00  0.00    +0.000 C 
ATOM     19  H   UNL     1      -4.828 -14.652   0.583  0.00  0.00    +0.000 HD
ATOM     20  H   UNL     1      -5.089 -15.964   1.735  0.00  0.00    +0.000 HD
BRANCH  18  21
ATOM     21  C   UNL     1      -3.579 -14.547   2.344  0.00  0.00    +0.000 C 
ATOM     22  H   UNL     1      -3.499 -15.120   3.276  0.00  0.00    +0.000 HD
ATOM     23  H   UNL     1      -3.580 -13.486   2.624  0.00  0.00    +0.000 HD
BRANCH  21  24
ATOM     24  C   UNL     1      -2.350 -14.834   1.478  0.00  0.00    +0.000 C 
ATOM     25  H   UNL     1      -2.611 -15.576   0.714  0.00  0.00    +0.000 HD
ATOM     26  H   UNL     1      -2.060 -13.919   0.947  0.00  0.00    +0.000 HD
BRANCH  24  27
ATOM     27  C   UNL     1      -1.155 -15.342   2.269  0.00  0.00    +0.000 C 
ATOM     28  H   UNL     1      -1.226 -16.425   2.410  0.00  0.00    +0.000 HD
ATOM     29  H   UNL     1      -1.112 -14.871   3.256  0.00  0.00    +0.000 HD
ATOM     30  H   UNL     1      -0.219 -15.127   1.744  0.00  0.00    +0.000 HD
ENDBRANCH  24  27
ENDBRANCH  21  24
ENDBRANCH  18  21
ENDBRANCH   1  18
TORSDOF 6
ENDMDL
MODEL 8
REMARK VINA RESULT:    -4.519     26.206     27.770
REMARK INTER + INTRA:          -6.318
REMARK INTER:                  -5.459
REMARK INTRA:                  -0.859
REMARK UNBOUND:                -0.346
REMARK  Name = 12813
REMARK  6 active torsions:
REMARK  status: ('A' for Active; 'I' for Inactive)
REMARK    1  A    between atoms: C_3  and  C_4
REMARK    2  A    between atoms: C_4  and  C_6
REMARK    3  A    between atoms: C_6  and  C_7
REMARK    4  A    between atoms: C_7  and  C_9
REMARK    5  A    between atoms: C_9  and  C_11
REMARK    6  A    between atoms: C_11  and  C_12
REMARK                            x       y       z     vdW  Elec       q    Type
REMARK                         _______ _______ _______ _____ _____    ______ ____
ROOT
ATOM      1  C   UNL     1      15.573  -5.473  -0.821  0.00  0.00    +0.000 C 
ATOM      2  H   UNL     1      16.511  -4.957  -0.583  0.00  0.00    +0.000 HD
ATOM      3  H   UNL     1      14.753  -4.806  -0.529  0.00  0.00    +0.000 HD
ENDROOT
BRANCH   1   4
ATOM      4  C   UNL     1      15.509  -5.757  -2.321  0.00  0.00    +0.000 C 
ATOM      5  H   UNL     1      15.638  -6.831  -2.502  0.00  0.00    +0.000 HD
ATOM      6  H   UNL     1      14.511  -5.479  -2.683  0.00  0.00    +0.000 HD
BRANCH   4   9
ATOM      7  O   UNL     1      17.499  -5.880  -3.683  0.00  0.00    +0.000 OA
ATOM      8  O   UNL     1      19.733  -5.802  -4.200  0.00  0.00    +0.000 OA
ATOM      9  C   UNL     1      16.564  -4.976  -3.079  0.00  0.00    +0.000 C 
ATOM     10  C   UNL     1      17.413  -4.097  -2.189  0.00  0.00    +0.000 C 
ATOM     11  C   UNL     1      18.696  -3.987  -2.978  0.00  0.00    +0.000 C 
ATOM     12  C   UNL     1      18.745  -5.312  -3.680  0.00  0.00    +0.000 C 
ATOM     13  H   UNL     1      16.101  -4.388  -3.883  0.00  0.00    +0.000 HD
ATOM     14  H   UNL     1      17.618  -4.590  -1.231  0.00  0.00    +0.000 HD
ATOM     15  H   UNL     1      16.951  -3.128  -1.978  0.00  0.00    +0.000 HD
ATOM     16  H   UNL     1      19.560  -3.855  -2.323  0.00  0.00    +0.000 HD
ATOM     17  H   UNL     1      18.648  -3.188  -3.724  0.00  0.00    +0.000 HD
ENDBRANCH   4   9
ENDBRANCH   1   4
BRANCH   1  18
ATOM     18  C   UNL     1      15.478  -6.766  -0.005  0.00  0.00    +0.000 C 
ATOM     19  H   UNL     1      14.669  -7.393  -0.399  0.00  0.00    +0.000 HD
ATOM     20  H   UNL     1      15.227  -6.528   1.036  0.00  0.00    +0.000 HD
BRANCH  18  21
ATOM     21  C   UNL     1      16.796  -7.543  -0.044  0.00  0.00    +0.000 C 
ATOM     22  H   UNL     1      16.942  -7.959  -1.049  0.00  0.00    +0.000 HD
ATOM     23  H   UNL     1      16.733  -8.395   0.644  0.00  0.00    +0.000 HD
BRANCH  21  24
ATOM     24  C   UNL     1      18.014  -6.692   0.322  0.00  0.00    +0.000 C 
ATOM     25  H   UNL     1      17.775  -5.633   0.170  0.00  0.00    +0.000 HD
ATOM     26  H   UNL     1      18.235  -6.818   1.389  0.00  0.00    +0.000 HD
BRANCH  24  27
ATOM     27  C   UNL     1      19.259  -7.036  -0.480  0.00  0.00    +0.000 C 
ATOM     28  H   UNL     1      19.918  -7.687   0.102  0.00  0.00    +0.000 HD
ATOM     29  H   UNL     1      19.815  -6.132  -0.743  0.00  0.00    +0.000 HD
ATOM     30  H   UNL     1      18.995  -7.559  -1.405  0.00  0.00    +0.000 HD
ENDBRANCH  24  27
ENDBRANCH  21  24
ENDBRANCH  18  21
ENDBRANCH   1  18
TORSDOF 6
ENDMDL
MODEL 9
REMARK VINA RESULT:    -4.449     32.542     33.586
REMARK INTER + INTRA:          -6.225
REMARK INTER:                  -5.879
REMARK INTRA:                  -0.346
REMARK UNBOUND:                -0.346
REMARK  Name = 12813
REMARK  6 active torsions:
REMARK  status: ('A' for Active; 'I' for Inactive)
REMARK    1  A    between atoms: C_3  and  C_4
REMARK    2  A    between atoms: C_4  and  C_6
REMARK    3  A    between atoms: C_6  and  C_7
REMARK    4  A    between atoms: C_7  and  C_9
REMARK    5  A    between atoms: C_9  and  C_11
REMARK    6  A    between atoms: C_11  and  C_12
REMARK                            x       y       z     vdW  Elec       q    Type
REMARK                         _______ _______ _______ _____ _____    ______ ____
ROOT
ATOM      1  C   UNL     1       3.875   3.216 -20.237  0.00  0.00    +0.000 C 
ATOM      2  H   UNL     1       3.065   3.520 -19.563  0.00  0.00    +0.000 HD
ATOM      3  H   UNL     1       4.303   2.291 -19.833  0.00  0.00    +0.000 HD
ENDROOT
BRANCH   1   4
ATOM      4  C   UNL     1       3.311   2.966 -21.636  0.00  0.00    +0.000 C 
ATOM      5  H   UNL     1       3.515   3.831 -22.279  0.00  0.00    +0.000 HD
ATOM      6  H   UNL     1       3.832   2.102 -22.069  0.00  0.00    +0.000 HD
BRANCH   4   9
ATOM      7  O   UNL     1       1.121   3.698 -22.342  0.00  0.00    +0.000 OA
ATOM      8  O   UNL     1      -0.941   4.694 -22.197  0.00  0.00    +0.000 OA
ATOM      9  C   UNL     1       1.820   2.695 -21.593  0.00  0.00    +0.000 C 
ATOM     10  C   UNL     1       1.234   2.789 -20.203  0.00  0.00    +0.000 C 
ATOM     11  C   UNL     1      -0.206   3.146 -20.486  0.00  0.00    +0.000 C 
ATOM     12  C   UNL     1      -0.086   3.950 -21.746  0.00  0.00    +0.000 C 
ATOM     13  H   UNL     1       1.595   1.721 -22.047  0.00  0.00    +0.000 HD
ATOM     14  H   UNL     1       1.703   3.600 -19.633  0.00  0.00    +0.000 HD
ATOM     15  H   UNL     1       1.345   1.865 -19.627  0.00  0.00    +0.000 HD
ATOM     16  H   UNL     1      -0.638   3.741 -19.678  0.00  0.00    +0.000 HD
ATOM     17  H   UNL     1      -0.814   2.259 -20.684  0.00  0.00    +0.000 HD
ENDBRANCH   4   9
ENDBRANCH   1   4
BRANCH   1  18
ATOM     18  C   UNL     1       4.957   4.299 -20.259  0.00  0.00    +0.000 C 
ATOM     19  H   UNL     1       5.008   4.751 -21.257  0.00  0.00    +0.000 HD
ATOM     20  H   UNL     1       5.936   3.847 -20.058  0.00  0.00    +0.000 HD
BRANCH  18  21
ATOM     21  C   UNL     1       4.676   5.385 -19.218  0.00  0.00    +0.000 C 
ATOM     22  H   UNL     1       3.705   5.191 -18.745  0.00  0.00    +0.000 HD
ATOM     23  H   UNL     1       4.592   6.356 -19.723  0.00  0.00    +0.000 HD
BRANCH  21  24
ATOM     24  C   UNL     1       5.749   5.476 -18.131  0.00  0.00    +0.000 C 
ATOM     25  H   UNL     1       6.398   6.335 -18.334  0.00  0.00    +0.000 HD
ATOM     26  H   UNL     1       5.268   5.662 -17.163  0.00  0.00    +0.000 HD
BRANCH  24  27
ATOM     27  C   UNL     1       6.607   4.226 -18.020  0.00  0.00    +0.000 C 
ATOM     28  H   UNL     1       6.072   3.360 -18.422  0.00  0.00    +0.000 HD
ATOM     29  H   UNL     1       6.859   4.017 -16.976  0.00  0.00    +0.000 HD
ATOM     30  H   UNL     1       7.540   4.341 -18.582  0.00  0.00    +0.000 HD
ENDBRANCH  24  27
ENDBRANCH  21  24
ENDBRANCH  18  21
ENDBRANCH   1  18
TORSDOF 6
ENDMDL
MODEL 10
REMARK VINA RESULT:    -4.435     33.107     34.009
REMARK INTER + INTRA:          -6.207
REMARK INTER:                  -5.362
REMARK INTRA:                  -0.845
REMARK UNBOUND:                -0.346
REMARK  Name = 12813
REMARK  6 active torsions:
REMARK  status: ('A' for Active; 'I' for Inactive)
REMARK    1  A    between atoms: C_3  and  C_4
REMARK    2  A    between atoms: C_4  and  C_6
REMARK    3  A    between atoms: C_6  and  C_7
REMARK    4  A    between atoms: C_7  and  C_9
REMARK    5  A    between atoms: C_9  and  C_11
REMARK    6  A    between atoms: C_11  and  C_12
REMARK                            x       y       z     vdW  Elec       q    Type
REMARK                         _______ _______ _______ _____ _____    ______ ____
ROOT
ATOM      1  C   UNL     1       1.414   4.490 -20.103  0.00  0.00    +0.000 C 
ATOM      2  H   UNL     1       1.165   4.618 -19.043  0.00  0.00    +0.000 HD
ATOM      3  H   UNL     1       1.297   3.425 -20.337  0.00  0.00    +0.000 HD
ENDROOT
BRANCH   1   4
ATOM      4  C   UNL     1       0.459   5.322 -20.959  0.00  0.00    +0.000 C 
ATOM      5  H   UNL     1      -0.235   5.873 -20.312  0.00  0.00    +0.000 HD
ATOM      6  H   UNL     1       1.049   6.062 -21.515  0.00  0.00    +0.000 HD
BRANCH   4   9
ATOM      7  O   UNL     1      -0.023   3.071 -21.689  0.00  0.00    +0.000 OA
ATOM      8  O   UNL     1       0.091   1.184 -22.989  0.00  0.00    +0.000 OA
ATOM      9  C   UNL     1      -0.319   4.454 -21.928  0.00  0.00    +0.000 C 
ATOM     10  C   UNL     1       0.068   4.676 -23.373  0.00  0.00    +0.000 C 
ATOM     11  C   UNL     1      -0.284   3.350 -24.005  0.00  0.00    +0.000 C 
ATOM     12  C   UNL     1      -0.041   2.392 -22.878  0.00  0.00    +0.000 C 
ATOM     13  H   UNL     1      -1.398   4.595 -21.787  0.00  0.00    +0.000 HD
ATOM     14  H   UNL     1       1.147   4.847 -23.468  0.00  0.00    +0.000 HD
ATOM     15  H   UNL     1      -0.450   5.524 -23.830  0.00  0.00    +0.000 HD
ATOM     16  H   UNL     1       0.361   3.129 -24.858  0.00  0.00    +0.000 HD
ATOM     17  H   UNL     1      -1.339   3.304 -24.293  0.00  0.00    +0.000 HD
ENDBRANCH   4   9
ENDBRANCH   1   4
BRANCH   1  18
ATOM     18  C   UNL     1       2.871   4.896 -20.340  0.00  0.00    +0.000 C 
ATOM     19  H   UNL     1       3.208   5.554 -19.530  0.00  0.00    +0.000 HD
ATOM     20  H   UNL     1       2.948   5.466 -21.274  0.00  0.00    +0.000 HD
BRANCH  18  21
ATOM     21  C   UNL     1       3.783   3.669 -20.418  0.00  0.00    +0.000 C 
ATOM     22  H   UNL     1       3.736   3.122 -19.467  0.00  0.00    +0.000 HD
ATOM     23  H   UNL     1       4.822   3.999 -20.541  0.00  0.00    +0.000 HD
BRANCH  21  24
ATOM     24  C   UNL     1       3.421   2.715 -21.558  0.00  0.00    +0.000 C 
ATOM     25  H   UNL     1       4.035   1.810 -21.482  0.00  0.00    +0.000 HD
ATOM     26  H   UNL     1       2.376   2.401 -21.449  0.00  0.00    +0.000 HD
BRANCH  24  27
ATOM     27  C   UNL     1       3.609   3.322 -22.940  0.00  0.00    +0.000 C 
ATOM     28  H   UNL     1       3.568   4.414 -22.883  0.00  0.00    +0.000 HD
ATOM     29  H   UNL     1       2.824   2.986 -23.623  0.00  0.00    +0.000 HD
ATOM     30  H   UNL     1       4.578   3.039 -23.362  0.00  0.00    +0.000 HD
ENDBRANCH  24  27
ENDBRANCH  21  24
ENDBRANCH  18  21
ENDBRANCH   1  18
TORSDOF 6
ENDMDL
