MODEL 1
REMARK VINA RESULT:    -5.243      0.000      0.000
REMARK INTER + INTRA:          -8.430
REMARK INTER:                  -7.826
REMARK INTRA:                  -0.604
REMARK UNBOUND:                -0.735
REMARK  Name = 102861
REMARK  9 active torsions:
REMARK  status: ('A' for Active; 'I' for Inactive)
REMARK    1  A    between atoms: O_2  and  C_13
REMARK    2  A    between atoms: O_2  and  C_16
REMARK    3  A    between atoms: C_4  and  C_10
REMARK    4  A    between atoms: C_5  and  C_7
REMARK    5  A    between atoms: C_7  and  C_11
REMARK    6  A    between atoms: C_10  and  C_13
REMARK    7  A    between atoms: C_11  and  C_12
REMARK    8  A    between atoms: C_12  and  C_14
REMARK    9  A    between atoms: C_14  and  C_15
REMARK                            x       y       z     vdW  Elec       q    Type
REMARK                         _______ _______ _______ _____ _____    ______ ____
ROOT
ATOM      1  O   UNL     1       0.389   6.661 -19.096  0.00  0.00    +0.000 OA
ATOM      2  C   UNL     1       2.491   4.433 -20.910  0.00  0.00    +0.000 C 
ATOM      3  C   UNL     1       2.329   5.831 -20.287  0.00  0.00    +0.000 C 
ATOM      4  C   UNL     1       1.715   3.503 -19.972  0.00  0.00    +0.000 C 
ATOM      5  C   UNL     1       0.486   4.294 -19.541  0.00  0.00    +0.000 C 
ATOM      6  C   UNL     1       0.993   5.712 -19.581  0.00  0.00    +0.000 C 
ATOM      7  H   UNL     1       3.533   4.103 -20.951  0.00  0.00    +0.000 HD
ATOM      8  H   UNL     1       2.253   6.624 -21.038  0.00  0.00    +0.000 HD
ATOM      9  H   UNL     1       1.443   2.551 -20.439  0.00  0.00    +0.000 HD
ATOM     10  H   UNL     1       2.327   3.272 -19.091  0.00  0.00    +0.000 HD
ATOM     11  H   UNL     1      -0.335   4.188 -20.256  0.00  0.00    +0.000 HD
ATOM     12  H   UNL     1       0.159   4.020 -18.536  0.00  0.00    +0.000 HD
ENDROOT
BRANCH   3  13
ATOM     13  C   UNL     1       3.418   6.157 -19.275  0.00  0.00    +0.000 C 
ATOM     14  H   UNL     1       3.080   5.937 -18.254  0.00  0.00    +0.000 HD
ATOM     15  H   UNL     1       3.626   7.235 -19.299  0.00  0.00    +0.000 HD
BRANCH  13  16
ATOM     16  C   UNL     1       4.708   5.390 -19.569  0.00  0.00    +0.000 C 
ATOM     17  H   UNL     1       5.189   5.812 -20.460  0.00  0.00    +0.000 HD
ATOM     18  H   UNL     1       4.501   4.338 -19.783  0.00  0.00    +0.000 HD
BRANCH  16  19
ATOM     19  C   UNL     1       5.680   5.457 -18.390  0.00  0.00    +0.000 C 
ATOM     20  H   UNL     1       6.380   6.289 -18.535  0.00  0.00    +0.000 HD
ATOM     21  H   UNL     1       5.122   5.663 -17.467  0.00  0.00    +0.000 HD
BRANCH  19  22
ATOM     22  C   UNL     1       6.458   4.151 -18.235  0.00  0.00    +0.000 C 
ATOM     23  H   UNL     1       6.170   3.451 -19.028  0.00  0.00    +0.000 HD
ATOM     24  H   UNL     1       6.209   3.679 -17.278  0.00  0.00    +0.000 HD
BRANCH  22  25
ATOM     25  C   UNL     1       7.959   4.386 -18.298  0.00  0.00    +0.000 C 
ATOM     26  H   UNL     1       8.501   3.439 -18.379  0.00  0.00    +0.000 HD
ATOM     27  H   UNL     1       8.301   4.896 -17.392  0.00  0.00    +0.000 HD
ATOM     28  H   UNL     1       8.222   5.009 -19.159  0.00  0.00    +0.000 HD
ENDBRANCH  22  25
ENDBRANCH  19  22
ENDBRANCH  16  19
ENDBRANCH  13  16
ENDBRANCH   3  13
BRANCH   2  29
ATOM     29  C   UNL     1       1.934   4.383 -22.335  0.00  0.00    +0.000 C 
ATOM     30  H   UNL     1       2.541   5.009 -23.000  0.00  0.00    +0.000 HD
ATOM     31  H   UNL     1       0.908   4.767 -22.359  0.00  0.00    +0.000 HD
BRANCH  29  33
ATOM     32  O   UNL     1       2.873   2.227 -22.951  0.00  0.00    +0.000 OA
ATOM     33  C   UNL     1       1.909   2.977 -22.884  0.00  0.00    +0.000 C 
BRANCH  33  34
ATOM     34  O   UNL     1       0.638   2.686 -23.291  0.00  0.00    +0.000 OA
BRANCH  34  35
ATOM     35  C   UNL     1      -0.015   1.637 -22.569  0.00  0.00    +0.000 C 
ATOM     36  H   UNL     1      -1.098   1.701 -22.706  0.00  0.00    +0.000 HD
ATOM     37  H   UNL     1       0.360   0.662 -22.895  0.00  0.00    +0.000 HD
ATOM     38  H   UNL     1       0.213   1.762 -21.506  0.00  0.00    +0.000 HD
ENDBRANCH  34  35
ENDBRANCH  33  34
ENDBRANCH  29  33
ENDBRANCH   2  29
TORSDOF 9
ENDMDL
MODEL 2
REMARK VINA RESULT:    -5.129      1.921      2.717
REMARK INTER + INTRA:          -8.263
REMARK INTER:                  -7.630
REMARK INTRA:                  -0.633
REMARK UNBOUND:                -0.735
REMARK  Name = 102861
REMARK  9 active torsions:
REMARK  status: ('A' for Active; 'I' for Inactive)
REMARK    1  A    between atoms: O_2  and  C_13
REMARK    2  A    between atoms: O_2  and  C_16
REMARK    3  A    between atoms: C_4  and  C_10
REMARK    4  A    between atoms: C_5  and  C_7
REMARK    5  A    between atoms: C_7  and  C_11
REMARK    6  A    between atoms: C_10  and  C_13
REMARK    7  A    between atoms: C_11  and  C_12
REMARK    8  A    between atoms: C_12  and  C_14
REMARK    9  A    between atoms: C_14  and  C_15
REMARK                            x       y       z     vdW  Elec       q    Type
REMARK                         _______ _______ _______ _____ _____    ______ ____
ROOT
ATOM      1  O   UNL     1       4.708   6.634 -21.855  0.00  0.00    +0.000 OA
ATOM      2  C   UNL     1       2.071   5.205 -19.938  0.00  0.00    +0.000 C 
ATOM      3  C   UNL     1       3.551   5.627 -19.980  0.00  0.00    +0.000 C 
ATOM      4  C   UNL     1       1.353   6.237 -20.814  0.00  0.00    +0.000 C 
ATOM      5  C   UNL     1       2.304   6.518 -21.971  0.00  0.00    +0.000 C 
ATOM      6  C   UNL     1       3.651   6.301 -21.333  0.00  0.00    +0.000 C 
ATOM      7  H   UNL     1       1.646   5.241 -18.930  0.00  0.00    +0.000 HD
ATOM      8  H   UNL     1       4.236   4.772 -19.967  0.00  0.00    +0.000 HD
ATOM      9  H   UNL     1       0.374   5.896 -21.165  0.00  0.00    +0.000 HD
ATOM     10  H   UNL     1       1.192   7.159 -20.241  0.00  0.00    +0.000 HD
ATOM     11  H   UNL     1       2.174   5.800 -22.786  0.00  0.00    +0.000 HD
ATOM     12  H   UNL     1       2.202   7.541 -22.340  0.00  0.00    +0.000 HD
ENDROOT
BRANCH   3  13
ATOM     13  C   UNL     1       3.914   6.617 -18.883  0.00  0.00    +0.000 C 
ATOM     14  H   UNL     1       3.079   6.747 -18.183  0.00  0.00    +0.000 HD
ATOM     15  H   UNL     1       4.091   7.605 -19.328  0.00  0.00    +0.000 HD
BRANCH  13  16
ATOM     16  C   UNL     1       5.166   6.180 -18.120  0.00  0.00    +0.000 C 
ATOM     17  H   UNL     1       4.924   6.067 -17.056  0.00  0.00    +0.000 HD
ATOM     18  H   UNL     1       5.955   6.933 -18.193  0.00  0.00    +0.000 HD
BRANCH  16  19
ATOM     19  C   UNL     1       5.714   4.856 -18.658  0.00  0.00    +0.000 C 
ATOM     20  H   UNL     1       4.925   4.095 -18.639  0.00  0.00    +0.000 HD
ATOM     21  H   UNL     1       6.015   4.984 -19.706  0.00  0.00    +0.000 HD
BRANCH  19  22
ATOM     22  C   UNL     1       6.912   4.378 -17.839  0.00  0.00    +0.000 C 
ATOM     23  H   UNL     1       6.581   4.075 -16.839  0.00  0.00    +0.000 HD
ATOM     24  H   UNL     1       7.628   5.197 -17.710  0.00  0.00    +0.000 HD
BRANCH  22  25
ATOM     25  C   UNL     1       7.613   3.206 -18.509  0.00  0.00    +0.000 C 
ATOM     26  H   UNL     1       7.190   3.011 -19.499  0.00  0.00    +0.000 HD
ATOM     27  H   UNL     1       7.498   2.301 -17.906  0.00  0.00    +0.000 HD
ATOM     28  H   UNL     1       8.684   3.405 -18.625  0.00  0.00    +0.000 HD
ENDBRANCH  22  25
ENDBRANCH  19  22
ENDBRANCH  16  19
ENDBRANCH  13  16
ENDBRANCH   3  13
BRANCH   2  29
ATOM     29  C   UNL     1       1.875   3.784 -20.471  0.00  0.00    +0.000 C 
ATOM     30  H   UNL     1       2.726   3.153 -20.189  0.00  0.00    +0.000 HD
ATOM     31  H   UNL     1       1.812   3.790 -21.565  0.00  0.00    +0.000 HD
BRANCH  29  33
ATOM     32  O   UNL     1       0.089   3.403 -18.866  0.00  0.00    +0.000 OA
ATOM     33  C   UNL     1       0.610   3.151 -19.944  0.00  0.00    +0.000 C 
BRANCH  33  34
ATOM     34  O   UNL     1       0.147   2.257 -20.868  0.00  0.00    +0.000 OA
BRANCH  34  35
ATOM     35  C   UNL     1      -1.108   2.588 -21.471  0.00  0.00    +0.000 C 
ATOM     36  H   UNL     1      -0.967   3.351 -22.243  0.00  0.00    +0.000 HD
ATOM     37  H   UNL     1      -1.574   1.693 -21.892  0.00  0.00    +0.000 HD
ATOM     38  H   UNL     1      -1.764   2.992 -20.694  0.00  0.00    +0.000 HD
ENDBRANCH  34  35
ENDBRANCH  33  34
ENDBRANCH  29  33
ENDBRANCH   2  29
TORSDOF 9
ENDMDL
MODEL 3
REMARK VINA RESULT:    -4.904     29.833     31.040
REMARK INTER + INTRA:          -7.933
REMARK INTER:                  -7.293
REMARK INTRA:                  -0.640
REMARK UNBOUND:                -0.735
REMARK  Name = 102861
REMARK  9 active torsions:
REMARK  status: ('A' for Active; 'I' for Inactive)
REMARK    1  A    between atoms: O_2  and  C_13
REMARK    2  A    between atoms: O_2  and  C_16
REMARK    3  A    between atoms: C_4  and  C_10
REMARK    4  A    between atoms: C_5  and  C_7
REMARK    5  A    between atoms: C_7  and  C_11
REMARK    6  A    between atoms: C_10  and  C_13
REMARK    7  A    between atoms: C_11  and  C_12
REMARK    8  A    between atoms: C_12  and  C_14
REMARK    9  A    between atoms: C_14  and  C_15
REMARK                            x       y       z     vdW  Elec       q    Type
REMARK                         _______ _______ _______ _____ _____    ______ ____
ROOT
ATOM      1  O   UNL     1      -6.903 -17.467   1.083  0.00  0.00    +0.000 OA
ATOM      2  C   UNL     1      -6.309 -14.045   1.864  0.00  0.00    +0.000 C 
ATOM      3  C   UNL     1      -5.914 -15.511   2.116  0.00  0.00    +0.000 C 
ATOM      4  C   UNL     1      -6.716 -14.006   0.388  0.00  0.00    +0.000 C 
ATOM      5  C   UNL     1      -7.445 -15.319   0.133  0.00  0.00    +0.000 C 
ATOM      6  C   UNL     1      -6.770 -16.249   1.107  0.00  0.00    +0.000 C 
ATOM      7  H   UNL     1      -5.481 -13.347   2.021  0.00  0.00    +0.000 HD
ATOM      8  H   UNL     1      -6.185 -15.857   3.119  0.00  0.00    +0.000 HD
ATOM      9  H   UNL     1      -7.337 -13.141   0.136  0.00  0.00    +0.000 HD
ATOM     10  H   UNL     1      -5.819 -13.958  -0.241  0.00  0.00    +0.000 HD
ATOM     11  H   UNL     1      -8.507 -15.248   0.383  0.00  0.00    +0.000 HD
ATOM     12  H   UNL     1      -7.314 -15.662  -0.895  0.00  0.00    +0.000 HD
ENDROOT
BRANCH   3  13
ATOM     13  C   UNL     1      -4.442 -15.783   1.839  0.00  0.00    +0.000 C 
ATOM     14  H   UNL     1      -4.291 -16.071   0.790  0.00  0.00    +0.000 HD
ATOM     15  H   UNL     1      -4.111 -16.640   2.438  0.00  0.00    +0.000 HD
BRANCH  13  16
ATOM     16  C   UNL     1      -3.573 -14.569   2.172  0.00  0.00    +0.000 C 
ATOM     17  H   UNL     1      -3.389 -14.537   3.253  0.00  0.00    +0.000 HD
ATOM     18  H   UNL     1      -4.078 -13.637   1.903  0.00  0.00    +0.000 HD
BRANCH  16  19
ATOM     19  C   UNL     1      -2.234 -14.620   1.432  0.00  0.00    +0.000 C 
ATOM     20  H   UNL     1      -2.156 -13.763   0.752  0.00  0.00    +0.000 HD
ATOM     21  H   UNL     1      -1.413 -14.535   2.155  0.00  0.00    +0.000 HD
BRANCH  19  22
ATOM     22  C   UNL     1      -2.085 -15.919   0.642  0.00  0.00    +0.000 C 
ATOM     23  H   UNL     1      -2.837 -16.645   0.973  0.00  0.00    +0.000 HD
ATOM     24  H   UNL     1      -1.100 -16.361   0.832  0.00  0.00    +0.000 HD
BRANCH  22  25
ATOM     25  C   UNL     1      -2.242 -15.683  -0.853  0.00  0.00    +0.000 C 
ATOM     26  H   UNL     1      -1.276 -15.744  -1.363  0.00  0.00    +0.000 HD
ATOM     27  H   UNL     1      -2.662 -14.690  -1.037  0.00  0.00    +0.000 HD
ATOM     28  H   UNL     1      -2.914 -16.425  -1.297  0.00  0.00    +0.000 HD
ENDBRANCH  22  25
ENDBRANCH  19  22
ENDBRANCH  16  19
ENDBRANCH  13  16
ENDBRANCH   3  13
BRANCH   2  29
ATOM     29  C   UNL     1      -7.460 -13.607   2.775  0.00  0.00    +0.000 C 
ATOM     30  H   UNL     1      -8.117 -14.459   2.989  0.00  0.00    +0.000 HD
ATOM     31  H   UNL     1      -8.063 -12.834   2.286  0.00  0.00    +0.000 HD
BRANCH  29  33
ATOM     32  O   UNL     1      -5.799 -12.759   4.334  0.00  0.00    +0.000 OA
ATOM     33  C   UNL     1      -6.962 -13.041   4.082  0.00  0.00    +0.000 C 
BRANCH  33  34
ATOM     34  O   UNL     1      -8.023 -12.897   4.931  0.00  0.00    +0.000 OA
BRANCH  34  35
ATOM     35  C   UNL     1      -7.837 -13.429   6.246  0.00  0.00    +0.000 C 
ATOM     36  H   UNL     1      -8.496 -12.921   6.957  0.00  0.00    +0.000 HD
ATOM     37  H   UNL     1      -8.024 -14.507   6.249  0.00  0.00    +0.000 HD
ATOM     38  H   UNL     1      -6.798 -13.253   6.542  0.00  0.00    +0.000 HD
ENDBRANCH  34  35
ENDBRANCH  33  34
ENDBRANCH  29  33
ENDBRANCH   2  29
TORSDOF 9
ENDMDL
MODEL 4
REMARK VINA RESULT:    -4.851     21.840     24.192
REMARK INTER + INTRA:          -7.854
REMARK INTER:                  -6.973
REMARK INTRA:                  -0.881
REMARK UNBOUND:                -0.735
REMARK  Name = 102861
REMARK  9 active torsions:
REMARK  status: ('A' for Active; 'I' for Inactive)
REMARK    1  A    between atoms: O_2  and  C_13
REMARK    2  A    between atoms: O_2  and  C_16
REMARK    3  A    between atoms: C_4  and  C_10
REMARK    4  A    between atoms: C_5  and  C_7
REMARK    5  A    between atoms: C_7  and  C_11
REMARK    6  A    between atoms: C_10  and  C_13
REMARK    7  A    between atoms: C_11  and  C_12
REMARK    8  A    between atoms: C_12  and  C_14
REMARK    9  A    between atoms: C_14  and  C_15
REMARK                            x       y       z     vdW  Elec       q    Type
REMARK                         _______ _______ _______ _____ _____    ______ ____
ROOT
ATOM      1  O   UNL     1      16.401   3.688   1.936  0.00  0.00    +0.000 OA
ATOM      2  C   UNL     1      13.422   4.787   0.326  0.00  0.00    +0.000 C 
ATOM      3  C   UNL     1      14.955   4.901   0.417  0.00  0.00    +0.000 C 
ATOM      4  C   UNL     1      13.127   3.320   0.655  0.00  0.00    +0.000 C 
ATOM      5  C   UNL     1      14.117   2.942   1.749  0.00  0.00    +0.000 C 
ATOM      6  C   UNL     1      15.294   3.826   1.430  0.00  0.00    +0.000 C 
ATOM      7  H   UNL     1      13.037   5.010  -0.674  0.00  0.00    +0.000 HD
ATOM      8  H   UNL     1      15.285   5.867   0.814  0.00  0.00    +0.000 HD
ATOM      9  H   UNL     1      12.092   3.150   0.966  0.00  0.00    +0.000 HD
ATOM     10  H   UNL     1      13.308   2.700  -0.232  0.00  0.00    +0.000 HD
ATOM     11  H   UNL     1      13.738   3.196   2.743  0.00  0.00    +0.000 HD
ATOM     12  H   UNL     1      14.391   1.886   1.700  0.00  0.00    +0.000 HD
ENDROOT
BRANCH   3  13
ATOM     13  C   UNL     1      15.649   4.602  -0.903  0.00  0.00    +0.000 C 
ATOM     14  H   UNL     1      15.048   3.915  -1.513  0.00  0.00    +0.000 HD
ATOM     15  H   UNL     1      16.596   4.082  -0.707  0.00  0.00    +0.000 HD
BRANCH  13  16
ATOM     16  C   UNL     1      15.933   5.881  -1.693  0.00  0.00    +0.000 C 
ATOM     17  H   UNL     1      16.934   5.821  -2.138  0.00  0.00    +0.000 HD
ATOM     18  H   UNL     1      15.922   6.758  -1.040  0.00  0.00    +0.000 HD
BRANCH  16  19
ATOM     19  C   UNL     1      14.899   6.095  -2.801  0.00  0.00    +0.000 C 
ATOM     20  H   UNL     1      15.166   5.491  -3.677  0.00  0.00    +0.000 HD
ATOM     21  H   UNL     1      13.917   5.748  -2.456  0.00  0.00    +0.000 HD
BRANCH  19  22
ATOM     22  C   UNL     1      14.809   7.567  -3.199  0.00  0.00    +0.000 C 
ATOM     23  H   UNL     1      13.762   7.842  -3.372  0.00  0.00    +0.000 HD
ATOM     24  H   UNL     1      15.348   7.734  -4.139  0.00  0.00    +0.000 HD
BRANCH  22  25
ATOM     25  C   UNL     1      15.392   8.472  -2.125  0.00  0.00    +0.000 C 
ATOM     26  H   UNL     1      15.233   8.050  -1.128  0.00  0.00    +0.000 HD
ATOM     27  H   UNL     1      14.914   9.456  -2.158  0.00  0.00    +0.000 HD
ATOM     28  H   UNL     1      16.468   8.611  -2.272  0.00  0.00    +0.000 HD
ENDBRANCH  22  25
ENDBRANCH  19  22
ENDBRANCH  16  19
ENDBRANCH  13  16
ENDBRANCH   3  13
BRANCH   2  29
ATOM     29  C   UNL     1      12.728   5.733   1.310  0.00  0.00    +0.000 C 
ATOM     30  H   UNL     1      13.093   5.554   2.328  0.00  0.00    +0.000 HD
ATOM     31  H   UNL     1      11.646   5.560   1.308  0.00  0.00    +0.000 HD
BRANCH  29  33
ATOM     32  O   UNL     1      12.619   7.723  -0.081  0.00  0.00    +0.000 OA
ATOM     33  C   UNL     1      12.961   7.183   0.961  0.00  0.00    +0.000 C 
BRANCH  33  34
ATOM     34  O   UNL     1      13.613   7.785   2.000  0.00  0.00    +0.000 OA
BRANCH  34  35
ATOM     35  C   UNL     1      13.290   7.287   3.302  0.00  0.00    +0.000 C 
ATOM     36  H   UNL     1      12.457   6.580   3.241  0.00  0.00    +0.000 HD
ATOM     37  H   UNL     1      14.167   6.814   3.755  0.00  0.00    +0.000 HD
ATOM     38  H   UNL     1      12.987   8.133   3.925  0.00  0.00    +0.000 HD
ENDBRANCH  34  35
ENDBRANCH  33  34
ENDBRANCH  29  33
ENDBRANCH   2  29
TORSDOF 9
ENDMDL
MODEL 5
REMARK VINA RESULT:    -4.763     18.651     20.990
REMARK INTER + INTRA:          -7.725
REMARK INTER:                  -6.758
REMARK INTRA:                  -0.967
REMARK UNBOUND:                -0.735
REMARK  Name = 102861
REMARK  9 active torsions:
REMARK  status: ('A' for Active; 'I' for Inactive)
REMARK    1  A    between atoms: O_2  and  C_13
REMARK    2  A    between atoms: O_2  and  C_16
REMARK    3  A    between atoms: C_4  and  C_10
REMARK    4  A    between atoms: C_5  and  C_7
REMARK    5  A    between atoms: C_7  and  C_11
REMARK    6  A    between atoms: C_10  and  C_13
REMARK    7  A    between atoms: C_11  and  C_12
REMARK    8  A    between atoms: C_12  and  C_14
REMARK    9  A    between atoms: C_14  and  C_15
REMARK                            x       y       z     vdW  Elec       q    Type
REMARK                         _______ _______ _______ _____ _____    ______ ____
ROOT
ATOM      1  O   UNL     1      15.839  17.265 -10.423  0.00  0.00    +0.000 OA
ATOM      2  C   UNL     1      12.743  18.578 -11.591  0.00  0.00    +0.000 C 
ATOM      3  C   UNL     1      14.260  18.793 -11.446  0.00  0.00    +0.000 C 
ATOM      4  C   UNL     1      12.587  17.068 -11.797  0.00  0.00    +0.000 C 
ATOM      5  C   UNL     1      13.628  16.425 -10.888  0.00  0.00    +0.000 C 
ATOM      6  C   UNL     1      14.714  17.468 -10.865  0.00  0.00    +0.000 C 
ATOM      7  H   UNL     1      12.321  19.097 -12.457  0.00  0.00    +0.000 HD
ATOM      8  H   UNL     1      14.510  19.587 -10.734  0.00  0.00    +0.000 HD
ATOM      9  H   UNL     1      11.578  16.707 -11.578  0.00  0.00    +0.000 HD
ATOM     10  H   UNL     1      12.807  16.813 -12.841  0.00  0.00    +0.000 HD
ATOM     11  H   UNL     1      13.247  16.283  -9.873  0.00  0.00    +0.000 HD
ATOM     12  H   UNL     1      13.995  15.482 -11.296  0.00  0.00    +0.000 HD
ENDROOT
BRANCH   3  13
ATOM     13  C   UNL     1      14.954  19.034 -12.778  0.00  0.00    +0.000 C 
ATOM     14  H   UNL     1      14.219  19.124 -13.589  0.00  0.00    +0.000 HD
ATOM     15  H   UNL     1      15.575  18.165 -13.029  0.00  0.00    +0.000 HD
BRANCH  13  16
ATOM     16  C   UNL     1      15.834  20.285 -12.738  0.00  0.00    +0.000 C 
ATOM     17  H   UNL     1      15.592  20.930 -13.591  0.00  0.00    +0.000 HD
ATOM     18  H   UNL     1      16.893  20.024 -12.820  0.00  0.00    +0.000 HD
BRANCH  16  19
ATOM     19  C   UNL     1      15.633  21.068 -11.438  0.00  0.00    +0.000 C 
ATOM     20  H   UNL     1      14.984  20.499 -10.762  0.00  0.00    +0.000 HD
ATOM     21  H   UNL     1      16.599  21.189 -10.932  0.00  0.00    +0.000 HD
BRANCH  19  22
ATOM     22  C   UNL     1      15.022  22.442 -11.707  0.00  0.00    +0.000 C 
ATOM     23  H   UNL     1      15.328  22.799 -12.697  0.00  0.00    +0.000 HD
ATOM     24  H   UNL     1      15.392  23.166 -10.971  0.00  0.00    +0.000 HD
BRANCH  22  25
ATOM     25  C   UNL     1      13.503  22.398 -11.639  0.00  0.00    +0.000 C 
ATOM     26  H   UNL     1      13.058  22.994 -12.441  0.00  0.00    +0.000 HD
ATOM     27  H   UNL     1      13.155  22.801 -10.683  0.00  0.00    +0.000 HD
ATOM     28  H   UNL     1      13.137  21.370 -11.730  0.00  0.00    +0.000 HD
ENDBRANCH  22  25
ENDBRANCH  19  22
ENDBRANCH  16  19
ENDBRANCH  13  16
ENDBRANCH   3  13
BRANCH   2  29
ATOM     29  C   UNL     1      11.985  19.056 -10.350  0.00  0.00    +0.000 C 
ATOM     30  H   UNL     1      12.573  19.811  -9.815  0.00  0.00    +0.000 HD
ATOM     31  H   UNL     1      11.809  18.221  -9.663  0.00  0.00    +0.000 HD
BRANCH  29  33
ATOM     32  O   UNL     1      10.137  19.648 -11.815  0.00  0.00    +0.000 OA
ATOM     33  C   UNL     1      10.643  19.651 -10.702  0.00  0.00    +0.000 C 
BRANCH  33  34
ATOM     34  O   UNL     1      10.091  20.189  -9.573  0.00  0.00    +0.000 OA
BRANCH  34  35
ATOM     35  C   UNL     1      10.190  21.612  -9.457  0.00  0.00    +0.000 C 
ATOM     36  H   UNL     1       9.294  22.088  -9.867  0.00  0.00    +0.000 HD
ATOM     37  H   UNL     1      10.336  21.898  -8.412  0.00  0.00    +0.000 HD
ATOM     38  H   UNL     1      11.058  21.941 -10.036  0.00  0.00    +0.000 HD
ENDBRANCH  34  35
ENDBRANCH  33  34
ENDBRANCH  29  33
ENDBRANCH   2  29
TORSDOF 9
ENDMDL
MODEL 6
REMARK VINA RESULT:    -4.729     21.690     23.480
REMARK INTER + INTRA:          -7.676
REMARK INTER:                  -6.688
REMARK INTRA:                  -0.988
REMARK UNBOUND:                -0.735
REMARK  Name = 102861
REMARK  9 active torsions:
REMARK  status: ('A' for Active; 'I' for Inactive)
REMARK    1  A    between atoms: O_2  and  C_13
REMARK    2  A    between atoms: O_2  and  C_16
REMARK    3  A    between atoms: C_4  and  C_10
REMARK    4  A    between atoms: C_5  and  C_7
REMARK    5  A    between atoms: C_7  and  C_11
REMARK    6  A    between atoms: C_10  and  C_13
REMARK    7  A    between atoms: C_11  and  C_12
REMARK    8  A    between atoms: C_12  and  C_14
REMARK    9  A    between atoms: C_14  and  C_15
REMARK                            x       y       z     vdW  Elec       q    Type
REMARK                         _______ _______ _______ _____ _____    ______ ____
ROOT
ATOM      1  O   UNL     1      12.461   3.453   0.269  0.00  0.00    +0.000 OA
ATOM      2  C   UNL     1      15.026   5.683  -0.789  0.00  0.00    +0.000 C 
ATOM      3  C   UNL     1      13.588   5.531  -0.260  0.00  0.00    +0.000 C 
ATOM      4  C   UNL     1      15.801   4.540  -0.126  0.00  0.00    +0.000 C 
ATOM      5  C   UNL     1      14.840   3.358  -0.102  0.00  0.00    +0.000 C 
ATOM      6  C   UNL     1      13.502   4.041   0.003  0.00  0.00    +0.000 C 
ATOM      7  H   UNL     1      15.486   6.634  -0.504  0.00  0.00    +0.000 HD
ATOM      8  H   UNL     1      12.831   5.796  -1.005  0.00  0.00    +0.000 HD
ATOM      9  H   UNL     1      16.733   4.296  -0.645  0.00  0.00    +0.000 HD
ATOM     10  H   UNL     1      16.063   4.819   0.902  0.00  0.00    +0.000 HD
ATOM     11  H   UNL     1      14.878   2.786  -1.033  0.00  0.00    +0.000 HD
ATOM     12  H   UNL     1      15.019   2.708   0.756  0.00  0.00    +0.000 HD
ENDROOT
BRANCH   3  13
ATOM     13  C   UNL     1      13.351   6.296   1.035  0.00  0.00    +0.000 C 
ATOM     14  H   UNL     1      14.178   6.135   1.739  0.00  0.00    +0.000 HD
ATOM     15  H   UNL     1      12.453   5.905   1.529  0.00  0.00    +0.000 HD
BRANCH  13  16
ATOM     16  C   UNL     1      13.173   7.793   0.780  0.00  0.00    +0.000 C 
ATOM     17  H   UNL     1      12.225   8.128   1.217  0.00  0.00    +0.000 HD
ATOM     18  H   UNL     1      13.128   8.008  -0.291  0.00  0.00    +0.000 HD
BRANCH  16  19
ATOM     19  C   UNL     1      14.322   8.604   1.383  0.00  0.00    +0.000 C 
ATOM     20  H   UNL     1      13.920   9.367   2.061  0.00  0.00    +0.000 HD
ATOM     21  H   UNL     1      14.960   7.943   1.984  0.00  0.00    +0.000 HD
BRANCH  19  22
ATOM     22  C   UNL     1      15.162   9.272   0.295  0.00  0.00    +0.000 C 
ATOM     23  H   UNL     1      15.032  10.360   0.341  0.00  0.00    +0.000 HD
ATOM     24  H   UNL     1      14.820   8.946  -0.694  0.00  0.00    +0.000 HD
BRANCH  22  25
ATOM     25  C   UNL     1      16.638   8.938   0.447  0.00  0.00    +0.000 C 
ATOM     26  H   UNL     1      16.855   8.571   1.454  0.00  0.00    +0.000 HD
ATOM     27  H   UNL     1      17.247   9.830   0.270  0.00  0.00    +0.000 HD
ATOM     28  H   UNL     1      16.941   8.170  -0.273  0.00  0.00    +0.000 HD
ENDBRANCH  22  25
ENDBRANCH  19  22
ENDBRANCH  16  19
ENDBRANCH  13  16
ENDBRANCH   3  13
BRANCH   2  29
ATOM     29  C   UNL     1      15.077   5.584  -2.316  0.00  0.00    +0.000 C 
ATOM     30  H   UNL     1      14.160   5.117  -2.695  0.00  0.00    +0.000 HD
ATOM     31  H   UNL     1      15.923   4.963  -2.631  0.00  0.00    +0.000 HD
BRANCH  29  33
ATOM     32  O   UNL     1      14.356   7.539  -3.568  0.00  0.00    +0.000 OA
ATOM     33  C   UNL     1      15.234   6.937  -2.966  0.00  0.00    +0.000 C 
BRANCH  33  34
ATOM     34  O   UNL     1      16.514   7.373  -2.769  0.00  0.00    +0.000 OA
BRANCH  34  35
ATOM     35  C   UNL     1      16.757   8.742  -3.108  0.00  0.00    +0.000 C 
ATOM     36  H   UNL     1      16.820   8.857  -4.195  0.00  0.00    +0.000 HD
ATOM     37  H   UNL     1      15.970   9.380  -2.696  0.00  0.00    +0.000 HD
ATOM     38  H   UNL     1      17.715   9.037  -2.668  0.00  0.00    +0.000 HD
ENDBRANCH  34  35
ENDBRANCH  33  34
ENDBRANCH  29  33
ENDBRANCH   2  29
TORSDOF 9
ENDMDL
MODEL 7
REMARK VINA RESULT:    -4.525     24.219     26.293
REMARK INTER + INTRA:          -7.377
REMARK INTER:                  -6.863
REMARK INTRA:                  -0.514
REMARK UNBOUND:                -0.735
REMARK  Name = 102861
REMARK  9 active torsions:
REMARK  status: ('A' for Active; 'I' for Inactive)
REMARK    1  A    between atoms: O_2  and  C_13
REMARK    2  A    between atoms: O_2  and  C_16
REMARK    3  A    between atoms: C_4  and  C_10
REMARK    4  A    between atoms: C_5  and  C_7
REMARK    5  A    between atoms: C_7  and  C_11
REMARK    6  A    between atoms: C_10  and  C_13
REMARK    7  A    between atoms: C_11  and  C_12
REMARK    8  A    between atoms: C_12  and  C_14
REMARK    9  A    between atoms: C_14  and  C_15
REMARK                            x       y       z     vdW  Elec       q    Type
REMARK                         _______ _______ _______ _____ _____    ______ ____
ROOT
ATOM      1  O   UNL     1     -12.118  -5.724  -3.562  0.00  0.00    +0.000 OA
ATOM      2  C   UNL     1     -14.715  -6.235  -5.943  0.00  0.00    +0.000 C 
ATOM      3  C   UNL     1     -14.265  -6.374  -4.477  0.00  0.00    +0.000 C 
ATOM      4  C   UNL     1     -14.030  -4.955  -6.435  0.00  0.00    +0.000 C 
ATOM      5  C   UNL     1     -12.652  -4.957  -5.783  0.00  0.00    +0.000 C 
ATOM      6  C   UNL     1     -12.914  -5.689  -4.493  0.00  0.00    +0.000 C 
ATOM      7  H   UNL     1     -15.797  -6.118  -6.048  0.00  0.00    +0.000 HD
ATOM      8  H   UNL     1     -14.121  -7.416  -4.175  0.00  0.00    +0.000 HD
ATOM      9  H   UNL     1     -13.964  -4.895  -7.525  0.00  0.00    +0.000 HD
ATOM     10  H   UNL     1     -14.595  -4.080  -6.092  0.00  0.00    +0.000 HD
ATOM     11  H   UNL     1     -11.925  -5.521  -6.374  0.00  0.00    +0.000 HD
ATOM     12  H   UNL     1     -12.292  -3.943  -5.596  0.00  0.00    +0.000 HD
ENDROOT
BRANCH   3  13
ATOM     13  C   UNL     1     -15.193  -5.660  -3.505  0.00  0.00    +0.000 C 
ATOM     14  H   UNL     1     -15.378  -4.627  -3.829  0.00  0.00    +0.000 HD
ATOM     15  H   UNL     1     -14.705  -5.585  -2.525  0.00  0.00    +0.000 HD
BRANCH  13  16
ATOM     16  C   UNL     1     -16.523  -6.399  -3.349  0.00  0.00    +0.000 C 
ATOM     17  H   UNL     1     -16.357  -7.477  -3.460  0.00  0.00    +0.000 HD
ATOM     18  H   UNL     1     -17.233  -6.100  -4.125  0.00  0.00    +0.000 HD
BRANCH  16  19
ATOM     19  C   UNL     1     -17.160  -6.123  -1.985  0.00  0.00    +0.000 C 
ATOM     20  H   UNL     1     -17.125  -7.032  -1.371  0.00  0.00    +0.000 HD
ATOM     21  H   UNL     1     -16.578  -5.356  -1.459  0.00  0.00    +0.000 HD
BRANCH  19  22
ATOM     22  C   UNL     1     -18.607  -5.656  -2.132  0.00  0.00    +0.000 C 
ATOM     23  H   UNL     1     -18.646  -4.560  -2.129  0.00  0.00    +0.000 HD
ATOM     24  H   UNL     1     -19.200  -6.004  -1.278  0.00  0.00    +0.000 HD
BRANCH  22  25
ATOM     25  C   UNL     1     -19.233  -6.175  -3.417  0.00  0.00    +0.000 C 
ATOM     26  H   UNL     1     -19.341  -5.372  -4.152  0.00  0.00    +0.000 HD
ATOM     27  H   UNL     1     -20.226  -6.587  -3.214  0.00  0.00    +0.000 HD
ATOM     28  H   UNL     1     -18.619  -6.967  -3.859  0.00  0.00    +0.000 HD
ENDBRANCH  22  25
ENDBRANCH  19  22
ENDBRANCH  16  19
ENDBRANCH  13  16
ENDBRANCH   3  13
BRANCH   2  29
ATOM     29  C   UNL     1     -14.298  -7.449  -6.777  0.00  0.00    +0.000 C 
ATOM     30  H   UNL     1     -14.152  -8.321  -6.129  0.00  0.00    +0.000 HD
ATOM     31  H   UNL     1     -13.351  -7.254  -7.293  0.00  0.00    +0.000 HD
BRANCH  29  33
ATOM     32  O   UNL     1     -16.430  -7.277  -7.933  0.00  0.00    +0.000 OA
ATOM     33  C   UNL     1     -15.327  -7.795  -7.826  0.00  0.00    +0.000 C 
BRANCH  33  34
ATOM     34  O   UNL     1     -14.823  -8.778  -8.630  0.00  0.00    +0.000 OA
BRANCH  34  35
ATOM     35  C   UNL     1     -15.180 -10.115  -8.267  0.00  0.00    +0.000 C 
ATOM     36  H   UNL     1     -15.441 -10.162  -7.205  0.00  0.00    +0.000 HD
ATOM     37  H   UNL     1     -16.010 -10.467  -8.886  0.00  0.00    +0.000 HD
ATOM     38  H   UNL     1     -14.313 -10.759  -8.443  0.00  0.00    +0.000 HD
ENDBRANCH  34  35
ENDBRANCH  33  34
ENDBRANCH  29  33
ENDBRANCH   2  29
TORSDOF 9
ENDMDL
MODEL 8
REMARK VINA RESULT:    -4.462     24.865     26.757
REMARK INTER + INTRA:          -7.285
REMARK INTER:                  -6.360
REMARK INTRA:                  -0.925
REMARK UNBOUND:                -0.735
REMARK  Name = 102861
REMARK  9 active torsions:
REMARK  status: ('A' for Active; 'I' for Inactive)
REMARK    1  A    between atoms: O_2  and  C_13
REMARK    2  A    between atoms: O_2  and  C_16
REMARK    3  A    between atoms: C_4  and  C_10
REMARK    4  A    between atoms: C_5  and  C_7
REMARK    5  A    between atoms: C_7  and  C_11
REMARK    6  A    between atoms: C_10  and  C_13
REMARK    7  A    between atoms: C_11  and  C_12
REMARK    8  A    between atoms: C_12  and  C_14
REMARK    9  A    between atoms: C_14  and  C_15
REMARK                            x       y       z     vdW  Elec       q    Type
REMARK                         _______ _______ _______ _____ _____    ______ ____
ROOT
ATOM      1  O   UNL     1      18.446  -3.050  -0.757  0.00  0.00    +0.000 OA
ATOM      2  C   UNL     1      16.384  -5.952  -0.695  0.00  0.00    +0.000 C 
ATOM      3  C   UNL     1      16.647  -4.572  -1.323  0.00  0.00    +0.000 C 
ATOM      4  C   UNL     1      17.780  -6.502  -0.380  0.00  0.00    +0.000 C 
ATOM      5  C   UNL     1      18.592  -5.302   0.091  0.00  0.00    +0.000 C 
ATOM      6  C   UNL     1      17.956  -4.170  -0.674  0.00  0.00    +0.000 C 
ATOM      7  H   UNL     1      15.879  -6.642  -1.377  0.00  0.00    +0.000 HD
ATOM      8  H   UNL     1      15.885  -3.832  -1.054  0.00  0.00    +0.000 HD
ATOM      9  H   UNL     1      17.768  -7.303   0.365  0.00  0.00    +0.000 HD
ATOM     10  H   UNL     1      18.229  -6.912  -1.293  0.00  0.00    +0.000 HD
ATOM     11  H   UNL     1      18.467  -5.124   1.163  0.00  0.00    +0.000 HD
ATOM     12  H   UNL     1      19.649  -5.404  -0.162  0.00  0.00    +0.000 HD
ENDROOT
BRANCH   3  13
ATOM     13  C   UNL     1      16.820  -4.633  -2.834  0.00  0.00    +0.000 C 
ATOM     14  H   UNL     1      17.844  -4.361  -3.120  0.00  0.00    +0.000 HD
ATOM     15  H   UNL     1      16.167  -3.888  -3.306  0.00  0.00    +0.000 HD
BRANCH  13  16
ATOM     16  C   UNL     1      16.480  -6.019  -3.384  0.00  0.00    +0.000 C 
ATOM     17  H   UNL     1      15.490  -5.993  -3.856  0.00  0.00    +0.000 HD
ATOM     18  H   UNL     1      16.435  -6.762  -2.582  0.00  0.00    +0.000 HD
BRANCH  16  19
ATOM     19  C   UNL     1      17.517  -6.484  -4.409  0.00  0.00    +0.000 C 
ATOM     20  H   UNL     1      17.626  -7.574  -4.355  0.00  0.00    +0.000 HD
ATOM     21  H   UNL     1      17.164  -6.245  -5.420  0.00  0.00    +0.000 HD
BRANCH  19  22
ATOM     22  C   UNL     1      18.871  -5.818  -4.171  0.00  0.00    +0.000 C 
ATOM     23  H   UNL     1      18.757  -4.982  -3.472  0.00  0.00    +0.000 HD
ATOM     24  H   UNL     1      19.255  -5.406  -5.111  0.00  0.00    +0.000 HD
BRANCH  22  25
ATOM     25  C   UNL     1      19.885  -6.803  -3.609  0.00  0.00    +0.000 C 
ATOM     26  H   UNL     1      20.516  -7.212  -4.404  0.00  0.00    +0.000 HD
ATOM     27  H   UNL     1      19.372  -7.636  -3.120  0.00  0.00    +0.000 HD
ATOM     28  H   UNL     1      20.532  -6.320  -2.870  0.00  0.00    +0.000 HD
ENDBRANCH  22  25
ENDBRANCH  19  22
ENDBRANCH  16  19
ENDBRANCH  13  16
ENDBRANCH   3  13
BRANCH   2  29
ATOM     29  C   UNL     1      15.527  -5.842   0.569  0.00  0.00    +0.000 C 
ATOM     30  H   UNL     1      14.464  -5.810   0.304  0.00  0.00    +0.000 HD
ATOM     31  H   UNL     1      15.764  -4.921   1.114  0.00  0.00    +0.000 HD
BRANCH  29  33
ATOM     32  O   UNL     1      15.449  -8.164   1.285  0.00  0.00    +0.000 OA
ATOM     33  C   UNL     1      15.755  -7.001   1.509  0.00  0.00    +0.000 C 
BRANCH  33  34
ATOM     34  O   UNL     1      16.356  -6.535   2.644  0.00  0.00    +0.000 OA
BRANCH  34  35
ATOM     35  C   UNL     1      16.133  -5.152   2.937  0.00  0.00    +0.000 C 
ATOM     36  H   UNL     1      16.752  -4.840   3.783  0.00  0.00    +0.000 HD
ATOM     37  H   UNL     1      16.344  -4.539   2.055  0.00  0.00    +0.000 HD
ATOM     38  H   UNL     1      15.080  -5.027   3.207  0.00  0.00    +0.000 HD
ENDBRANCH  34  35
ENDBRANCH  33  34
ENDBRANCH  29  33
ENDBRANCH   2  29
TORSDOF 9
ENDMDL
MODEL 9
REMARK VINA RESULT:    -4.425     22.025     23.975
REMARK INTER + INTRA:          -7.230
REMARK INTER:                  -6.605
REMARK INTRA:                  -0.624
REMARK UNBOUND:                -0.735
REMARK  Name = 102861
REMARK  9 active torsions:
REMARK  status: ('A' for Active; 'I' for Inactive)
REMARK    1  A    between atoms: O_2  and  C_13
REMARK    2  A    between atoms: O_2  and  C_16
REMARK    3  A    between atoms: C_4  and  C_10
REMARK    4  A    between atoms: C_5  and  C_7
REMARK    5  A    between atoms: C_7  and  C_11
REMARK    6  A    between atoms: C_10  and  C_13
REMARK    7  A    between atoms: C_11  and  C_12
REMARK    8  A    between atoms: C_12  and  C_14
REMARK    9  A    between atoms: C_14  and  C_15
REMARK                            x       y       z     vdW  Elec       q    Type
REMARK                         _______ _______ _______ _____ _____    ______ ____
ROOT
ATOM      1  O   UNL     1     -16.255  -3.625  -4.411  0.00  0.00    +0.000 OA
ATOM      2  C   UNL     1     -13.922  -5.972  -5.723  0.00  0.00    +0.000 C 
ATOM      3  C   UNL     1     -14.666  -4.641  -5.933  0.00  0.00    +0.000 C 
ATOM      4  C   UNL     1     -13.686  -6.046  -4.211  0.00  0.00    +0.000 C 
ATOM      5  C   UNL     1     -14.944  -5.467  -3.576  0.00  0.00    +0.000 C 
ATOM      6  C   UNL     1     -15.394  -4.473  -4.614  0.00  0.00    +0.000 C 
ATOM      7  H   UNL     1     -12.954  -6.004  -6.233  0.00  0.00    +0.000 HD
ATOM      8  H   UNL     1     -15.410  -4.693  -6.734  0.00  0.00    +0.000 HD
ATOM      9  H   UNL     1     -13.482  -7.061  -3.857  0.00  0.00    +0.000 HD
ATOM     10  H   UNL     1     -12.822  -5.426  -3.941  0.00  0.00    +0.000 HD
ATOM     11  H   UNL     1     -15.720  -6.227  -3.448  0.00  0.00    +0.000 HD
ATOM     12  H   UNL     1     -14.728  -4.975  -2.625  0.00  0.00    +0.000 HD
ENDROOT
BRANCH   3  13
ATOM     13  C   UNL     1     -13.725  -3.466  -6.154  0.00  0.00    +0.000 C 
ATOM     14  H   UNL     1     -13.330  -3.098  -5.198  0.00  0.00    +0.000 HD
ATOM     15  H   UNL     1     -14.284  -2.630  -6.593  0.00  0.00    +0.000 HD
BRANCH  13  16
ATOM     16  C   UNL     1     -12.568  -3.838  -7.083  0.00  0.00    +0.000 C 
ATOM     17  H   UNL     1     -12.850  -4.709  -7.688  0.00  0.00    +0.000 HD
ATOM     18  H   UNL     1     -11.678  -4.118  -6.511  0.00  0.00    +0.000 HD
BRANCH  16  19
ATOM     19  C   UNL     1     -12.197  -2.678  -8.008  0.00  0.00    +0.000 C 
ATOM     20  H   UNL     1     -12.150  -1.746  -7.431  0.00  0.00    +0.000 HD
ATOM     21  H   UNL     1     -11.198  -2.849  -8.427  0.00  0.00    +0.000 HD
BRANCH  19  22
ATOM     22  C   UNL     1     -13.208  -2.528  -9.144  0.00  0.00    +0.000 C 
ATOM     23  H   UNL     1     -14.209  -2.360  -8.732  0.00  0.00    +0.000 HD
ATOM     24  H   UNL     1     -13.249  -3.453  -9.732  0.00  0.00    +0.000 HD
BRANCH  22  25
ATOM     25  C   UNL     1     -12.846  -1.372 -10.063  0.00  0.00    +0.000 C 
ATOM     26  H   UNL     1     -12.181  -1.703 -10.866  0.00  0.00    +0.000 HD
ATOM     27  H   UNL     1     -12.333  -0.586  -9.499  0.00  0.00    +0.000 HD
ATOM     28  H   UNL     1     -13.743  -0.936 -10.516  0.00  0.00    +0.000 HD
ENDBRANCH  22  25
ENDBRANCH  19  22
ENDBRANCH  16  19
ENDBRANCH  13  16
ENDBRANCH   3  13
BRANCH   2  29
ATOM     29  C   UNL     1     -14.746  -7.163  -6.220  0.00  0.00    +0.000 C 
ATOM     30  H   UNL     1     -15.782  -6.855  -6.406  0.00  0.00    +0.000 HD
ATOM     31  H   UNL     1     -14.764  -7.958  -5.467  0.00  0.00    +0.000 HD
BRANCH  29  33
ATOM     32  O   UNL     1     -13.681  -7.108  -8.405  0.00  0.00    +0.000 OA
ATOM     33  C   UNL     1     -14.183  -7.749  -7.492  0.00  0.00    +0.000 C 
BRANCH  33  34
ATOM     34  O   UNL     1     -14.325  -9.107  -7.451  0.00  0.00    +0.000 OA
BRANCH  34  35
ATOM     35  C   UNL     1     -13.460  -9.844  -8.321  0.00  0.00    +0.000 C 
ATOM     36  H   UNL     1     -12.436  -9.468  -8.244  0.00  0.00    +0.000 HD
ATOM     37  H   UNL     1     -13.500 -10.911  -8.081  0.00  0.00    +0.000 HD
ATOM     38  H   UNL     1     -13.810  -9.703  -9.348  0.00  0.00    +0.000 HD
ENDBRANCH  34  35
ENDBRANCH  33  34
ENDBRANCH  29  33
ENDBRANCH   2  29
TORSDOF 9
ENDMDL
MODEL 10
REMARK VINA RESULT:    -4.304     22.541     24.183
REMARK INTER + INTRA:          -7.052
REMARK INTER:                  -6.316
REMARK INTRA:                  -0.735
REMARK UNBOUND:                -0.735
REMARK  Name = 102861
REMARK  9 active torsions:
REMARK  status: ('A' for Active; 'I' for Inactive)
REMARK    1  A    between atoms: O_2  and  C_13
REMARK    2  A    between atoms: O_2  and  C_16
REMARK    3  A    between atoms: C_4  and  C_10
REMARK    4  A    between atoms: C_5  and  C_7
REMARK    5  A    between atoms: C_7  and  C_11
REMARK    6  A    between atoms: C_10  and  C_13
REMARK    7  A    between atoms: C_11  and  C_12
REMARK    8  A    between atoms: C_12  and  C_14
REMARK    9  A    between atoms: C_14  and  C_15
REMARK                            x       y       z     vdW  Elec       q    Type
REMARK                         _______ _______ _______ _____ _____    ______ ____
ROOT
ATOM      1  O   UNL     1      15.719   6.800   2.400  0.00  0.00    +0.000 OA
ATOM      2  C   UNL     1      14.970   8.560  -0.602  0.00  0.00    +0.000 C 
ATOM      3  C   UNL     1      14.936   7.215   0.145  0.00  0.00    +0.000 C 
ATOM      4  C   UNL     1      14.748   9.611   0.490  0.00  0.00    +0.000 C 
ATOM      5  C   UNL     1      15.506   9.098   1.708  0.00  0.00    +0.000 C 
ATOM      6  C   UNL     1      15.423   7.605   1.526  0.00  0.00    +0.000 C 
ATOM      7  H   UNL     1      14.176   8.654  -1.349  0.00  0.00    +0.000 HD
ATOM      8  H   UNL     1      15.632   6.480  -0.272  0.00  0.00    +0.000 HD
ATOM      9  H   UNL     1      15.078  10.612   0.197  0.00  0.00    +0.000 HD
ATOM     10  H   UNL     1      13.678   9.677   0.727  0.00  0.00    +0.000 HD
ATOM     11  H   UNL     1      16.556   9.403   1.689  0.00  0.00    +0.000 HD
ATOM     12  H   UNL     1      15.032   9.409   2.641  0.00  0.00    +0.000 HD
ENDROOT
BRANCH   3  13
ATOM     13  C   UNL     1      13.535   6.628   0.241  0.00  0.00    +0.000 C 
ATOM     14  H   UNL     1      12.808   7.269  -0.276  0.00  0.00    +0.000 HD
ATOM     15  H   UNL     1      13.221   6.605   1.293  0.00  0.00    +0.000 HD
BRANCH  13  16
ATOM     16  C   UNL     1      13.476   5.212  -0.333  0.00  0.00    +0.000 C 
ATOM     17  H   UNL     1      12.812   5.197  -1.205  0.00  0.00    +0.000 HD
ATOM     18  H   UNL     1      13.065   4.508   0.397  0.00  0.00    +0.000 HD
BRANCH  16  19
ATOM     19  C   UNL     1      14.864   4.717  -0.746  0.00  0.00    +0.000 C 
ATOM     20  H   UNL     1      14.943   4.711  -1.840  0.00  0.00    +0.000 HD
ATOM     21  H   UNL     1      15.626   5.413  -0.371  0.00  0.00    +0.000 HD
BRANCH  19  22
ATOM     22  C   UNL     1      15.140   3.317  -0.201  0.00  0.00    +0.000 C 
ATOM     23  H   UNL     1      16.067   3.322   0.385  0.00  0.00    +0.000 HD
ATOM     24  H   UNL     1      15.284   2.615  -1.030  0.00  0.00    +0.000 HD
BRANCH  22  25
ATOM     25  C   UNL     1      13.998   2.824   0.674  0.00  0.00    +0.000 C 
ATOM     26  H   UNL     1      13.886   1.739   0.598  0.00  0.00    +0.000 HD
ATOM     27  H   UNL     1      13.057   3.287   0.363  0.00  0.00    +0.000 HD
ATOM     28  H   UNL     1      14.172   3.079   1.725  0.00  0.00    +0.000 HD
ENDBRANCH  22  25
ENDBRANCH  19  22
ENDBRANCH  16  19
ENDBRANCH  13  16
ENDBRANCH   3  13
BRANCH   2  29
ATOM     29  C   UNL     1      16.307   8.772  -1.319  0.00  0.00    +0.000 C 
ATOM     30  H   UNL     1      17.037   8.025  -0.986  0.00  0.00    +0.000 HD
ATOM     31  H   UNL     1      16.713   9.763  -1.088  0.00  0.00    +0.000 HD
BRANCH  29  33
ATOM     32  O   UNL     1      15.111   8.532  -3.422  0.00  0.00    +0.000 OA
ATOM     33  C   UNL     1      16.165   8.673  -2.819  0.00  0.00    +0.000 C 
BRANCH  33  34
ATOM     34  O   UNL     1      17.405   8.768  -3.384  0.00  0.00    +0.000 OA
BRANCH  34  35
ATOM     35  C   UNL     1      18.507   8.617  -2.483  0.00  0.00    +0.000 C 
ATOM     36  H   UNL     1      19.392   9.123  -2.880  0.00  0.00    +0.000 HD
ATOM     37  H   UNL     1      18.246   9.009  -1.496  0.00  0.00    +0.000 HD
ATOM     38  H   UNL     1      18.726   7.549  -2.389  0.00  0.00    +0.000 HD
ENDBRANCH  34  35
ENDBRANCH  33  34
ENDBRANCH  29  33
ENDBRANCH   2  29
TORSDOF 9
ENDMDL
