MODEL 1
REMARK VINA RESULT:    -4.277      0.000      0.000
REMARK INTER + INTRA:          -5.634
REMARK INTER:                  -5.525
REMARK INTRA:                  -0.109
REMARK UNBOUND:                -0.233
REMARK  Name = 6184
REMARK  5 active torsions:
REMARK  status: ('A' for Active; 'I' for Inactive)
REMARK    1  A    between atoms: C_2  and  C_3
REMARK    2  A    between atoms: C_2  and  C_4
REMARK    3  A    between atoms: C_3  and  C_5
REMARK    4  A    between atoms: C_4  and  C_6
REMARK    5  A    between atoms: C_5  and  C_7
REMARK                            x       y       z     vdW  Elec       q    Type
REMARK                         _______ _______ _______ _____ _____    ______ ____
ROOT
ATOM      1  C   UNL     1       5.757  -5.684 -10.138  0.00  0.00    +0.000 C 
ATOM      2  H   UNL     1       6.109  -5.571 -11.171  0.00  0.00    +0.000 HD
ATOM      3  H   UNL     1       5.858  -4.705  -9.653  0.00  0.00    +0.000 HD
ENDROOT
BRANCH   1   4
ATOM      4  C   UNL     1       4.283  -6.101 -10.140  0.00  0.00    +0.000 C 
ATOM      5  H   UNL     1       4.018  -6.515 -11.121  0.00  0.00    +0.000 HD
ATOM      6  H   UNL     1       3.654  -5.213  -9.997  0.00  0.00    +0.000 HD
BRANCH   4   7
ATOM      7  C   UNL     1       3.966  -7.128  -9.057  0.00  0.00    +0.000 C 
ATOM      8  H   UNL     1       3.587  -8.052  -9.508  0.00  0.00    +0.000 HD
ATOM      9  H   UNL     1       4.875  -7.374  -8.498  0.00  0.00    +0.000 HD
BRANCH   7  11
ATOM     10  O   UNL     1       3.170  -6.434  -6.868  0.00  0.00    +0.000 OA
ATOM     11  C   UNL     1       2.940  -6.662  -8.050  0.00  0.00    +0.000 C 
ATOM     12  H   UNL     1       1.925  -6.519  -8.457  0.00  0.00    +0.000 HD
ENDBRANCH   7  11
ENDBRANCH   4   7
ENDBRANCH   1   4
BRANCH   1  13
ATOM     13  C   UNL     1       6.623  -6.710  -9.407  0.00  0.00    +0.000 C 
ATOM     14  H   UNL     1       5.997  -7.530  -9.036  0.00  0.00    +0.000 HD
ATOM     15  H   UNL     1       7.348  -7.148 -10.104  0.00  0.00    +0.000 HD
BRANCH  13  16
ATOM     16  C   UNL     1       7.366  -6.083  -8.240  0.00  0.00    +0.000 C 
ATOM     17  H   UNL     1       6.671  -5.531  -7.599  0.00  0.00    +0.000 HD
ATOM     18  H   UNL     1       8.131  -5.383  -8.592  0.00  0.00    +0.000 HD
ATOM     19  H   UNL     1       7.856  -6.848  -7.630  0.00  0.00    +0.000 HD
ENDBRANCH  13  16
ENDBRANCH   1  13
TORSDOF 5
ENDMDL
MODEL 2
REMARK VINA RESULT:    -4.131      2.997      3.598
REMARK INTER + INTRA:          -5.451
REMARK INTER:                  -5.400
REMARK INTRA:                  -0.051
REMARK UNBOUND:                -0.233
REMARK  Name = 6184
REMARK  5 active torsions:
REMARK  status: ('A' for Active; 'I' for Inactive)
REMARK    1  A    between atoms: C_2  and  C_3
REMARK    2  A    between atoms: C_2  and  C_4
REMARK    3  A    between atoms: C_3  and  C_5
REMARK    4  A    between atoms: C_4  and  C_6
REMARK    5  A    between atoms: C_5  and  C_7
REMARK                            x       y       z     vdW  Elec       q    Type
REMARK                         _______ _______ _______ _____ _____    ______ ____
ROOT
ATOM      1  C   UNL     1       5.080  -6.369  -9.915  0.00  0.00    +0.000 C 
ATOM      2  H   UNL     1       4.473  -6.123  -9.036  0.00  0.00    +0.000 HD
ATOM      3  H   UNL     1       4.525  -7.122 -10.490  0.00  0.00    +0.000 HD
ENDROOT
BRANCH   1   4
ATOM      4  C   UNL     1       5.273  -5.115 -10.774  0.00  0.00    +0.000 C 
ATOM      5  H   UNL     1       5.959  -5.336 -11.601  0.00  0.00    +0.000 HD
ATOM      6  H   UNL     1       5.754  -4.333 -10.172  0.00  0.00    +0.000 HD
BRANCH   4   7
ATOM      7  C   UNL     1       3.957  -4.586 -11.337  0.00  0.00    +0.000 C 
ATOM      8  H   UNL     1       3.115  -5.163 -10.941  0.00  0.00    +0.000 HD
ATOM      9  H   UNL     1       3.818  -3.540 -11.043  0.00  0.00    +0.000 HD
BRANCH   7  11
ATOM     10  O   UNL     1       2.830  -4.570 -13.491  0.00  0.00    +0.000 OA
ATOM     11  C   UNL     1       3.870  -4.636 -12.845  0.00  0.00    +0.000 C 
ATOM     12  H   UNL     1       4.841  -4.725 -13.362  0.00  0.00    +0.000 HD
ENDBRANCH   7  11
ENDBRANCH   4   7
ENDBRANCH   1   4
BRANCH   1  13
ATOM     13  C   UNL     1       6.422  -6.950  -9.471  0.00  0.00    +0.000 C 
ATOM     14  H   UNL     1       6.275  -7.950  -9.049  0.00  0.00    +0.000 HD
ATOM     15  H   UNL     1       7.084  -7.059 -10.338  0.00  0.00    +0.000 HD
BRANCH  13  16
ATOM     16  C   UNL     1       7.097  -6.066  -8.435  0.00  0.00    +0.000 C 
ATOM     17  H   UNL     1       7.360  -5.099  -8.875  0.00  0.00    +0.000 HD
ATOM     18  H   UNL     1       8.014  -6.531  -8.062  0.00  0.00    +0.000 HD
ATOM     19  H   UNL     1       6.433  -5.882  -7.584  0.00  0.00    +0.000 HD
ENDBRANCH  13  16
ENDBRANCH   1  13
TORSDOF 5
ENDMDL
MODEL 3
REMARK VINA RESULT:    -3.635     12.691     13.421
REMARK INTER + INTRA:          -4.824
REMARK INTER:                  -4.726
REMARK INTRA:                  -0.097
REMARK UNBOUND:                -0.233
REMARK  Name = 6184
REMARK  5 active torsions:
REMARK  status: ('A' for Active; 'I' for Inactive)
REMARK    1  A    between atoms: C_2  and  C_3
REMARK    2  A    between atoms: C_2  and  C_4
REMARK    3  A    between atoms: C_3  and  C_5
REMARK    4  A    between atoms: C_4  and  C_6
REMARK    5  A    between atoms: C_5  and  C_7
REMARK                            x       y       z     vdW  Elec       q    Type
REMARK                         _______ _______ _______ _____ _____    ______ ____
ROOT
ATOM      1  C   UNL     1      17.917  -6.117  -3.008  0.00  0.00    +0.000 C 
ATOM      2  H   UNL     1      18.576  -5.501  -2.384  0.00  0.00    +0.000 HD
ATOM      3  H   UNL     1      17.799  -7.083  -2.499  0.00  0.00    +0.000 HD
ENDROOT
BRANCH   1   4
ATOM      4  C   UNL     1      16.549  -5.440  -3.135  0.00  0.00    +0.000 C 
ATOM      5  H   UNL     1      16.260  -5.389  -4.193  0.00  0.00    +0.000 HD
ATOM      6  H   UNL     1      16.623  -4.402  -2.783  0.00  0.00    +0.000 HD
BRANCH   4   7
ATOM      7  C   UNL     1      15.462  -6.167  -2.349  0.00  0.00    +0.000 C 
ATOM      8  H   UNL     1      14.477  -5.754  -2.591  0.00  0.00    +0.000 HD
ATOM      9  H   UNL     1      15.457  -7.230  -2.615  0.00  0.00    +0.000 HD
BRANCH   7  11
ATOM     10  O   UNL     1      15.165  -6.888  -0.047  0.00  0.00    +0.000 OA
ATOM     11  C   UNL     1      15.631  -6.087  -0.850  0.00  0.00    +0.000 C 
ATOM     12  H   UNL     1      16.237  -5.236  -0.497  0.00  0.00    +0.000 HD
ENDBRANCH   7  11
ENDBRANCH   4   7
ENDBRANCH   1   4
BRANCH   1  13
ATOM     13  C   UNL     1      18.558  -6.335  -4.378  0.00  0.00    +0.000 C 
ATOM     14  H   UNL     1      18.996  -5.397  -4.739  0.00  0.00    +0.000 HD
ATOM     15  H   UNL     1      19.375  -7.061  -4.295  0.00  0.00    +0.000 HD
BRANCH  13  16
ATOM     16  C   UNL     1      17.546  -6.835  -5.395  0.00  0.00    +0.000 C 
ATOM     17  H   UNL     1      16.601  -6.293  -5.288  0.00  0.00    +0.000 HD
ATOM     18  H   UNL     1      17.343  -7.902  -5.254  0.00  0.00    +0.000 HD
ATOM     19  H   UNL     1      17.909  -6.687  -6.416  0.00  0.00    +0.000 HD
ENDBRANCH  13  16
ENDBRANCH   1  13
TORSDOF 5
ENDMDL
MODEL 4
REMARK VINA RESULT:    -3.482     36.271     37.402
REMARK INTER + INTRA:          -4.630
REMARK INTER:                  -4.506
REMARK INTRA:                  -0.125
REMARK UNBOUND:                -0.233
REMARK  Name = 6184
REMARK  5 active torsions:
REMARK  status: ('A' for Active; 'I' for Inactive)
REMARK    1  A    between atoms: C_2  and  C_3
REMARK    2  A    between atoms: C_2  and  C_4
REMARK    3  A    between atoms: C_3  and  C_5
REMARK    4  A    between atoms: C_4  and  C_6
REMARK    5  A    between atoms: C_5  and  C_7
REMARK                            x       y       z     vdW  Elec       q    Type
REMARK                         _______ _______ _______ _____ _____    ______ ____
ROOT
ATOM      1  C   UNL     1      -3.292   5.158  25.881  0.00  0.00    +0.000 C 
ATOM      2  H   UNL     1      -3.904   5.714  26.602  0.00  0.00    +0.000 HD
ATOM      3  H   UNL     1      -2.950   4.244  26.383  0.00  0.00    +0.000 HD
ENDROOT
BRANCH   1   4
ATOM      4  C   UNL     1      -4.145   4.782  24.665  0.00  0.00    +0.000 C 
ATOM      5  H   UNL     1      -3.711   3.906  24.167  0.00  0.00    +0.000 HD
ATOM      6  H   UNL     1      -4.117   5.601  23.934  0.00  0.00    +0.000 HD
BRANCH   4   7
ATOM      7  C   UNL     1      -5.594   4.484  25.039  0.00  0.00    +0.000 C 
ATOM      8  H   UNL     1      -6.276   5.073  24.417  0.00  0.00    +0.000 HD
ATOM      9  H   UNL     1      -5.814   3.424  24.870  0.00  0.00    +0.000 HD
BRANCH   7  11
ATOM     10  O   UNL     1      -6.697   5.658  26.859  0.00  0.00    +0.000 OA
ATOM     11  C   UNL     1      -5.929   4.780  26.483  0.00  0.00    +0.000 C 
ATOM     12  H   UNL     1      -5.433   4.124  27.217  0.00  0.00    +0.000 HD
ENDBRANCH   7  11
ENDBRANCH   4   7
ENDBRANCH   1   4
BRANCH   1  13
ATOM     13  C   UNL     1      -2.084   6.001  25.472  0.00  0.00    +0.000 C 
ATOM     14  H   UNL     1      -2.213   7.032  25.818  0.00  0.00    +0.000 HD
ATOM     15  H   UNL     1      -1.179   5.610  25.951  0.00  0.00    +0.000 HD
BRANCH  13  16
ATOM     16  C   UNL     1      -1.891   6.003  23.964  0.00  0.00    +0.000 C 
ATOM     17  H   UNL     1      -1.127   6.733  23.680  0.00  0.00    +0.000 HD
ATOM     18  H   UNL     1      -2.821   6.268  23.450  0.00  0.00    +0.000 HD
ATOM     19  H   UNL     1      -1.570   5.019  23.608  0.00  0.00    +0.000 HD
ENDBRANCH  13  16
ENDBRANCH   1  13
TORSDOF 5
ENDMDL
MODEL 5
REMARK VINA RESULT:    -3.467     36.761     38.014
REMARK INTER + INTRA:          -4.612
REMARK INTER:                  -4.512
REMARK INTRA:                  -0.100
REMARK UNBOUND:                -0.233
REMARK  Name = 6184
REMARK  5 active torsions:
REMARK  status: ('A' for Active; 'I' for Inactive)
REMARK    1  A    between atoms: C_2  and  C_3
REMARK    2  A    between atoms: C_2  and  C_4
REMARK    3  A    between atoms: C_3  and  C_5
REMARK    4  A    between atoms: C_4  and  C_6
REMARK    5  A    between atoms: C_5  and  C_7
REMARK                            x       y       z     vdW  Elec       q    Type
REMARK                         _______ _______ _______ _____ _____    ______ ____
ROOT
ATOM      1  C   UNL     1      -5.136   4.832  24.684  0.00  0.00    +0.000 C 
ATOM      2  H   UNL     1      -5.610   4.321  23.837  0.00  0.00    +0.000 HD
ATOM      3  H   UNL     1      -5.172   5.909  24.474  0.00  0.00    +0.000 HD
ENDROOT
BRANCH   1   4
ATOM      4  C   UNL     1      -5.920   4.537  25.967  0.00  0.00    +0.000 C 
ATOM      5  H   UNL     1      -6.327   3.519  25.925  0.00  0.00    +0.000 HD
ATOM      6  H   UNL     1      -6.782   5.214  26.030  0.00  0.00    +0.000 HD
BRANCH   4   7
ATOM      7  C   UNL     1      -5.063   4.686  27.221  0.00  0.00    +0.000 C 
ATOM      8  H   UNL     1      -4.029   4.919  26.948  0.00  0.00    +0.000 HD
ATOM      9  H   UNL     1      -5.443   5.508  27.838  0.00  0.00    +0.000 HD
BRANCH   7  11
ATOM     10  O   UNL     1      -5.996   3.008  28.712  0.00  0.00    +0.000 OA
ATOM     11  C   UNL     1      -5.034   3.454  28.096  0.00  0.00    +0.000 C 
ATOM     12  H   UNL     1      -4.058   2.944  28.144  0.00  0.00    +0.000 HD
ENDBRANCH   7  11
ENDBRANCH   4   7
ENDBRANCH   1   4
BRANCH   1  13
ATOM     13  C   UNL     1      -3.680   4.383  24.808  0.00  0.00    +0.000 C 
ATOM     14  H   UNL     1      -3.476   4.057  25.835  0.00  0.00    +0.000 HD
ATOM     15  H   UNL     1      -3.500   3.521  24.154  0.00  0.00    +0.000 HD
BRANCH  13  16
ATOM     16  C   UNL     1      -2.718   5.500  24.440  0.00  0.00    +0.000 C 
ATOM     17  H   UNL     1      -3.094   6.461  24.806  0.00  0.00    +0.000 HD
ATOM     18  H   UNL     1      -2.600   5.573  23.354  0.00  0.00    +0.000 HD
ATOM     19  H   UNL     1      -1.732   5.331  24.882  0.00  0.00    +0.000 HD
ENDBRANCH  13  16
ENDBRANCH   1  13
TORSDOF 5
ENDMDL
MODEL 6
REMARK VINA RESULT:    -3.445     13.366     14.581
REMARK INTER + INTRA:          -4.584
REMARK INTER:                  -4.489
REMARK INTRA:                  -0.095
REMARK UNBOUND:                -0.233
REMARK  Name = 6184
REMARK  5 active torsions:
REMARK  status: ('A' for Active; 'I' for Inactive)
REMARK    1  A    between atoms: C_2  and  C_3
REMARK    2  A    between atoms: C_2  and  C_4
REMARK    3  A    between atoms: C_3  and  C_5
REMARK    4  A    between atoms: C_4  and  C_6
REMARK    5  A    between atoms: C_5  and  C_7
REMARK                            x       y       z     vdW  Elec       q    Type
REMARK                         _______ _______ _______ _____ _____    ______ ____
ROOT
ATOM      1  C   UNL     1      17.174  -5.022  -3.030  0.00  0.00    +0.000 C 
ATOM      2  H   UNL     1      17.876  -5.217  -2.210  0.00  0.00    +0.000 HD
ATOM      3  H   UNL     1      17.406  -4.024  -3.425  0.00  0.00    +0.000 HD
ENDROOT
BRANCH   1   4
ATOM      4  C   UNL     1      17.373  -6.065  -4.135  0.00  0.00    +0.000 C 
ATOM      5  H   UNL     1      17.048  -5.649  -5.097  0.00  0.00    +0.000 HD
ATOM      6  H   UNL     1      16.728  -6.931  -3.938  0.00  0.00    +0.000 HD
BRANCH   4   7
ATOM      7  C   UNL     1      18.823  -6.526  -4.248  0.00  0.00    +0.000 C 
ATOM      8  H   UNL     1      19.051  -7.257  -3.466  0.00  0.00    +0.000 HD
ATOM      9  H   UNL     1      18.988  -7.006  -5.218  0.00  0.00    +0.000 HD
BRANCH   7  11
ATOM     10  O   UNL     1      20.884  -5.342  -4.760  0.00  0.00    +0.000 OA
ATOM     11  C   UNL     1      19.834  -5.408  -4.130  0.00  0.00    +0.000 C 
ATOM     12  H   UNL     1      19.558  -4.608  -3.423  0.00  0.00    +0.000 HD
ENDBRANCH   7  11
ENDBRANCH   4   7
ENDBRANCH   1   4
BRANCH   1  13
ATOM     13  C   UNL     1      15.741  -5.043  -2.499  0.00  0.00    +0.000 C 
ATOM     14  H   UNL     1      15.666  -4.419  -1.601  0.00  0.00    +0.000 HD
ATOM     15  H   UNL     1      15.062  -4.616  -3.247  0.00  0.00    +0.000 HD
BRANCH  13  16
ATOM     16  C   UNL     1      15.291  -6.455  -2.163  0.00  0.00    +0.000 C 
ATOM     17  H   UNL     1      14.713  -6.459  -1.234  0.00  0.00    +0.000 HD
ATOM     18  H   UNL     1      16.151  -7.119  -2.030  0.00  0.00    +0.000 HD
ATOM     19  H   UNL     1      14.660  -6.866  -2.957  0.00  0.00    +0.000 HD
ENDBRANCH  13  16
ENDBRANCH   1  13
TORSDOF 5
ENDMDL
MODEL 7
REMARK VINA RESULT:    -3.397     13.170     14.557
REMARK INTER + INTRA:          -4.524
REMARK INTER:                  -4.406
REMARK INTRA:                  -0.118
REMARK UNBOUND:                -0.233
REMARK  Name = 6184
REMARK  5 active torsions:
REMARK  status: ('A' for Active; 'I' for Inactive)
REMARK    1  A    between atoms: C_2  and  C_3
REMARK    2  A    between atoms: C_2  and  C_4
REMARK    3  A    between atoms: C_3  and  C_5
REMARK    4  A    between atoms: C_4  and  C_6
REMARK    5  A    between atoms: C_5  and  C_7
REMARK                            x       y       z     vdW  Elec       q    Type
REMARK                         _______ _______ _______ _____ _____    ______ ____
ROOT
ATOM      1  C   UNL     1      16.196  -5.053  -2.770  0.00  0.00    +0.000 C 
ATOM      2  H   UNL     1      15.586  -4.336  -3.333  0.00  0.00    +0.000 HD
ATOM      3  H   UNL     1      17.015  -5.368  -3.429  0.00  0.00    +0.000 HD
ENDROOT
BRANCH   1   4
ATOM      4  C   UNL     1      16.776  -4.371  -1.527  0.00  0.00    +0.000 C 
ATOM      5  H   UNL     1      17.008  -5.127  -0.766  0.00  0.00    +0.000 HD
ATOM      6  H   UNL     1      16.017  -3.710  -1.088  0.00  0.00    +0.000 HD
BRANCH   4   7
ATOM      7  C   UNL     1      18.033  -3.565  -1.838  0.00  0.00    +0.000 C 
ATOM      8  H   UNL     1      17.774  -2.520  -2.042  0.00  0.00    +0.000 HD
ATOM      9  H   UNL     1      18.711  -3.582  -0.978  0.00  0.00    +0.000 HD
BRANCH   7  11
ATOM     10  O   UNL     1      19.766  -3.502  -3.542  0.00  0.00    +0.000 OA
ATOM     11  C   UNL     1      18.814  -4.077  -3.027  0.00  0.00    +0.000 C 
ATOM     12  H   UNL     1      18.473  -5.051  -3.418  0.00  0.00    +0.000 HD
ENDBRANCH   7  11
ENDBRANCH   4   7
ENDBRANCH   1   4
BRANCH   1  13
ATOM     13  C   UNL     1      15.347  -6.267  -2.392  0.00  0.00    +0.000 C 
ATOM     14  H   UNL     1      14.299  -6.087  -2.656  0.00  0.00    +0.000 HD
ATOM     15  H   UNL     1      15.678  -7.144  -2.960  0.00  0.00    +0.000 HD
BRANCH  13  16
ATOM     16  C   UNL     1      15.440  -6.570  -0.905  0.00  0.00    +0.000 C 
ATOM     17  H   UNL     1      16.483  -6.540  -0.576  0.00  0.00    +0.000 HD
ATOM     18  H   UNL     1      15.042  -7.566  -0.683  0.00  0.00    +0.000 HD
ATOM     19  H   UNL     1      14.877  -5.837  -0.319  0.00  0.00    +0.000 HD
ENDBRANCH  13  16
ENDBRANCH   1  13
TORSDOF 5
ENDMDL
MODEL 8
REMARK VINA RESULT:    -3.385     13.160     14.275
REMARK INTER + INTRA:          -4.507
REMARK INTER:                  -4.296
REMARK INTRA:                  -0.212
REMARK UNBOUND:                -0.233
REMARK  Name = 6184
REMARK  5 active torsions:
REMARK  status: ('A' for Active; 'I' for Inactive)
REMARK    1  A    between atoms: C_2  and  C_3
REMARK    2  A    between atoms: C_2  and  C_4
REMARK    3  A    between atoms: C_3  and  C_5
REMARK    4  A    between atoms: C_4  and  C_6
REMARK    5  A    between atoms: C_5  and  C_7
REMARK                            x       y       z     vdW  Elec       q    Type
REMARK                         _______ _______ _______ _____ _____    ______ ____
ROOT
ATOM      1  C   UNL     1      19.038  -5.187  -3.949  0.00  0.00    +0.000 C 
ATOM      2  H   UNL     1      18.388  -4.522  -4.530  0.00  0.00    +0.000 HD
ATOM      3  H   UNL     1      20.065  -5.021  -4.298  0.00  0.00    +0.000 HD
ENDROOT
BRANCH   1   4
ATOM      4  C   UNL     1      18.942  -4.829  -2.462  0.00  0.00    +0.000 C 
ATOM      5  H   UNL     1      19.885  -4.379  -2.129  0.00  0.00    +0.000 HD
ATOM      6  H   UNL     1      18.811  -5.748  -1.875  0.00  0.00    +0.000 HD
BRANCH   4   7
ATOM      7  C   UNL     1      17.793  -3.869  -2.167  0.00  0.00    +0.000 C 
ATOM      8  H   UNL     1      18.041  -3.233  -1.310  0.00  0.00    +0.000 HD
ATOM      9  H   UNL     1      17.616  -3.220  -3.030  0.00  0.00    +0.000 HD
BRANCH   7  11
ATOM     10  O   UNL     1      15.656  -4.903  -2.691  0.00  0.00    +0.000 OA
ATOM     11  C   UNL     1      16.483  -4.556  -1.855  0.00  0.00    +0.000 C 
ATOM     12  H   UNL     1      16.306  -4.751  -0.784  0.00  0.00    +0.000 HD
ENDBRANCH   7  11
ENDBRANCH   4   7
ENDBRANCH   1   4
BRANCH   1  13
ATOM     13  C   UNL     1      18.641  -6.642  -4.196  0.00  0.00    +0.000 C 
ATOM     14  H   UNL     1      19.518  -7.221  -4.505  0.00  0.00    +0.000 HD
ATOM     15  H   UNL     1      18.269  -7.088  -3.266  0.00  0.00    +0.000 HD
BRANCH  13  16
ATOM     16  C   UNL     1      17.568  -6.753  -5.268  0.00  0.00    +0.000 C 
ATOM     17  H   UNL     1      16.796  -5.994  -5.113  0.00  0.00    +0.000 HD
ATOM     18  H   UNL     1      17.088  -7.737  -5.241  0.00  0.00    +0.000 HD
ATOM     19  H   UNL     1      17.994  -6.607  -6.265  0.00  0.00    +0.000 HD
ENDBRANCH  13  16
ENDBRANCH   1  13
TORSDOF 5
ENDMDL
MODEL 9
REMARK VINA RESULT:    -3.344     12.973     13.791
REMARK INTER + INTRA:          -4.456
REMARK INTER:                  -4.314
REMARK INTRA:                  -0.142
REMARK UNBOUND:                -0.233
REMARK  Name = 6184
REMARK  5 active torsions:
REMARK  status: ('A' for Active; 'I' for Inactive)
REMARK    1  A    between atoms: C_2  and  C_3
REMARK    2  A    between atoms: C_2  and  C_4
REMARK    3  A    between atoms: C_3  and  C_5
REMARK    4  A    between atoms: C_4  and  C_6
REMARK    5  A    between atoms: C_5  and  C_7
REMARK                            x       y       z     vdW  Elec       q    Type
REMARK                         _______ _______ _______ _____ _____    ______ ____
ROOT
ATOM      1  C   UNL     1      15.324  -6.334  -2.133  0.00  0.00    +0.000 C 
ATOM      2  H   UNL     1      14.250  -6.363  -2.351  0.00  0.00    +0.000 HD
ATOM      3  H   UNL     1      15.812  -7.044  -2.814  0.00  0.00    +0.000 HD
ENDROOT
BRANCH   1   4
ATOM      4  C   UNL     1      15.864  -4.924  -2.395  0.00  0.00    +0.000 C 
ATOM      5  H   UNL     1      15.943  -4.377  -1.447  0.00  0.00    +0.000 HD
ATOM      6  H   UNL     1      15.148  -4.370  -3.016  0.00  0.00    +0.000 HD
BRANCH   4   7
ATOM      7  C   UNL     1      17.226  -4.940  -3.083  0.00  0.00    +0.000 C 
ATOM      8  H   UNL     1      17.382  -4.009  -3.638  0.00  0.00    +0.000 HD
ATOM      9  H   UNL     1      18.022  -5.025  -2.335  0.00  0.00    +0.000 HD
BRANCH   7  11
ATOM     10  O   UNL     1      18.437  -6.740  -4.181  0.00  0.00    +0.000 OA
ATOM     11  C   UNL     1      17.410  -6.083  -4.056  0.00  0.00    +0.000 C 
ATOM     12  H   UNL     1      16.523  -6.315  -4.669  0.00  0.00    +0.000 HD
ENDBRANCH   7  11
ENDBRANCH   4   7
ENDBRANCH   1   4
BRANCH   1  13
ATOM     13  C   UNL     1      15.569  -6.761  -0.686  0.00  0.00    +0.000 C 
ATOM     14  H   UNL     1      14.749  -7.401  -0.341  0.00  0.00    +0.000 HD
ATOM     15  H   UNL     1      16.489  -7.355  -0.625  0.00  0.00    +0.000 HD
BRANCH  13  16
ATOM     16  C   UNL     1      15.686  -5.560   0.238  0.00  0.00    +0.000 C 
ATOM     17  H   UNL     1      16.510  -4.915  -0.081  0.00  0.00    +0.000 HD
ATOM     18  H   UNL     1      15.881  -5.876   1.268  0.00  0.00    +0.000 HD
ATOM     19  H   UNL     1      14.766  -4.967   0.229  0.00  0.00    +0.000 HD
ENDBRANCH  13  16
ENDBRANCH   1  13
TORSDOF 5
ENDMDL
MODEL 10
REMARK VINA RESULT:    -3.270     13.185     14.178
REMARK INTER + INTRA:          -4.362
REMARK INTER:                  -4.130
REMARK INTRA:                  -0.233
REMARK UNBOUND:                -0.233
REMARK  Name = 6184
REMARK  5 active torsions:
REMARK  status: ('A' for Active; 'I' for Inactive)
REMARK    1  A    between atoms: C_2  and  C_3
REMARK    2  A    between atoms: C_2  and  C_4
REMARK    3  A    between atoms: C_3  and  C_5
REMARK    4  A    between atoms: C_4  and  C_6
REMARK    5  A    between atoms: C_5  and  C_7
REMARK                            x       y       z     vdW  Elec       q    Type
REMARK                         _______ _______ _______ _____ _____    ______ ____
ROOT
ATOM      1  C   UNL     1      15.408  -6.411  -1.989  0.00  0.00    +0.000 C 
ATOM      2  H   UNL     1      14.451  -6.751  -2.403  0.00  0.00    +0.000 HD
ATOM      3  H   UNL     1      16.196  -7.017  -2.453  0.00  0.00    +0.000 HD
ENDROOT
BRANCH   1   4
ATOM      4  C   UNL     1      15.626  -4.936  -2.343  0.00  0.00    +0.000 C 
ATOM      5  H   UNL     1      15.427  -4.312  -1.463  0.00  0.00    +0.000 HD
ATOM      6  H   UNL     1      14.898  -4.635  -3.109  0.00  0.00    +0.000 HD
BRANCH   4   7
ATOM      7  C   UNL     1      17.039  -4.661  -2.849  0.00  0.00    +0.000 C 
ATOM      8  H   UNL     1      17.573  -5.602  -3.015  0.00  0.00    +0.000 HD
ATOM      9  H   UNL     1      16.997  -4.124  -3.803  0.00  0.00    +0.000 HD
BRANCH   7  11
ATOM     10  O   UNL     1      17.769  -3.823  -0.687  0.00  0.00    +0.000 OA
ATOM     11  C   UNL     1      17.876  -3.825  -1.909  0.00  0.00    +0.000 C 
ATOM     12  H   UNL     1      18.636  -3.195  -2.401  0.00  0.00    +0.000 HD
ENDBRANCH   7  11
ENDBRANCH   4   7
ENDBRANCH   1   4
BRANCH   1  13
ATOM     13  C   UNL     1      15.421  -6.625  -0.476  0.00  0.00    +0.000 C 
ATOM     14  H   UNL     1      15.297  -5.665   0.039  0.00  0.00    +0.000 HD
ATOM     15  H   UNL     1      14.576  -7.259  -0.183  0.00  0.00    +0.000 HD
BRANCH  13  16
ATOM     16  C   UNL     1      16.716  -7.273  -0.015  0.00  0.00    +0.000 C 
ATOM     17  H   UNL     1      16.553  -7.828   0.914  0.00  0.00    +0.000 HD
ATOM     18  H   UNL     1      17.487  -6.519   0.170  0.00  0.00    +0.000 HD
ATOM     19  H   UNL     1      17.093  -7.973  -0.766  0.00  0.00    +0.000 HD
ENDBRANCH  13  16
ENDBRANCH   1  13
TORSDOF 5
ENDMDL
