MODEL 1
REMARK VINA RESULT:    -4.938      0.000      0.000
REMARK INTER + INTRA:          -4.938
REMARK INTER:                  -4.938
REMARK INTRA:                   0.000
REMARK UNBOUND:                 0.000
REMARK  Name = 798
REMARK  0 active torsions:
REMARK  status: ('A' for Active; 'I' for Inactive)
REMARK                            x       y       z     vdW  Elec       q    Type
REMARK                         _______ _______ _______ _____ _____    ______ ____
ROOT
ATOM      1  N   UNL     1      -7.414 -15.849   2.858  0.00  0.00    +0.000 N 
ATOM      2  C   UNL     1      -7.617 -15.203   4.056  0.00  0.00    +0.000 A 
ATOM      3  C   UNL     1      -7.506 -13.832   3.809  0.00  0.00    +0.000 A 
ATOM      4  C   UNL     1      -7.229 -13.681   2.421  0.00  0.00    +0.000 A 
ATOM      5  C   UNL     1      -7.888 -15.720   5.327  0.00  0.00    +0.000 A 
ATOM      6  C   UNL     1      -7.673 -12.934   4.881  0.00  0.00    +0.000 A 
ATOM      7  C   UNL     1      -7.178 -14.938   1.864  0.00  0.00    +0.000 A 
ATOM      8  C   UNL     1      -8.050 -14.810   6.375  0.00  0.00    +0.000 A 
ATOM      9  C   UNL     1      -7.945 -13.437   6.158  0.00  0.00    +0.000 A 
ATOM     10  H   UNL     1      -7.435 -16.852   2.731  0.00  0.00    +0.000 HD
ATOM     11  H   UNL     1      -7.082 -12.753   1.886  0.00  0.00    +0.000 HD
ATOM     12  H   UNL     1      -7.971 -16.788   5.499  0.00  0.00    +0.000 HD
ATOM     13  H   UNL     1      -7.593 -11.862   4.724  0.00  0.00    +0.000 HD
ATOM     14  H   UNL     1      -6.996 -15.265   0.850  0.00  0.00    +0.000 HD
ATOM     15  H   UNL     1      -8.262 -15.179   7.376  0.00  0.00    +0.000 HD
ATOM     16  H   UNL     1      -8.074 -12.749   6.989  0.00  0.00    +0.000 HD
ENDROOT
TORSDOF 0
ENDMDL
MODEL 2
REMARK VINA RESULT:    -4.889     28.834     29.714
REMARK INTER + INTRA:          -4.889
REMARK INTER:                  -4.889
REMARK INTRA:                   0.000
REMARK UNBOUND:                 0.000
REMARK  Name = 798
REMARK  0 active torsions:
REMARK  status: ('A' for Active; 'I' for Inactive)
REMARK                            x       y       z     vdW  Elec       q    Type
REMARK                         _______ _______ _______ _____ _____    ______ ____
ROOT
ATOM      1  N   UNL     1      13.241   6.558  -1.003  0.00  0.00    +0.000 N 
ATOM      2  C   UNL     1      13.584   5.328  -0.488  0.00  0.00    +0.000 A 
ATOM      3  C   UNL     1      14.906   5.078  -0.863  0.00  0.00    +0.000 A 
ATOM      4  C   UNL     1      15.343   6.202  -1.620  0.00  0.00    +0.000 A 
ATOM      5  C   UNL     1      12.833   4.426   0.273  0.00  0.00    +0.000 A 
ATOM      6  C   UNL     1      15.509   3.871  -0.460  0.00  0.00    +0.000 A 
ATOM      7  C   UNL     1      14.298   7.094  -1.688  0.00  0.00    +0.000 A 
ATOM      8  C   UNL     1      13.452   3.235   0.662  0.00  0.00    +0.000 A 
ATOM      9  C   UNL     1      14.770   2.959   0.302  0.00  0.00    +0.000 A 
ATOM     10  H   UNL     1      12.340   7.001  -0.890  0.00  0.00    +0.000 HD
ATOM     11  H   UNL     1      16.317   6.343  -2.068  0.00  0.00    +0.000 HD
ATOM     12  H   UNL     1      11.806   4.639   0.555  0.00  0.00    +0.000 HD
ATOM     13  H   UNL     1      16.535   3.644  -0.734  0.00  0.00    +0.000 HD
ATOM     14  H   UNL     1      14.212   8.061  -2.164  0.00  0.00    +0.000 HD
ATOM     15  H   UNL     1      12.895   2.512   1.254  0.00  0.00    +0.000 HD
ATOM     16  H   UNL     1      15.229   2.026   0.615  0.00  0.00    +0.000 HD
ENDROOT
TORSDOF 0
ENDMDL
MODEL 3
REMARK VINA RESULT:    -4.774     26.832     27.858
REMARK INTER + INTRA:          -4.774
REMARK INTER:                  -4.774
REMARK INTRA:                   0.000
REMARK UNBOUND:                 0.000
REMARK  Name = 798
REMARK  0 active torsions:
REMARK  status: ('A' for Active; 'I' for Inactive)
REMARK                            x       y       z     vdW  Elec       q    Type
REMARK                         _______ _______ _______ _____ _____    ______ ____
ROOT
ATOM      1  N   UNL     1      17.285  -4.659  -1.209  0.00  0.00    +0.000 N 
ATOM      2  C   UNL     1      17.904  -5.286  -2.266  0.00  0.00    +0.000 A 
ATOM      3  C   UNL     1      16.903  -5.667  -3.163  0.00  0.00    +0.000 A 
ATOM      4  C   UNL     1      15.662  -5.247  -2.606  0.00  0.00    +0.000 A 
ATOM      5  C   UNL     1      19.260  -5.542  -2.497  0.00  0.00    +0.000 A 
ATOM      6  C   UNL     1      17.271  -6.336  -4.347  0.00  0.00    +0.000 A 
ATOM      7  C   UNL     1      15.930  -4.631  -1.405  0.00  0.00    +0.000 A 
ATOM      8  C   UNL     1      19.602  -6.207  -3.677  0.00  0.00    +0.000 A 
ATOM      9  C   UNL     1      18.624  -6.599  -4.590  0.00  0.00    +0.000 A 
ATOM     10  H   UNL     1      17.762  -4.276  -0.404  0.00  0.00    +0.000 HD
ATOM     11  H   UNL     1      14.680  -5.380  -3.035  0.00  0.00    +0.000 HD
ATOM     12  H   UNL     1      20.023  -5.238  -1.788  0.00  0.00    +0.000 HD
ATOM     13  H   UNL     1      16.519  -6.647  -5.066  0.00  0.00    +0.000 HD
ATOM     14  H   UNL     1      15.278  -4.175  -0.673  0.00  0.00    +0.000 HD
ATOM     15  H   UNL     1      20.647  -6.422  -3.886  0.00  0.00    +0.000 HD
ATOM     16  H   UNL     1      18.914  -7.115  -5.501  0.00  0.00    +0.000 HD
ENDROOT
TORSDOF 0
ENDMDL
MODEL 4
REMARK VINA RESULT:    -4.753     28.470     30.025
REMARK INTER + INTRA:          -4.753
REMARK INTER:                  -4.753
REMARK INTRA:                   0.000
REMARK UNBOUND:                 0.000
REMARK  Name = 798
REMARK  0 active torsions:
REMARK  status: ('A' for Active; 'I' for Inactive)
REMARK                            x       y       z     vdW  Elec       q    Type
REMARK                         _______ _______ _______ _____ _____    ______ ____
ROOT
ATOM      1  N   UNL     1      -4.611   5.026  28.629  0.00  0.00    +0.000 N 
ATOM      2  C   UNL     1      -4.514   4.829  27.270  0.00  0.00    +0.000 A 
ATOM      3  C   UNL     1      -5.801   4.959  26.743  0.00  0.00    +0.000 A 
ATOM      4  C   UNL     1      -6.672   5.241  27.833  0.00  0.00    +0.000 A 
ATOM      5  C   UNL     1      -3.398   4.549  26.475  0.00  0.00    +0.000 A 
ATOM      6  C   UNL     1      -5.985   4.803  25.355  0.00  0.00    +0.000 A 
ATOM      7  C   UNL     1      -5.911   5.275  28.979  0.00  0.00    +0.000 A 
ATOM      8  C   UNL     1      -3.604   4.398  25.101  0.00  0.00    +0.000 A 
ATOM      9  C   UNL     1      -4.877   4.522  24.547  0.00  0.00    +0.000 A 
ATOM     10  H   UNL     1      -3.834   4.991  29.275  0.00  0.00    +0.000 HD
ATOM     11  H   UNL     1      -7.740   5.401  27.786  0.00  0.00    +0.000 HD
ATOM     12  H   UNL     1      -2.406   4.452  26.904  0.00  0.00    +0.000 HD
ATOM     13  H   UNL     1      -6.972   4.897  24.911  0.00  0.00    +0.000 HD
ATOM     14  H   UNL     1      -6.178   5.455  30.011  0.00  0.00    +0.000 HD
ATOM     15  H   UNL     1      -2.758   4.179  24.454  0.00  0.00    +0.000 HD
ATOM     16  H   UNL     1      -5.013   4.400  23.476  0.00  0.00    +0.000 HD
ENDROOT
TORSDOF 0
ENDMDL
MODEL 5
REMARK VINA RESULT:    -4.551     31.745     32.212
REMARK INTER + INTRA:          -4.551
REMARK INTER:                  -4.551
REMARK INTRA:                   0.000
REMARK UNBOUND:                 0.000
REMARK  Name = 798
REMARK  0 active torsions:
REMARK  status: ('A' for Active; 'I' for Inactive)
REMARK                            x       y       z     vdW  Elec       q    Type
REMARK                         _______ _______ _______ _____ _____    ______ ____
ROOT
ATOM      1  N   UNL     1       1.279   1.337 -22.632  0.00  0.00    +0.000 N 
ATOM      2  C   UNL     1       1.665   2.378 -21.819  0.00  0.00    +0.000 A 
ATOM      3  C   UNL     1       0.505   2.910 -21.251  0.00  0.00    +0.000 A 
ATOM      4  C   UNL     1      -0.590   2.151 -21.753  0.00  0.00    +0.000 A 
ATOM      5  C   UNL     1       2.940   2.885 -21.544  0.00  0.00    +0.000 A 
ATOM      6  C   UNL     1       0.621   4.000 -20.367  0.00  0.00    +0.000 A 
ATOM      7  C   UNL     1      -0.082   1.192 -22.599  0.00  0.00    +0.000 A 
ATOM      8  C   UNL     1       3.030   3.967 -20.664  0.00  0.00    +0.000 A 
ATOM      9  C   UNL     1       1.889   4.518 -20.083  0.00  0.00    +0.000 A 
ATOM     10  H   UNL     1       1.909   0.763 -23.175  0.00  0.00    +0.000 HD
ATOM     11  H   UNL     1      -1.636   2.291 -21.521  0.00  0.00    +0.000 HD
ATOM     12  H   UNL     1       3.829   2.458 -21.995  0.00  0.00    +0.000 HD
ATOM     13  H   UNL     1      -0.260   4.438 -19.907  0.00  0.00    +0.000 HD
ATOM     14  H   UNL     1      -0.568   0.421 -23.180  0.00  0.00    +0.000 HD
ATOM     15  H   UNL     1       4.006   4.385 -20.429  0.00  0.00    +0.000 HD
ATOM     16  H   UNL     1       1.985   5.358 -19.401  0.00  0.00    +0.000 HD
ENDROOT
TORSDOF 0
ENDMDL
MODEL 6
REMARK VINA RESULT:    -4.454     31.421     32.693
REMARK INTER + INTRA:          -4.454
REMARK INTER:                  -4.454
REMARK INTRA:                   0.000
REMARK UNBOUND:                 0.000
REMARK  Name = 798
REMARK  0 active torsions:
REMARK  status: ('A' for Active; 'I' for Inactive)
REMARK                            x       y       z     vdW  Elec       q    Type
REMARK                         _______ _______ _______ _____ _____    ______ ____
ROOT
ATOM      1  N   UNL     1       0.522   6.456 -21.362  0.00  0.00    +0.000 N 
ATOM      2  C   UNL     1       0.101   5.150 -21.466  0.00  0.00    +0.000 A 
ATOM      3  C   UNL     1       0.431   4.514 -20.266  0.00  0.00    +0.000 A 
ATOM      4  C   UNL     1       1.064   5.485 -19.441  0.00  0.00    +0.000 A 
ATOM      5  C   UNL     1      -0.540   4.487 -22.519  0.00  0.00    +0.000 A 
ATOM      6  C   UNL     1       0.107   3.153 -20.108  0.00  0.00    +0.000 A 
ATOM      7  C   UNL     1       1.105   6.669 -20.142  0.00  0.00    +0.000 A 
ATOM      8  C   UNL     1      -0.852   3.137 -22.339  0.00  0.00    +0.000 A 
ATOM      9  C   UNL     1      -0.535   2.477 -21.153  0.00  0.00    +0.000 A 
ATOM     10  H   UNL     1       0.416   7.156 -22.083  0.00  0.00    +0.000 HD
ATOM     11  H   UNL     1       1.449   5.336 -18.442  0.00  0.00    +0.000 HD
ATOM     12  H   UNL     1      -0.788   4.999 -23.443  0.00  0.00    +0.000 HD
ATOM     13  H   UNL     1       0.348   2.627 -19.189  0.00  0.00    +0.000 HD
ATOM     14  H   UNL     1       1.497   7.642 -19.882  0.00  0.00    +0.000 HD
ATOM     15  H   UNL     1      -1.350   2.593 -23.138  0.00  0.00    +0.000 HD
ATOM     16  H   UNL     1      -0.788   1.427 -21.037  0.00  0.00    +0.000 HD
ENDROOT
TORSDOF 0
ENDMDL
MODEL 7
REMARK VINA RESULT:    -4.389      0.925      2.037
REMARK INTER + INTRA:          -4.389
REMARK INTER:                  -4.389
REMARK INTRA:                   0.000
REMARK UNBOUND:                 0.000
REMARK  Name = 798
REMARK  0 active torsions:
REMARK  status: ('A' for Active; 'I' for Inactive)
REMARK                            x       y       z     vdW  Elec       q    Type
REMARK                         _______ _______ _______ _____ _____    ______ ____
ROOT
ATOM      1  N   UNL     1      -7.305 -14.682   2.612  0.00  0.00    +0.000 N 
ATOM      2  C   UNL     1      -7.557 -14.380   3.931  0.00  0.00    +0.000 A 
ATOM      3  C   UNL     1      -7.796 -15.587   4.592  0.00  0.00    +0.000 A 
ATOM      4  C   UNL     1      -7.678 -16.623   3.623  0.00  0.00    +0.000 A 
ATOM      5  C   UNL     1      -7.593 -13.143   4.584  0.00  0.00    +0.000 A 
ATOM      6  C   UNL     1      -8.083 -15.560   5.971  0.00  0.00    +0.000 A 
ATOM      7  C   UNL     1      -7.376 -16.035   2.416  0.00  0.00    +0.000 A 
ATOM      8  C   UNL     1      -7.880 -13.141   5.952  0.00  0.00    +0.000 A 
ATOM      9  C   UNL     1      -8.122 -14.330   6.637  0.00  0.00    +0.000 A 
ATOM     10  H   UNL     1      -7.098 -14.003   1.893  0.00  0.00    +0.000 HD
ATOM     11  H   UNL     1      -7.800 -17.684   3.789  0.00  0.00    +0.000 HD
ATOM     12  H   UNL     1      -7.404 -12.216   4.053  0.00  0.00    +0.000 HD
ATOM     13  H   UNL     1      -8.274 -16.480   6.516  0.00  0.00    +0.000 HD
ATOM     14  H   UNL     1      -7.205 -16.459   1.437  0.00  0.00    +0.000 HD
ATOM     15  H   UNL     1      -7.914 -12.196   6.489  0.00  0.00    +0.000 HD
ATOM     16  H   UNL     1      -8.343 -14.303   7.700  0.00  0.00    +0.000 HD
ENDROOT
TORSDOF 0
ENDMDL
MODEL 8
REMARK VINA RESULT:    -4.317      6.843      8.023
REMARK INTER + INTRA:          -4.317
REMARK INTER:                  -4.317
REMARK INTRA:                   0.000
REMARK UNBOUND:                 0.000
REMARK  Name = 798
REMARK  0 active torsions:
REMARK  status: ('A' for Active; 'I' for Inactive)
REMARK                            x       y       z     vdW  Elec       q    Type
REMARK                         _______ _______ _______ _____ _____    ______ ____
ROOT
ATOM      1  N   UNL     1      -0.116 -18.402   1.026  0.00  0.00    +0.000 N 
ATOM      2  C   UNL     1      -0.786 -17.200   1.001  0.00  0.00    +0.000 A 
ATOM      3  C   UNL     1      -0.596 -16.597   2.247  0.00  0.00    +0.000 A 
ATOM      4  C   UNL     1       0.211 -17.480   3.018  0.00  0.00    +0.000 A 
ATOM      5  C   UNL     1      -1.538 -16.605  -0.018  0.00  0.00    +0.000 A 
ATOM      6  C   UNL     1      -1.184 -15.340   2.489  0.00  0.00    +0.000 A 
ATOM      7  C   UNL     1       0.489 -18.580   2.240  0.00  0.00    +0.000 A 
ATOM      8  C   UNL     1      -2.112 -15.358   0.245  0.00  0.00    +0.000 A 
ATOM      9  C   UNL     1      -1.939 -14.733   1.479  0.00  0.00    +0.000 A 
ATOM     10  H   UNL     1      -0.077 -19.058   0.257  0.00  0.00    +0.000 HD
ATOM     11  H   UNL     1       0.552 -17.328   4.032  0.00  0.00    +0.000 HD
ATOM     12  H   UNL     1      -1.674 -17.089  -0.979  0.00  0.00    +0.000 HD
ATOM     13  H   UNL     1      -1.056 -14.842   3.446  0.00  0.00    +0.000 HD
ATOM     14  H   UNL     1       1.064 -19.473   2.443  0.00  0.00    +0.000 HD
ATOM     15  H   UNL     1      -2.702 -14.868  -0.526  0.00  0.00    +0.000 HD
ATOM     16  H   UNL     1      -2.395 -13.763   1.660  0.00  0.00    +0.000 HD
ENDROOT
TORSDOF 0
ENDMDL
MODEL 9
REMARK VINA RESULT:    -4.221     40.621     41.759
REMARK INTER + INTRA:          -4.221
REMARK INTER:                  -4.221
REMARK INTRA:                   0.000
REMARK UNBOUND:                 0.000
REMARK  Name = 798
REMARK  0 active torsions:
REMARK  status: ('A' for Active; 'I' for Inactive)
REMARK                            x       y       z     vdW  Elec       q    Type
REMARK                         _______ _______ _______ _____ _____    ______ ____
ROOT
ATOM      1  N   UNL     1      10.883  18.701 -11.779  0.00  0.00    +0.000 N 
ATOM      2  C   UNL     1      12.110  18.104 -11.596  0.00  0.00    +0.000 A 
ATOM      3  C   UNL     1      12.978  19.088 -11.115  0.00  0.00    +0.000 A 
ATOM      4  C   UNL     1      12.228  20.293 -11.016  0.00  0.00    +0.000 A 
ATOM      5  C   UNL     1      12.515  16.783 -11.817  0.00  0.00    +0.000 A 
ATOM      6  C   UNL     1      14.314  18.737 -10.840  0.00  0.00    +0.000 A 
ATOM      7  C   UNL     1      10.944  20.023 -11.432  0.00  0.00    +0.000 A 
ATOM      8  C   UNL     1      13.845  16.459 -11.537  0.00  0.00    +0.000 A 
ATOM      9  C   UNL     1      14.733  17.420 -11.056  0.00  0.00    +0.000 A 
ATOM     10  H   UNL     1      10.057  18.229 -12.121  0.00  0.00    +0.000 HD
ATOM     11  H   UNL     1      12.587  21.255 -10.678  0.00  0.00    +0.000 HD
ATOM     12  H   UNL     1      11.826  16.034 -12.191  0.00  0.00    +0.000 HD
ATOM     13  H   UNL     1      15.016  19.476 -10.465  0.00  0.00    +0.000 HD
ATOM     14  H   UNL     1      10.070  20.654 -11.511  0.00  0.00    +0.000 HD
ATOM     15  H   UNL     1      14.192  15.441 -11.698  0.00  0.00    +0.000 HD
ATOM     16  H   UNL     1      15.763  17.144 -10.846  0.00  0.00    +0.000 HD
ENDROOT
TORSDOF 0
ENDMDL
MODEL 10
REMARK VINA RESULT:    -4.220      1.560      3.659
REMARK INTER + INTRA:          -4.220
REMARK INTER:                  -4.220
REMARK INTRA:                   0.000
REMARK UNBOUND:                 0.000
REMARK  Name = 798
REMARK  0 active torsions:
REMARK  status: ('A' for Active; 'I' for Inactive)
REMARK                            x       y       z     vdW  Elec       q    Type
REMARK                         _______ _______ _______ _____ _____    ______ ____
ROOT
ATOM      1  N   UNL     1      -7.939 -13.813   6.387  0.00  0.00    +0.000 N 
ATOM      2  C   UNL     1      -7.709 -14.008   5.044  0.00  0.00    +0.000 A 
ATOM      3  C   UNL     1      -7.800 -15.381   4.805  0.00  0.00    +0.000 A 
ATOM      4  C   UNL     1      -8.093 -16.002   6.052  0.00  0.00    +0.000 A 
ATOM      5  C   UNL     1      -7.429 -13.083   4.031  0.00  0.00    +0.000 A 
ATOM      6  C   UNL     1      -7.603 -15.856   3.494  0.00  0.00    +0.000 A 
ATOM      7  C   UNL     1      -8.172 -15.012   7.004  0.00  0.00    +0.000 A 
ATOM      8  C   UNL     1      -7.238 -13.578   2.738  0.00  0.00    +0.000 A 
ATOM      9  C   UNL     1      -7.323 -14.943   2.471  0.00  0.00    +0.000 A 
ATOM     10  H   UNL     1      -7.936 -12.914   6.849  0.00  0.00    +0.000 HD
ATOM     11  H   UNL     1      -8.230 -17.058   6.234  0.00  0.00    +0.000 HD
ATOM     12  H   UNL     1      -7.363 -12.020   4.237  0.00  0.00    +0.000 HD
ATOM     13  H   UNL     1      -7.666 -16.918   3.272  0.00  0.00    +0.000 HD
ATOM     14  H   UNL     1      -8.373 -15.055   8.066  0.00  0.00    +0.000 HD
ATOM     15  H   UNL     1      -7.019 -12.886   1.928  0.00  0.00    +0.000 HD
ATOM     16  H   UNL     1      -7.170 -15.304   1.458  0.00  0.00    +0.000 HD
ENDROOT
TORSDOF 0
ENDMDL
