MODEL 1
REMARK VINA RESULT:    -3.845      0.000      0.000
REMARK INTER + INTRA:          -5.396
REMARK INTER:                  -4.943
REMARK INTRA:                  -0.454
REMARK UNBOUND:                -0.315
REMARK  Name = 31276
REMARK  7 active torsions:
REMARK  status: ('A' for Active; 'I' for Inactive)
REMARK    1  A    between atoms: O_1  and  C_5
REMARK    2  A    between atoms: O_1  and  C_8
REMARK    3  A    between atoms: C_3  and  C_4
REMARK    4  A    between atoms: C_3  and  C_6
REMARK    5  A    between atoms: C_3  and  C_7
REMARK    6  A    between atoms: C_4  and  C_5
REMARK    7  A    between atoms: C_8  and  C_9
REMARK                            x       y       z     vdW  Elec       q    Type
REMARK                         _______ _______ _______ _____ _____    ______ ____
ROOT
ATOM      1  C   UNL     1      16.341  -4.734  -1.445  0.00  0.00    +0.000 C 
ATOM      2  H   UNL     1      17.222  -4.667  -0.794  0.00  0.00    +0.000 HD
ATOM      3  H   UNL     1      15.739  -3.847  -1.207  0.00  0.00    +0.000 HD
ENDROOT
BRANCH   1   4
ATOM      4  C   UNL     1      16.786  -4.653  -2.900  0.00  0.00    +0.000 C 
ATOM      5  H   UNL     1      16.335  -5.458  -3.489  0.00  0.00    +0.000 HD
ATOM      6  H   UNL     1      16.514  -3.687  -3.339  0.00  0.00    +0.000 HD
BRANCH   4   7
ATOM      7  O   UNL     1      18.201  -4.785  -2.953  0.00  0.00    +0.000 OA
BRANCH   7   9
ATOM      8  O   UNL     1      19.433  -6.693  -2.535  0.00  0.00    +0.000 OA
ATOM      9  C   UNL     1      18.672  -6.037  -3.233  0.00  0.00    +0.000 C 
BRANCH   9  10
ATOM     10  C   UNL     1      18.116  -6.510  -4.542  0.00  0.00    +0.000 C 
ATOM     11  H   UNL     1      17.204  -5.957  -4.779  0.00  0.00    +0.000 HD
ATOM     12  H   UNL     1      17.913  -7.584  -4.491  0.00  0.00    +0.000 HD
ATOM     13  H   UNL     1      18.848  -6.331  -5.334  0.00  0.00    +0.000 HD
ENDBRANCH   9  10
ENDBRANCH   7   9
ENDBRANCH   4   7
ENDBRANCH   1   4
BRANCH   1  14
ATOM     14  C   UNL     1      15.545  -6.006  -1.110  0.00  0.00    +0.000 C 
ATOM     15  H   UNL     1      14.679  -5.710  -0.505  0.00  0.00    +0.000 HD
BRANCH  14  16
ATOM     16  C   UNL     1      15.041  -6.658  -2.399  0.00  0.00    +0.000 C 
ATOM     17  H   UNL     1      15.885  -7.061  -2.969  0.00  0.00    +0.000 HD
ATOM     18  H   UNL     1      14.521  -5.950  -3.052  0.00  0.00    +0.000 HD
ATOM     19  H   UNL     1      14.364  -7.492  -2.181  0.00  0.00    +0.000 HD
ENDBRANCH  14  16
BRANCH  14  20
ATOM     20  C   UNL     1      16.369  -7.015  -0.309  0.00  0.00    +0.000 C 
ATOM     21  H   UNL     1      16.327  -8.021  -0.739  0.00  0.00    +0.000 HD
ATOM     22  H   UNL     1      15.996  -7.081   0.718  0.00  0.00    +0.000 HD
ATOM     23  H   UNL     1      17.419  -6.707  -0.262  0.00  0.00    +0.000 HD
ENDBRANCH  14  20
ENDBRANCH   1  14
TORSDOF 7
ENDMDL
MODEL 2
REMARK VINA RESULT:    -3.629     36.808     38.166
REMARK INTER + INTRA:          -5.110
REMARK INTER:                  -4.826
REMARK INTRA:                  -0.284
REMARK UNBOUND:                -0.315
REMARK  Name = 31276
REMARK  7 active torsions:
REMARK  status: ('A' for Active; 'I' for Inactive)
REMARK    1  A    between atoms: O_1  and  C_5
REMARK    2  A    between atoms: O_1  and  C_8
REMARK    3  A    between atoms: C_3  and  C_4
REMARK    4  A    between atoms: C_3  and  C_6
REMARK    5  A    between atoms: C_3  and  C_7
REMARK    6  A    between atoms: C_4  and  C_5
REMARK    7  A    between atoms: C_8  and  C_9
REMARK                            x       y       z     vdW  Elec       q    Type
REMARK                         _______ _______ _______ _____ _____    ______ ____
ROOT
ATOM      1  C   UNL     1      -3.711   3.936  26.435  0.00  0.00    +0.000 C 
ATOM      2  H   UNL     1      -2.744   3.455  26.633  0.00  0.00    +0.000 HD
ATOM      3  H   UNL     1      -4.467   3.187  26.704  0.00  0.00    +0.000 HD
ENDROOT
BRANCH   1   4
ATOM      4  C   UNL     1      -3.865   5.146  27.348  0.00  0.00    +0.000 C 
ATOM      5  H   UNL     1      -2.888   5.564  27.607  0.00  0.00    +0.000 HD
ATOM      6  H   UNL     1      -4.477   5.920  26.872  0.00  0.00    +0.000 HD
BRANCH   4   7
ATOM      7  O   UNL     1      -4.517   4.735  28.543  0.00  0.00    +0.000 OA
BRANCH   7   9
ATOM      8  O   UNL     1      -6.253   3.213  28.626  0.00  0.00    +0.000 OA
ATOM      9  C   UNL     1      -5.817   4.334  28.404  0.00  0.00    +0.000 C 
BRANCH   9  10
ATOM     10  C   UNL     1      -6.658   5.482  27.933  0.00  0.00    +0.000 C 
ATOM     11  H   UNL     1      -7.373   5.134  27.184  0.00  0.00    +0.000 HD
ATOM     12  H   UNL     1      -6.016   6.265  27.519  0.00  0.00    +0.000 HD
ATOM     13  H   UNL     1      -7.212   5.898  28.779  0.00  0.00    +0.000 HD
ENDBRANCH   9  10
ENDBRANCH   7   9
ENDBRANCH   4   7
ENDBRANCH   1   4
BRANCH   1  14
ATOM     14  C   UNL     1      -3.824   4.272  24.938  0.00  0.00    +0.000 C 
ATOM     15  H   UNL     1      -3.562   3.370  24.371  0.00  0.00    +0.000 HD
BRANCH  14  16
ATOM     16  C   UNL     1      -5.265   4.660  24.600  0.00  0.00    +0.000 C 
ATOM     17  H   UNL     1      -5.296   5.685  24.214  0.00  0.00    +0.000 HD
ATOM     18  H   UNL     1      -5.924   4.626  25.473  0.00  0.00    +0.000 HD
ATOM     19  H   UNL     1      -5.679   4.005  23.826  0.00  0.00    +0.000 HD
ENDBRANCH  14  16
BRANCH  14  20
ATOM     20  C   UNL     1      -2.876   5.396  24.521  0.00  0.00    +0.000 C 
ATOM     21  H   UNL     1      -2.719   5.427  23.438  0.00  0.00    +0.000 HD
ATOM     22  H   UNL     1      -1.896   5.261  24.991  0.00  0.00    +0.000 HD
ATOM     23  H   UNL     1      -3.264   6.370  24.838  0.00  0.00    +0.000 HD
ENDBRANCH  14  20
ENDBRANCH   1  14
TORSDOF 7
ENDMDL
MODEL 3
REMARK VINA RESULT:    -3.583      1.829      3.816
REMARK INTER + INTRA:          -5.051
REMARK INTER:                  -4.722
REMARK INTRA:                  -0.329
REMARK UNBOUND:                -0.315
REMARK  Name = 31276
REMARK  7 active torsions:
REMARK  status: ('A' for Active; 'I' for Inactive)
REMARK    1  A    between atoms: O_1  and  C_5
REMARK    2  A    between atoms: O_1  and  C_8
REMARK    3  A    between atoms: C_3  and  C_4
REMARK    4  A    between atoms: C_3  and  C_6
REMARK    5  A    between atoms: C_3  and  C_7
REMARK    6  A    between atoms: C_4  and  C_5
REMARK    7  A    between atoms: C_8  and  C_9
REMARK                            x       y       z     vdW  Elec       q    Type
REMARK                         _______ _______ _______ _____ _____    ______ ____
ROOT
ATOM      1  C   UNL     1      17.774  -5.526  -3.946  0.00  0.00    +0.000 C 
ATOM      2  H   UNL     1      16.960  -6.178  -4.286  0.00  0.00    +0.000 HD
ATOM      3  H   UNL     1      17.971  -4.848  -4.787  0.00  0.00    +0.000 HD
ENDROOT
BRANCH   1   4
ATOM      4  C   UNL     1      17.297  -4.709  -2.752  0.00  0.00    +0.000 C 
ATOM      5  H   UNL     1      17.753  -5.072  -1.826  0.00  0.00    +0.000 HD
ATOM      6  H   UNL     1      17.538  -3.648  -2.882  0.00  0.00    +0.000 HD
BRANCH   4   7
ATOM      7  O   UNL     1      15.885  -4.835  -2.647  0.00  0.00    +0.000 OA
BRANCH   7   9
ATOM      8  O   UNL     1      14.790  -6.867  -2.738  0.00  0.00    +0.000 OA
ATOM      9  C   UNL     1      15.430  -6.017  -2.134  0.00  0.00    +0.000 C 
BRANCH   9  10
ATOM     10  C   UNL     1      15.832  -6.137  -0.694  0.00  0.00    +0.000 C 
ATOM     11  H   UNL     1      16.704  -6.790  -0.606  0.00  0.00    +0.000 HD
ATOM     12  H   UNL     1      14.996  -6.531  -0.109  0.00  0.00    +0.000 HD
ATOM     13  H   UNL     1      16.094  -5.150  -0.306  0.00  0.00    +0.000 HD
ENDBRANCH   9  10
ENDBRANCH   7   9
ENDBRANCH   4   7
ENDBRANCH   1   4
BRANCH   1  14
ATOM     14  C   UNL     1      19.027  -6.370  -3.658  0.00  0.00    +0.000 C 
ATOM     15  H   UNL     1      18.852  -7.377  -4.056  0.00  0.00    +0.000 HD
BRANCH  14  16
ATOM     16  C   UNL     1      20.237  -5.765  -4.373  0.00  0.00    +0.000 C 
ATOM     17  H   UNL     1      21.161  -6.210  -3.987  0.00  0.00    +0.000 HD
ATOM     18  H   UNL     1      20.315  -4.684  -4.225  0.00  0.00    +0.000 HD
ATOM     19  H   UNL     1      20.201  -5.968  -5.449  0.00  0.00    +0.000 HD
ENDBRANCH  14  16
BRANCH  14  20
ATOM     20  C   UNL     1      19.318  -6.487  -2.161  0.00  0.00    +0.000 C 
ATOM     21  H   UNL     1      20.390  -6.446  -1.942  0.00  0.00    +0.000 HD
ATOM     22  H   UNL     1      18.940  -7.439  -1.774  0.00  0.00    +0.000 HD
ATOM     23  H   UNL     1      18.824  -5.683  -1.606  0.00  0.00    +0.000 HD
ENDBRANCH  14  20
ENDBRANCH   1  14
TORSDOF 7
ENDMDL
MODEL 4
REMARK VINA RESULT:    -3.528     26.053     26.967
REMARK INTER + INTRA:          -4.978
REMARK INTER:                  -4.539
REMARK INTRA:                  -0.439
REMARK UNBOUND:                -0.315
REMARK  Name = 31276
REMARK  7 active torsions:
REMARK  status: ('A' for Active; 'I' for Inactive)
REMARK    1  A    between atoms: O_1  and  C_5
REMARK    2  A    between atoms: O_1  and  C_8
REMARK    3  A    between atoms: C_3  and  C_4
REMARK    4  A    between atoms: C_3  and  C_6
REMARK    5  A    between atoms: C_3  and  C_7
REMARK    6  A    between atoms: C_4  and  C_5
REMARK    7  A    between atoms: C_8  and  C_9
REMARK                            x       y       z     vdW  Elec       q    Type
REMARK                         _______ _______ _______ _____ _____    ______ ____
ROOT
ATOM      1  C   UNL     1       0.800   4.169 -19.999  0.00  0.00    +0.000 C 
ATOM      2  H   UNL     1       0.417   5.007 -20.595  0.00  0.00    +0.000 HD
ATOM      3  H   UNL     1       0.808   4.530 -18.963  0.00  0.00    +0.000 HD
ENDROOT
BRANCH   1   4
ATOM      4  C   UNL     1      -0.165   2.995 -20.107  0.00  0.00    +0.000 C 
ATOM      5  H   UNL     1       0.379   2.056 -20.247  0.00  0.00    +0.000 HD
ATOM      6  H   UNL     1      -0.791   2.920 -19.211  0.00  0.00    +0.000 HD
BRANCH   4   7
ATOM      7  O   UNL     1      -1.014   3.204 -21.228  0.00  0.00    +0.000 OA
BRANCH   7   9
ATOM      8  O   UNL     1      -0.392   1.278 -22.342  0.00  0.00    +0.000 OA
ATOM      9  C   UNL     1      -0.733   2.453 -22.335  0.00  0.00    +0.000 C 
BRANCH   9  10
ATOM     10  C   UNL     1      -0.902   3.284 -23.571  0.00  0.00    +0.000 C 
ATOM     11  H   UNL     1      -1.848   3.829 -23.524  0.00  0.00    +0.000 HD
ATOM     12  H   UNL     1      -0.872   2.641 -24.456  0.00  0.00    +0.000 HD
ATOM     13  H   UNL     1      -0.085   4.007 -23.639  0.00  0.00    +0.000 HD
ENDBRANCH   9  10
ENDBRANCH   7   9
ENDBRANCH   4   7
ENDBRANCH   1   4
BRANCH   1  14
ATOM     14  C   UNL     1       2.235   3.833 -20.441  0.00  0.00    +0.000 C 
ATOM     15  H   UNL     1       2.924   4.397 -19.800  0.00  0.00    +0.000 HD
BRANCH  14  16
ATOM     16  C   UNL     1       2.502   2.339 -20.249  0.00  0.00    +0.000 C 
ATOM     17  H   UNL     1       1.961   1.762 -21.007  0.00  0.00    +0.000 HD
ATOM     18  H   UNL     1       2.169   1.975 -19.272  0.00  0.00    +0.000 HD
ATOM     19  H   UNL     1       3.567   2.111 -20.361  0.00  0.00    +0.000 HD
ENDBRANCH  14  16
BRANCH  14  20
ATOM     20  C   UNL     1       2.502   4.223 -21.895  0.00  0.00    +0.000 C 
ATOM     21  H   UNL     1       3.426   4.798 -22.007  0.00  0.00    +0.000 HD
ATOM     22  H   UNL     1       1.683   4.838 -22.280  0.00  0.00    +0.000 HD
ATOM     23  H   UNL     1       2.574   3.332 -22.529  0.00  0.00    +0.000 HD
ENDBRANCH  14  20
ENDBRANCH   1  14
TORSDOF 7
ENDMDL
MODEL 5
REMARK VINA RESULT:    -3.510      2.210      3.588
REMARK INTER + INTRA:          -4.954
REMARK INTER:                  -4.716
REMARK INTRA:                  -0.238
REMARK UNBOUND:                -0.315
REMARK  Name = 31276
REMARK  7 active torsions:
REMARK  status: ('A' for Active; 'I' for Inactive)
REMARK    1  A    between atoms: O_1  and  C_5
REMARK    2  A    between atoms: O_1  and  C_8
REMARK    3  A    between atoms: C_3  and  C_4
REMARK    4  A    between atoms: C_3  and  C_6
REMARK    5  A    between atoms: C_3  and  C_7
REMARK    6  A    between atoms: C_4  and  C_5
REMARK    7  A    between atoms: C_8  and  C_9
REMARK                            x       y       z     vdW  Elec       q    Type
REMARK                         _______ _______ _______ _____ _____    ______ ____
ROOT
ATOM      1  C   UNL     1      16.949  -5.582  -3.293  0.00  0.00    +0.000 C 
ATOM      2  H   UNL     1      16.504  -6.173  -2.483  0.00  0.00    +0.000 HD
ATOM      3  H   UNL     1      16.129  -5.396  -3.999  0.00  0.00    +0.000 HD
ENDROOT
BRANCH   1   4
ATOM      4  C   UNL     1      17.433  -4.250  -2.734  0.00  0.00    +0.000 C 
ATOM      5  H   UNL     1      18.518  -4.157  -2.838  0.00  0.00    +0.000 HD
ATOM      6  H   UNL     1      16.947  -3.411  -3.245  0.00  0.00    +0.000 HD
BRANCH   4   7
ATOM      7  O   UNL     1      17.098  -4.186  -1.354  0.00  0.00    +0.000 OA
BRANCH   7   9
ATOM      8  O   UNL     1      18.421  -5.158   0.271  0.00  0.00    +0.000 OA
ATOM      9  C   UNL     1      18.151  -4.233  -0.483  0.00  0.00    +0.000 C 
BRANCH   9  10
ATOM     10  C   UNL     1      18.950  -2.969  -0.580  0.00  0.00    +0.000 C 
ATOM     11  H   UNL     1      18.782  -2.498  -1.551  0.00  0.00    +0.000 HD
ATOM     12  H   UNL     1      20.012  -3.191  -0.438  0.00  0.00    +0.000 HD
ATOM     13  H   UNL     1      18.632  -2.276   0.204  0.00  0.00    +0.000 HD
ENDBRANCH   9  10
ENDBRANCH   7   9
ENDBRANCH   4   7
ENDBRANCH   1   4
BRANCH   1  14
ATOM     14  C   UNL     1      18.052  -6.400  -3.985  0.00  0.00    +0.000 C 
ATOM     15  H   UNL     1      18.222  -7.306  -3.390  0.00  0.00    +0.000 HD
BRANCH  14  16
ATOM     16  C   UNL     1      17.593  -6.814  -5.385  0.00  0.00    +0.000 C 
ATOM     17  H   UNL     1      16.886  -6.077  -5.780  0.00  0.00    +0.000 HD
ATOM     18  H   UNL     1      17.083  -7.782  -5.390  0.00  0.00    +0.000 HD
ATOM     19  H   UNL     1      18.439  -6.863  -6.079  0.00  0.00    +0.000 HD
ENDBRANCH  14  16
BRANCH  14  20
ATOM     20  C   UNL     1      19.372  -5.634  -4.081  0.00  0.00    +0.000 C 
ATOM     21  H   UNL     1      19.738  -5.312  -3.100  0.00  0.00    +0.000 HD
ATOM     22  H   UNL     1      19.246  -4.735  -4.695  0.00  0.00    +0.000 HD
ATOM     23  H   UNL     1      20.146  -6.250  -4.550  0.00  0.00    +0.000 HD
ENDBRANCH  14  20
ENDBRANCH   1  14
TORSDOF 7
ENDMDL
MODEL 6
REMARK VINA RESULT:    -3.497     26.341     27.273
REMARK INTER + INTRA:          -4.936
REMARK INTER:                  -4.674
REMARK INTRA:                  -0.262
REMARK UNBOUND:                -0.315
REMARK  Name = 31276
REMARK  7 active torsions:
REMARK  status: ('A' for Active; 'I' for Inactive)
REMARK    1  A    between atoms: O_1  and  C_5
REMARK    2  A    between atoms: O_1  and  C_8
REMARK    3  A    between atoms: C_3  and  C_4
REMARK    4  A    between atoms: C_3  and  C_6
REMARK    5  A    between atoms: C_3  and  C_7
REMARK    6  A    between atoms: C_4  and  C_5
REMARK    7  A    between atoms: C_8  and  C_9
REMARK                            x       y       z     vdW  Elec       q    Type
REMARK                         _______ _______ _______ _____ _____    ______ ____
ROOT
ATOM      1  C   UNL     1       0.455   3.721 -19.459  0.00  0.00    +0.000 C 
ATOM      2  H   UNL     1      -0.066   4.005 -18.536  0.00  0.00    +0.000 HD
ATOM      3  H   UNL     1       1.261   3.048 -19.140  0.00  0.00    +0.000 HD
ENDROOT
BRANCH   1   4
ATOM      4  C   UNL     1      -0.504   2.954 -20.361  0.00  0.00    +0.000 C 
ATOM      5  H   UNL     1      -0.118   1.952 -20.575  0.00  0.00    +0.000 HD
ATOM      6  H   UNL     1      -1.493   2.870 -19.898  0.00  0.00    +0.000 HD
BRANCH   4   7
ATOM      7  O   UNL     1      -0.643   3.662 -21.586  0.00  0.00    +0.000 OA
BRANCH   7   9
ATOM      8  O   UNL     1      -1.120   3.268 -23.811  0.00  0.00    +0.000 OA
ATOM      9  C   UNL     1      -0.743   2.891 -22.710  0.00  0.00    +0.000 C 
BRANCH   9  10
ATOM     10  C   UNL     1      -0.317   1.486 -22.406  0.00  0.00    +0.000 C 
ATOM     11  H   UNL     1      -1.016   0.781 -22.862  0.00  0.00    +0.000 HD
ATOM     12  H   UNL     1      -0.272   1.340 -21.323  0.00  0.00    +0.000 HD
ATOM     13  H   UNL     1       0.678   1.310 -22.823  0.00  0.00    +0.000 HD
ENDBRANCH   9  10
ENDBRANCH   7   9
ENDBRANCH   4   7
ENDBRANCH   1   4
BRANCH   1  14
ATOM     14  C   UNL     1       1.058   4.973 -20.119  0.00  0.00    +0.000 C 
ATOM     15  H   UNL     1       0.558   5.116 -21.085  0.00  0.00    +0.000 HD
BRANCH  14  16
ATOM     16  C   UNL     1       0.794   6.201 -19.245  0.00  0.00    +0.000 C 
ATOM     17  H   UNL     1      -0.283   6.318 -19.081  0.00  0.00    +0.000 HD
ATOM     18  H   UNL     1       1.151   7.127 -19.704  0.00  0.00    +0.000 HD
ATOM     19  H   UNL     1       1.266   6.094 -18.262  0.00  0.00    +0.000 HD
ENDBRANCH  14  16
BRANCH  14  20
ATOM     20  C   UNL     1       2.559   4.832 -20.371  0.00  0.00    +0.000 C 
ATOM     21  H   UNL     1       2.822   3.852 -20.780  0.00  0.00    +0.000 HD
ATOM     22  H   UNL     1       3.115   4.957 -19.435  0.00  0.00    +0.000 HD
ATOM     23  H   UNL     1       2.910   5.600 -21.069  0.00  0.00    +0.000 HD
ENDBRANCH  14  20
ENDBRANCH   1  14
TORSDOF 7
ENDMDL
MODEL 7
REMARK VINA RESULT:    -3.460      1.845      2.717
REMARK INTER + INTRA:          -4.888
REMARK INTER:                  -4.686
REMARK INTRA:                  -0.201
REMARK UNBOUND:                -0.315
REMARK  Name = 31276
REMARK  7 active torsions:
REMARK  status: ('A' for Active; 'I' for Inactive)
REMARK    1  A    between atoms: O_1  and  C_5
REMARK    2  A    between atoms: O_1  and  C_8
REMARK    3  A    between atoms: C_3  and  C_4
REMARK    4  A    between atoms: C_3  and  C_6
REMARK    5  A    between atoms: C_3  and  C_7
REMARK    6  A    between atoms: C_4  and  C_5
REMARK    7  A    between atoms: C_8  and  C_9
REMARK                            x       y       z     vdW  Elec       q    Type
REMARK                         _______ _______ _______ _____ _____    ______ ____
ROOT
ATOM      1  C   UNL     1      17.205  -6.060  -3.834  0.00  0.00    +0.000 C 
ATOM      2  H   UNL     1      17.223  -5.615  -4.836  0.00  0.00    +0.000 HD
ATOM      3  H   UNL     1      16.738  -7.045  -3.963  0.00  0.00    +0.000 HD
ENDROOT
BRANCH   1   4
ATOM      4  C   UNL     1      18.636  -6.252  -3.346  0.00  0.00    +0.000 C 
ATOM      5  H   UNL     1      18.871  -5.545  -2.544  0.00  0.00    +0.000 HD
ATOM      6  H   UNL     1      18.793  -7.275  -2.985  0.00  0.00    +0.000 HD
BRANCH   4   7
ATOM      7  O   UNL     1      19.524  -6.022  -4.432  0.00  0.00    +0.000 OA
BRANCH   7   9
ATOM      8  O   UNL     1      20.178  -3.872  -3.901  0.00  0.00    +0.000 OA
ATOM      9  C   UNL     1      20.430  -5.015  -4.257  0.00  0.00    +0.000 C 
BRANCH   9  10
ATOM     10  C   UNL     1      21.811  -5.511  -4.567  0.00  0.00    +0.000 C 
ATOM     11  H   UNL     1      22.393  -5.586  -3.646  0.00  0.00    +0.000 HD
ATOM     12  H   UNL     1      22.297  -4.833  -5.275  0.00  0.00    +0.000 HD
ATOM     13  H   UNL     1      21.748  -6.503  -5.022  0.00  0.00    +0.000 HD
ENDBRANCH   9  10
ENDBRANCH   7   9
ENDBRANCH   4   7
ENDBRANCH   1   4
BRANCH   1  14
ATOM     14  C   UNL     1      16.343  -5.197  -2.898  0.00  0.00    +0.000 C 
ATOM     15  H   UNL     1      15.681  -4.585  -3.522  0.00  0.00    +0.000 HD
BRANCH  14  16
ATOM     16  C   UNL     1      15.483  -6.095  -2.006  0.00  0.00    +0.000 C 
ATOM     17  H   UNL     1      14.460  -5.707  -1.960  0.00  0.00    +0.000 HD
ATOM     18  H   UNL     1      15.854  -6.144  -0.978  0.00  0.00    +0.000 HD
ATOM     19  H   UNL     1      15.430  -7.113  -2.406  0.00  0.00    +0.000 HD
ENDBRANCH  14  16
BRANCH  14  20
ATOM     20  C   UNL     1      17.185  -4.261  -2.029  0.00  0.00    +0.000 C 
ATOM     21  H   UNL     1      18.063  -3.881  -2.559  0.00  0.00    +0.000 HD
ATOM     22  H   UNL     1      17.542  -4.789  -1.138  0.00  0.00    +0.000 HD
ATOM     23  H   UNL     1      16.591  -3.406  -1.691  0.00  0.00    +0.000 HD
ENDBRANCH  14  20
ENDBRANCH   1  14
TORSDOF 7
ENDMDL
MODEL 8
REMARK VINA RESULT:    -3.351     23.482     24.557
REMARK INTER + INTRA:          -4.744
REMARK INTER:                  -4.546
REMARK INTRA:                  -0.198
REMARK UNBOUND:                -0.315
REMARK  Name = 31276
REMARK  7 active torsions:
REMARK  status: ('A' for Active; 'I' for Inactive)
REMARK    1  A    between atoms: O_1  and  C_5
REMARK    2  A    between atoms: O_1  and  C_8
REMARK    3  A    between atoms: C_3  and  C_4
REMARK    4  A    between atoms: C_3  and  C_6
REMARK    5  A    between atoms: C_3  and  C_7
REMARK    6  A    between atoms: C_4  and  C_5
REMARK    7  A    between atoms: C_8  and  C_9
REMARK                            x       y       z     vdW  Elec       q    Type
REMARK                         _______ _______ _______ _____ _____    ______ ____
ROOT
ATOM      1  C   UNL     1       4.965   4.388 -19.807  0.00  0.00    +0.000 C 
ATOM      2  H   UNL     1       4.672   3.390 -19.458  0.00  0.00    +0.000 HD
ATOM      3  H   UNL     1       5.412   4.228 -20.797  0.00  0.00    +0.000 HD
ENDROOT
BRANCH   1   4
ATOM      4  C   UNL     1       3.719   5.251 -19.961  0.00  0.00    +0.000 C 
ATOM      5  H   UNL     1       3.489   5.771 -19.025  0.00  0.00    +0.000 HD
ATOM      6  H   UNL     1       3.848   5.986 -20.762  0.00  0.00    +0.000 HD
BRANCH   4   7
ATOM      7  O   UNL     1       2.621   4.412 -20.298  0.00  0.00    +0.000 OA
BRANCH   7   9
ATOM      8  O   UNL     1       0.363   4.191 -19.867  0.00  0.00    +0.000 OA
ATOM      9  C   UNL     1       1.390   4.855 -19.903  0.00  0.00    +0.000 C 
BRANCH   9  10
ATOM     10  C   UNL     1       1.469   6.299 -19.509  0.00  0.00    +0.000 C 
ATOM     11  H   UNL     1       2.508   6.635 -19.541  0.00  0.00    +0.000 HD
ATOM     12  H   UNL     1       1.053   6.432 -18.506  0.00  0.00    +0.000 HD
ATOM     13  H   UNL     1       0.886   6.900 -20.211  0.00  0.00    +0.000 HD
ENDBRANCH   9  10
ENDBRANCH   7   9
ENDBRANCH   4   7
ENDBRANCH   1   4
BRANCH   1  14
ATOM     14  C   UNL     1       6.016   4.982 -18.855  0.00  0.00    +0.000 C 
ATOM     15  H   UNL     1       6.750   5.525 -19.462  0.00  0.00    +0.000 HD
BRANCH  14  16
ATOM     16  C   UNL     1       5.349   5.969 -17.894  0.00  0.00    +0.000 C 
ATOM     17  H   UNL     1       4.264   5.965 -18.048  0.00  0.00    +0.000 HD
ATOM     18  H   UNL     1       5.691   6.997 -18.046  0.00  0.00    +0.000 HD
ATOM     19  H   UNL     1       5.534   5.691 -16.851  0.00  0.00    +0.000 HD
ENDBRANCH  14  16
BRANCH  14  20
ATOM     20  C   UNL     1       6.754   3.905 -18.058  0.00  0.00    +0.000 C 
ATOM     21  H   UNL     1       6.118   3.042 -17.838  0.00  0.00    +0.000 HD
ATOM     22  H   UNL     1       7.099   4.310 -17.101  0.00  0.00    +0.000 HD
ATOM     23  H   UNL     1       7.634   3.552 -18.605  0.00  0.00    +0.000 HD
ENDBRANCH  14  20
ENDBRANCH   1  14
TORSDOF 7
ENDMDL
MODEL 9
REMARK VINA RESULT:    -3.350     25.054     26.328
REMARK INTER + INTRA:          -4.742
REMARK INTER:                  -4.472
REMARK INTRA:                  -0.271
REMARK UNBOUND:                -0.315
REMARK  Name = 31276
REMARK  7 active torsions:
REMARK  status: ('A' for Active; 'I' for Inactive)
REMARK    1  A    between atoms: O_1  and  C_5
REMARK    2  A    between atoms: O_1  and  C_8
REMARK    3  A    between atoms: C_3  and  C_4
REMARK    4  A    between atoms: C_3  and  C_6
REMARK    5  A    between atoms: C_3  and  C_7
REMARK    6  A    between atoms: C_4  and  C_5
REMARK    7  A    between atoms: C_8  and  C_9
REMARK                            x       y       z     vdW  Elec       q    Type
REMARK                         _______ _______ _______ _____ _____    ______ ____
ROOT
ATOM      1  C   UNL     1      -7.427 -13.514   2.952  0.00  0.00    +0.000 C 
ATOM      2  H   UNL     1      -8.215 -14.092   3.451  0.00  0.00    +0.000 HD
ATOM      3  H   UNL     1      -7.921 -12.604   2.589  0.00  0.00    +0.000 HD
ENDROOT
BRANCH   1   4
ATOM      4  C   UNL     1      -6.366 -13.126   3.975  0.00  0.00    +0.000 C 
ATOM      5  H   UNL     1      -5.451 -13.707   3.825  0.00  0.00    +0.000 HD
ATOM      6  H   UNL     1      -6.132 -12.058   3.910  0.00  0.00    +0.000 HD
BRANCH   4   7
ATOM      7  O   UNL     1      -6.869 -13.394   5.278  0.00  0.00    +0.000 OA
BRANCH   7   9
ATOM      8  O   UNL     1      -6.109 -15.572   5.395  0.00  0.00    +0.000 OA
ATOM      9  C   UNL     1      -6.950 -14.713   5.625  0.00  0.00    +0.000 C 
BRANCH   9  10
ATOM     10  C   UNL     1      -8.239 -14.974   6.345  0.00  0.00    +0.000 C 
ATOM     11  H   UNL     1      -8.667 -14.030   6.690  0.00  0.00    +0.000 HD
ATOM     12  H   UNL     1      -8.062 -15.648   7.188  0.00  0.00    +0.000 HD
ATOM     13  H   UNL     1      -8.948 -15.449   5.661  0.00  0.00    +0.000 HD
ENDBRANCH   9  10
ENDBRANCH   7   9
ENDBRANCH   4   7
ENDBRANCH   1   4
BRANCH   1  14
ATOM     14  C   UNL     1      -6.874 -14.314   1.761  0.00  0.00    +0.000 C 
ATOM     15  H   UNL     1      -7.407 -15.272   1.723  0.00  0.00    +0.000 HD
BRANCH  14  16
ATOM     16  C   UNL     1      -7.138 -13.556   0.458  0.00  0.00    +0.000 C 
ATOM     17  H   UNL     1      -8.061 -12.974   0.545  0.00  0.00    +0.000 HD
ATOM     18  H   UNL     1      -7.260 -14.226  -0.399  0.00  0.00    +0.000 HD
ATOM     19  H   UNL     1      -6.326 -12.854   0.238  0.00  0.00    +0.000 HD
ENDBRANCH  14  16
BRANCH  14  20
ATOM     20  C   UNL     1      -5.378 -14.601   1.897  0.00  0.00    +0.000 C 
ATOM     21  H   UNL     1      -4.799 -13.697   2.112  0.00  0.00    +0.000 HD
ATOM     22  H   UNL     1      -4.987 -15.027   0.967  0.00  0.00    +0.000 HD
ATOM     23  H   UNL     1      -5.192 -15.325   2.697  0.00  0.00    +0.000 HD
ENDBRANCH  14  20
ENDBRANCH   1  14
TORSDOF 7
ENDMDL
MODEL 10
REMARK VINA RESULT:    -3.335     24.986     26.328
REMARK INTER + INTRA:          -4.723
REMARK INTER:                  -4.408
REMARK INTRA:                  -0.315
REMARK UNBOUND:                -0.315
REMARK  Name = 31276
REMARK  7 active torsions:
REMARK  status: ('A' for Active; 'I' for Inactive)
REMARK    1  A    between atoms: O_1  and  C_5
REMARK    2  A    between atoms: O_1  and  C_8
REMARK    3  A    between atoms: C_3  and  C_4
REMARK    4  A    between atoms: C_3  and  C_6
REMARK    5  A    between atoms: C_3  and  C_7
REMARK    6  A    between atoms: C_4  and  C_5
REMARK    7  A    between atoms: C_8  and  C_9
REMARK                            x       y       z     vdW  Elec       q    Type
REMARK                         _______ _______ _______ _____ _____    ______ ____
ROOT
ATOM      1  C   UNL     1      -6.665 -15.607   5.308  0.00  0.00    +0.000 C 
ATOM      2  H   UNL     1      -7.322 -15.889   4.476  0.00  0.00    +0.000 HD
ATOM      3  H   UNL     1      -6.246 -16.551   5.679  0.00  0.00    +0.000 HD
ENDROOT
BRANCH   1   4
ATOM      4  C   UNL     1      -5.532 -14.736   4.780  0.00  0.00    +0.000 C 
ATOM      5  H   UNL     1      -5.609 -13.717   5.174  0.00  0.00    +0.000 HD
ATOM      6  H   UNL     1      -4.557 -15.156   5.050  0.00  0.00    +0.000 HD
BRANCH   4   7
ATOM      7  O   UNL     1      -5.618 -14.685   3.362  0.00  0.00    +0.000 OA
BRANCH   7   9
ATOM      8  O   UNL     1      -6.690 -13.327   1.832  0.00  0.00    +0.000 OA
ATOM      9  C   UNL     1      -6.003 -13.486   2.832  0.00  0.00    +0.000 C 
BRANCH   9  10
ATOM     10  C   UNL     1      -5.459 -12.362   3.661  0.00  0.00    +0.000 C 
ATOM     11  H   UNL     1      -4.517 -12.010   3.234  0.00  0.00    +0.000 HD
ATOM     12  H   UNL     1      -5.312 -12.700   4.691  0.00  0.00    +0.000 HD
ATOM     13  H   UNL     1      -6.172 -11.534   3.665  0.00  0.00    +0.000 HD
ENDBRANCH   9  10
ENDBRANCH   7   9
ENDBRANCH   4   7
ENDBRANCH   1   4
BRANCH   1  14
ATOM     14  C   UNL     1      -7.494 -14.938   6.418  0.00  0.00    +0.000 C 
ATOM     15  H   UNL     1      -6.803 -14.628   7.212  0.00  0.00    +0.000 HD
BRANCH  14  16
ATOM     16  C   UNL     1      -8.195 -13.695   5.867  0.00  0.00    +0.000 C 
ATOM     17  H   UNL     1      -9.004 -13.391   6.541  0.00  0.00    +0.000 HD
ATOM     18  H   UNL     1      -8.645 -13.868   4.885  0.00  0.00    +0.000 HD
ATOM     19  H   UNL     1      -7.500 -12.852   5.788  0.00  0.00    +0.000 HD
ENDBRANCH  14  16
BRANCH  14  20
ATOM     20  C   UNL     1      -8.528 -15.888   7.024  0.00  0.00    +0.000 C 
ATOM     21  H   UNL     1      -9.389 -15.354   7.439  0.00  0.00    +0.000 HD
ATOM     22  H   UNL     1      -8.080 -16.470   7.836  0.00  0.00    +0.000 HD
ATOM     23  H   UNL     1      -8.894 -16.595   6.272  0.00  0.00    +0.000 HD
ENDBRANCH  14  20
ENDBRANCH   1  14
TORSDOF 7
ENDMDL
