MODEL 1
REMARK VINA RESULT:    -4.248      0.000      0.000
REMARK INTER + INTRA:          -4.869
REMARK INTER:                  -4.869
REMARK INTRA:                   0.000
REMARK UNBOUND:                 0.000
REMARK  Name = 6590
REMARK  4 active torsions:
REMARK  status: ('A' for Active; 'I' for Inactive)
REMARK    1  A    between atoms: O_1  and  C_6
REMARK    2  A    between atoms: C_3  and  C_4
REMARK    3  A    between atoms: C_3  and  C_5
REMARK    4  A    between atoms: C_3  and  C_6
REMARK                            x       y       z     vdW  Elec       q    Type
REMARK                         _______ _______ _______ _____ _____    ______ ____
ROOT
ATOM      1  C   UNL     1       5.596  -6.528  -9.755  0.00  0.00    +0.000 C 
ATOM      2  H   UNL     1       5.943  -7.384 -10.349  0.00  0.00    +0.000 HD
ENDROOT
BRANCH   1   3
ATOM      3  C   UNL     1       5.309  -5.352 -10.679  0.00  0.00    +0.000 C 
ATOM      4  H   UNL     1       4.824  -5.687 -11.601  0.00  0.00    +0.000 HD
ATOM      5  H   UNL     1       6.230  -4.824 -10.948  0.00  0.00    +0.000 HD
ATOM      6  H   UNL     1       4.647  -4.626 -10.193  0.00  0.00    +0.000 HD
ENDBRANCH   1   3
BRANCH   1   7
ATOM      7  C   UNL     1       6.699  -6.184  -8.758  0.00  0.00    +0.000 C 
ATOM      8  H   UNL     1       6.648  -5.134  -8.450  0.00  0.00    +0.000 HD
ATOM      9  H   UNL     1       7.688  -6.362  -9.194  0.00  0.00    +0.000 HD
ATOM     10  H   UNL     1       6.611  -6.796  -7.854  0.00  0.00    +0.000 HD
ENDBRANCH   1   7
BRANCH   1  12
ATOM     11  O   UNL     1       4.076  -6.721  -7.855  0.00  0.00    +0.000 OA
ATOM     12  C   UNL     1       4.328  -6.935  -9.032  0.00  0.00    +0.000 C 
BRANCH  12  13
ATOM     13  O   UNL     1       3.481  -7.577  -9.877  0.00  0.00    +0.000 OA
ATOM     14  H   UNL     1       2.708  -7.021 -10.111  0.00  0.00    +0.000 HD
ENDBRANCH  12  13
ENDBRANCH   1  12
TORSDOF 4
ENDMDL
MODEL 2
REMARK VINA RESULT:    -4.201      1.633      2.230
REMARK INTER + INTRA:          -4.815
REMARK INTER:                  -4.815
REMARK INTRA:                   0.000
REMARK UNBOUND:                 0.000
REMARK  Name = 6590
REMARK  4 active torsions:
REMARK  status: ('A' for Active; 'I' for Inactive)
REMARK    1  A    between atoms: O_1  and  C_6
REMARK    2  A    between atoms: C_3  and  C_4
REMARK    3  A    between atoms: C_3  and  C_5
REMARK    4  A    between atoms: C_3  and  C_6
REMARK                            x       y       z     vdW  Elec       q    Type
REMARK                         _______ _______ _______ _____ _____    ______ ____
ROOT
ATOM      1  C   UNL     1       6.222  -6.907  -9.679  0.00  0.00    +0.000 C 
ATOM      2  H   UNL     1       6.916  -7.167 -10.488  0.00  0.00    +0.000 HD
ENDROOT
BRANCH   1   3
ATOM      3  C   UNL     1       6.954  -6.085  -8.626  0.00  0.00    +0.000 C 
ATOM      4  H   UNL     1       8.016  -5.985  -8.875  0.00  0.00    +0.000 HD
ATOM      5  H   UNL     1       6.876  -6.548  -7.636  0.00  0.00    +0.000 HD
ATOM      6  H   UNL     1       6.529  -5.079  -8.550  0.00  0.00    +0.000 HD
ENDBRANCH   1   3
BRANCH   1   7
ATOM      7  C   UNL     1       5.697  -8.212  -9.087  0.00  0.00    +0.000 C 
ATOM      8  H   UNL     1       5.428  -8.094  -8.032  0.00  0.00    +0.000 HD
ATOM      9  H   UNL     1       6.451  -9.003  -9.158  0.00  0.00    +0.000 HD
ATOM     10  H   UNL     1       4.800  -8.547  -9.619  0.00  0.00    +0.000 HD
ENDBRANCH   1   7
BRANCH   1  12
ATOM     11  O   UNL     1       5.194  -4.994 -10.793  0.00  0.00    +0.000 OA
ATOM     12  C   UNL     1       5.089  -6.093 -10.270  0.00  0.00    +0.000 C 
BRANCH  12  13
ATOM     13  O   UNL     1       3.910  -6.758 -10.151  0.00  0.00    +0.000 OA
ATOM     14  H   UNL     1       3.762  -7.375 -10.898  0.00  0.00    +0.000 HD
ENDBRANCH  12  13
ENDBRANCH   1  12
TORSDOF 4
ENDMDL
MODEL 3
REMARK VINA RESULT:    -4.021      6.537      6.995
REMARK INTER + INTRA:          -4.609
REMARK INTER:                  -4.609
REMARK INTRA:                   0.000
REMARK UNBOUND:                 0.000
REMARK  Name = 6590
REMARK  4 active torsions:
REMARK  status: ('A' for Active; 'I' for Inactive)
REMARK    1  A    between atoms: O_1  and  C_6
REMARK    2  A    between atoms: C_3  and  C_4
REMARK    3  A    between atoms: C_3  and  C_5
REMARK    4  A    between atoms: C_3  and  C_6
REMARK                            x       y       z     vdW  Elec       q    Type
REMARK                         _______ _______ _______ _____ _____    ______ ____
ROOT
ATOM      1  C   UNL     1      -0.254  -5.698  -6.088  0.00  0.00    +0.000 C 
ATOM      2  H   UNL     1      -0.414  -6.782  -6.019  0.00  0.00    +0.000 HD
ENDROOT
BRANCH   1   3
ATOM      3  C   UNL     1      -0.266  -5.276  -7.552  0.00  0.00    +0.000 C 
ATOM      4  H   UNL     1      -0.617  -6.092  -8.192  0.00  0.00    +0.000 HD
ATOM      5  H   UNL     1       0.733  -4.981  -7.889  0.00  0.00    +0.000 HD
ATOM      6  H   UNL     1      -0.929  -4.418  -7.705  0.00  0.00    +0.000 HD
ENDBRANCH   1   3
BRANCH   1   7
ATOM      7  C   UNL     1       1.094  -5.391  -5.443  0.00  0.00    +0.000 C 
ATOM      8  H   UNL     1       1.370  -4.339  -5.572  0.00  0.00    +0.000 HD
ATOM      9  H   UNL     1       1.887  -6.006  -5.882  0.00  0.00    +0.000 HD
ATOM     10  H   UNL     1       1.065  -5.593  -4.366  0.00  0.00    +0.000 HD
ENDBRANCH   1   7
BRANCH   1  12
ATOM     11  O   UNL     1      -2.063  -4.090  -5.774  0.00  0.00    +0.000 OA
ATOM     12  C   UNL     1      -1.375  -5.004  -5.343  0.00  0.00    +0.000 C 
BRANCH  12  13
ATOM     13  O   UNL     1      -1.533  -5.544  -4.107  0.00  0.00    +0.000 OA
ATOM     14  H   UNL     1      -2.467  -5.511  -3.810  0.00  0.00    +0.000 HD
ENDBRANCH  12  13
ENDBRANCH   1  12
TORSDOF 4
ENDMDL
MODEL 4
REMARK VINA RESULT:    -3.810      4.513      5.632
REMARK INTER + INTRA:          -4.367
REMARK INTER:                  -4.367
REMARK INTRA:                   0.000
REMARK UNBOUND:                 0.000
REMARK  Name = 6590
REMARK  4 active torsions:
REMARK  status: ('A' for Active; 'I' for Inactive)
REMARK    1  A    between atoms: O_1  and  C_6
REMARK    2  A    between atoms: C_3  and  C_4
REMARK    3  A    between atoms: C_3  and  C_5
REMARK    4  A    between atoms: C_3  and  C_6
REMARK                            x       y       z     vdW  Elec       q    Type
REMARK                         _______ _______ _______ _____ _____    ______ ____
ROOT
ATOM      1  C   UNL     1       1.015  -5.257  -6.927  0.00  0.00    +0.000 C 
ATOM      2  H   UNL     1       1.156  -4.188  -7.132  0.00  0.00    +0.000 HD
ENDROOT
BRANCH   1   3
ATOM      3  C   UNL     1       2.252  -6.027  -7.373  0.00  0.00    +0.000 C 
ATOM      4  H   UNL     1       2.974  -5.362  -7.859  0.00  0.00    +0.000 HD
ATOM      5  H   UNL     1       1.992  -6.824  -8.077  0.00  0.00    +0.000 HD
ATOM      6  H   UNL     1       2.749  -6.497  -6.517  0.00  0.00    +0.000 HD
ENDBRANCH   1   3
BRANCH   1   7
ATOM      7  C   UNL     1      -0.220  -5.714  -7.699  0.00  0.00    +0.000 C 
ATOM      8  H   UNL     1       0.032  -6.478  -8.443  0.00  0.00    +0.000 HD
ATOM      9  H   UNL     1      -0.687  -4.872  -8.221  0.00  0.00    +0.000 HD
ATOM     10  H   UNL     1      -0.963  -6.149  -7.021  0.00  0.00    +0.000 HD
ENDBRANCH   1   7
BRANCH   1  12
ATOM     11  O   UNL     1      -0.249  -5.694  -4.886  0.00  0.00    +0.000 OA
ATOM     12  C   UNL     1       0.810  -5.432  -5.437  0.00  0.00    +0.000 C 
BRANCH  12  13
ATOM     13  O   UNL     1       1.981  -5.265  -4.770  0.00  0.00    +0.000 OA
ATOM     14  H   UNL     1       1.906  -5.523  -3.828  0.00  0.00    +0.000 HD
ENDBRANCH  12  13
ENDBRANCH   1  12
TORSDOF 4
ENDMDL
MODEL 5
REMARK VINA RESULT:    -3.449     38.448     39.188
REMARK INTER + INTRA:          -3.953
REMARK INTER:                  -3.953
REMARK INTRA:                   0.000
REMARK UNBOUND:                 0.000
REMARK  Name = 6590
REMARK  4 active torsions:
REMARK  status: ('A' for Active; 'I' for Inactive)
REMARK    1  A    between atoms: O_1  and  C_6
REMARK    2  A    between atoms: C_3  and  C_4
REMARK    3  A    between atoms: C_3  and  C_5
REMARK    4  A    between atoms: C_3  and  C_6
REMARK                            x       y       z     vdW  Elec       q    Type
REMARK                         _______ _______ _______ _____ _____    ______ ____
ROOT
ATOM      1  C   UNL     1      -5.073   4.930  26.205  0.00  0.00    +0.000 C 
ATOM      2  H   UNL     1      -4.634   5.935  26.205  0.00  0.00    +0.000 HD
ENDROOT
BRANCH   1   3
ATOM      3  C   UNL     1      -4.060   3.932  26.752  0.00  0.00    +0.000 C 
ATOM      4  H   UNL     1      -3.898   4.085  27.824  0.00  0.00    +0.000 HD
ATOM      5  H   UNL     1      -3.095   4.026  26.243  0.00  0.00    +0.000 HD
ATOM      6  H   UNL     1      -4.407   2.903  26.606  0.00  0.00    +0.000 HD
ENDBRANCH   1   3
BRANCH   1   7
ATOM      7  C   UNL     1      -5.449   4.593  24.765  0.00  0.00    +0.000 C 
ATOM      8  H   UNL     1      -6.008   5.409  24.295  0.00  0.00    +0.000 HD
ATOM      9  H   UNL     1      -6.068   3.690  24.724  0.00  0.00    +0.000 HD
ATOM     10  H   UNL     1      -4.552   4.418  24.160  0.00  0.00    +0.000 HD
ENDBRANCH   1   7
BRANCH   1  12
ATOM     11  O   UNL     1      -7.070   5.891  27.227  0.00  0.00    +0.000 OA
ATOM     12  C   UNL     1      -6.304   4.950  27.089  0.00  0.00    +0.000 C 
BRANCH  12  13
ATOM     13  O   UNL     1      -6.458   3.756  27.719  0.00  0.00    +0.000 OA
ATOM     14  H   UNL     1      -6.840   3.864  28.616  0.00  0.00    +0.000 HD
ENDBRANCH  12  13
ENDBRANCH   1  12
TORSDOF 4
ENDMDL
MODEL 6
REMARK VINA RESULT:    -3.243      7.388      7.800
REMARK INTER + INTRA:          -3.717
REMARK INTER:                  -3.717
REMARK INTRA:                   0.000
REMARK UNBOUND:                 0.000
REMARK  Name = 6590
REMARK  4 active torsions:
REMARK  status: ('A' for Active; 'I' for Inactive)
REMARK    1  A    between atoms: O_1  and  C_6
REMARK    2  A    between atoms: C_3  and  C_4
REMARK    3  A    between atoms: C_3  and  C_5
REMARK    4  A    between atoms: C_3  and  C_6
REMARK                            x       y       z     vdW  Elec       q    Type
REMARK                         _______ _______ _______ _____ _____    ______ ____
ROOT
ATOM      1  C   UNL     1       1.155  -0.879  -8.061  0.00  0.00    +0.000 C 
ATOM      2  H   UNL     1       1.741  -1.004  -7.141  0.00  0.00    +0.000 HD
ENDROOT
BRANCH   1   3
ATOM      3  C   UNL     1       0.785  -2.247  -8.618  0.00  0.00    +0.000 C 
ATOM      4  H   UNL     1       1.117  -3.046  -7.947  0.00  0.00    +0.000 HD
ATOM      5  H   UNL     1       1.240  -2.413  -9.600  0.00  0.00    +0.000 HD
ATOM      6  H   UNL     1      -0.300  -2.339  -8.740  0.00  0.00    +0.000 HD
ENDBRANCH   1   3
BRANCH   1   7
ATOM      7  C   UNL     1       2.016  -0.100  -9.052  0.00  0.00    +0.000 C 
ATOM      8  H   UNL     1       1.401   0.421  -9.794  0.00  0.00    +0.000 HD
ATOM      9  H   UNL     1       2.698  -0.770  -9.586  0.00  0.00    +0.000 HD
ATOM     10  H   UNL     1       2.616   0.656  -8.534  0.00  0.00    +0.000 HD
ENDBRANCH   1   7
BRANCH   1  12
ATOM     11  O   UNL     1      -0.328   0.463  -6.662  0.00  0.00    +0.000 OA
ATOM     12  C   UNL     1      -0.102  -0.105  -7.720  0.00  0.00    +0.000 C 
BRANCH  12  13
ATOM     13  O   UNL     1      -0.967  -0.113  -8.767  0.00  0.00    +0.000 OA
ATOM     14  H   UNL     1      -1.000  -0.989  -9.206  0.00  0.00    +0.000 HD
ENDBRANCH  12  13
ENDBRANCH   1  12
TORSDOF 4
ENDMDL
MODEL 7
REMARK VINA RESULT:    -3.197     14.773     15.319
REMARK INTER + INTRA:          -3.664
REMARK INTER:                  -3.664
REMARK INTRA:                   0.000
REMARK UNBOUND:                 0.000
REMARK  Name = 6590
REMARK  4 active torsions:
REMARK  status: ('A' for Active; 'I' for Inactive)
REMARK    1  A    between atoms: O_1  and  C_6
REMARK    2  A    between atoms: C_3  and  C_4
REMARK    3  A    between atoms: C_3  and  C_5
REMARK    4  A    between atoms: C_3  and  C_6
REMARK                            x       y       z     vdW  Elec       q    Type
REMARK                         _______ _______ _______ _____ _____    ______ ____
ROOT
ATOM      1  C   UNL     1       1.424   2.892 -20.781  0.00  0.00    +0.000 C 
ATOM      2  H   UNL     1       1.677   3.808 -21.331  0.00  0.00    +0.000 HD
ENDROOT
BRANCH   1   3
ATOM      3  C   UNL     1       0.474   3.232 -19.640  0.00  0.00    +0.000 C 
ATOM      4  H   UNL     1      -0.499   3.556 -20.023  0.00  0.00    +0.000 HD
ATOM      5  H   UNL     1       0.878   4.032 -19.011  0.00  0.00    +0.000 HD
ATOM      6  H   UNL     1       0.310   2.361 -18.996  0.00  0.00    +0.000 HD
ENDBRANCH   1   3
BRANCH   1   7
ATOM      7  C   UNL     1       2.727   2.302 -20.249  0.00  0.00    +0.000 C 
ATOM      8  H   UNL     1       2.587   1.841 -19.265  0.00  0.00    +0.000 HD
ATOM      9  H   UNL     1       3.497   3.076 -20.155  0.00  0.00    +0.000 HD
ATOM     10  H   UNL     1       3.106   1.526 -20.923  0.00  0.00    +0.000 HD
ENDBRANCH   1   7
BRANCH   1  12
ATOM     11  O   UNL     1      -0.428   1.620 -21.732  0.00  0.00    +0.000 OA
ATOM     12  C   UNL     1       0.753   1.931 -21.741  0.00  0.00    +0.000 C 
BRANCH  12  13
ATOM     13  O   UNL     1       1.650   1.452 -22.642  0.00  0.00    +0.000 OA
ATOM     14  H   UNL     1       1.335   1.561 -23.564  0.00  0.00    +0.000 HD
ENDBRANCH  12  13
ENDBRANCH   1  12
TORSDOF 4
ENDMDL
MODEL 8
REMARK VINA RESULT:    -3.169      5.447      6.170
REMARK INTER + INTRA:          -3.632
REMARK INTER:                  -3.632
REMARK INTRA:                   0.000
REMARK UNBOUND:                 0.000
REMARK  Name = 6590
REMARK  4 active torsions:
REMARK  status: ('A' for Active; 'I' for Inactive)
REMARK    1  A    between atoms: O_1  and  C_6
REMARK    2  A    between atoms: C_3  and  C_4
REMARK    3  A    between atoms: C_3  and  C_5
REMARK    4  A    between atoms: C_3  and  C_6
REMARK                            x       y       z     vdW  Elec       q    Type
REMARK                         _______ _______ _______ _____ _____    ______ ____
ROOT
ATOM      1  C   UNL     1      -0.117  -5.757  -6.461  0.00  0.00    +0.000 C 
ATOM      2  H   UNL     1      -0.051  -6.852  -6.502  0.00  0.00    +0.000 HD
ENDROOT
BRANCH   1   3
ATOM      3  C   UNL     1      -1.259  -5.350  -5.540  0.00  0.00    +0.000 C 
ATOM      4  H   UNL     1      -1.752  -6.230  -5.114  0.00  0.00    +0.000 HD
ATOM      5  H   UNL     1      -2.011  -4.760  -6.075  0.00  0.00    +0.000 HD
ATOM      6  H   UNL     1      -0.892  -4.735  -4.711  0.00  0.00    +0.000 HD
ENDBRANCH   1   3
BRANCH   1   7
ATOM      7  C   UNL     1      -0.358  -5.258  -7.883  0.00  0.00    +0.000 C 
ATOM      8  H   UNL     1      -1.311  -4.725  -7.965  0.00  0.00    +0.000 HD
ATOM      9  H   UNL     1      -0.375  -6.094  -8.592  0.00  0.00    +0.000 HD
ATOM     10  H   UNL     1       0.433  -4.567  -8.192  0.00  0.00    +0.000 HD
ENDBRANCH   1   7
BRANCH   1  12
ATOM     11  O   UNL     1       1.886  -5.756  -5.067  0.00  0.00    +0.000 OA
ATOM     12  C   UNL     1       1.195  -5.223  -5.922  0.00  0.00    +0.000 C 
BRANCH  12  13
ATOM     13  O   UNL     1       1.520  -4.053  -6.529  0.00  0.00    +0.000 OA
ATOM     14  H   UNL     1       2.280  -4.157  -7.140  0.00  0.00    +0.000 HD
ENDBRANCH  12  13
ENDBRANCH   1  12
TORSDOF 4
ENDMDL
MODEL 9
REMARK VINA RESULT:    -3.167     13.192     14.087
REMARK INTER + INTRA:          -3.630
REMARK INTER:                  -3.630
REMARK INTRA:                   0.000
REMARK UNBOUND:                 0.000
REMARK  Name = 6590
REMARK  4 active torsions:
REMARK  status: ('A' for Active; 'I' for Inactive)
REMARK    1  A    between atoms: O_1  and  C_6
REMARK    2  A    between atoms: C_3  and  C_4
REMARK    3  A    between atoms: C_3  and  C_5
REMARK    4  A    between atoms: C_3  and  C_6
REMARK                            x       y       z     vdW  Elec       q    Type
REMARK                         _______ _______ _______ _____ _____    ______ ____
ROOT
ATOM      1  C   UNL     1      18.256  -6.450  -4.071  0.00  0.00    +0.000 C 
ATOM      2  H   UNL     1      18.422  -7.365  -3.489  0.00  0.00    +0.000 HD
ENDROOT
BRANCH   1   3
ATOM      3  C   UNL     1      17.572  -6.801  -5.387  0.00  0.00    +0.000 C 
ATOM      4  H   UNL     1      18.310  -7.023  -6.165  0.00  0.00    +0.000 HD
ATOM      5  H   UNL     1      16.940  -5.978  -5.738  0.00  0.00    +0.000 HD
ATOM      6  H   UNL     1      16.930  -7.680  -5.270  0.00  0.00    +0.000 HD
ENDBRANCH   1   3
BRANCH   1   7
ATOM      7  C   UNL     1      19.619  -5.809  -4.318  0.00  0.00    +0.000 C 
ATOM      8  H   UNL     1      20.426  -6.545  -4.253  0.00  0.00    +0.000 HD
ATOM      9  H   UNL     1      19.817  -5.020  -3.584  0.00  0.00    +0.000 HD
ATOM     10  H   UNL     1      19.662  -5.361  -5.318  0.00  0.00    +0.000 HD
ENDBRANCH   1   7
BRANCH   1  12
ATOM     11  O   UNL     1      17.647  -4.389  -2.915  0.00  0.00    +0.000 OA
ATOM     12  C   UNL     1      17.369  -5.527  -3.261  0.00  0.00    +0.000 C 
BRANCH  12  13
ATOM     13  O   UNL     1      16.190  -6.134  -2.967  0.00  0.00    +0.000 OA
ATOM     14  H   UNL     1      15.474  -5.857  -3.577  0.00  0.00    +0.000 HD
ENDBRANCH  12  13
ENDBRANCH   1  12
TORSDOF 4
ENDMDL
MODEL 10
REMARK VINA RESULT:    -3.122     15.094     15.542
REMARK INTER + INTRA:          -3.579
REMARK INTER:                  -3.579
REMARK INTRA:                   0.000
REMARK UNBOUND:                 0.000
REMARK  Name = 6590
REMARK  4 active torsions:
REMARK  status: ('A' for Active; 'I' for Inactive)
REMARK    1  A    between atoms: O_1  and  C_6
REMARK    2  A    between atoms: C_3  and  C_4
REMARK    3  A    between atoms: C_3  and  C_5
REMARK    4  A    between atoms: C_3  and  C_6
REMARK                            x       y       z     vdW  Elec       q    Type
REMARK                         _______ _______ _______ _____ _____    ______ ____
ROOT
ATOM      1  C   UNL     1       0.975   4.448 -20.353  0.00  0.00    +0.000 C 
ATOM      2  H   UNL     1       0.693   4.766 -21.365  0.00  0.00    +0.000 HD
ENDROOT
BRANCH   1   3
ATOM      3  C   UNL     1       0.851   5.627 -19.397  0.00  0.00    +0.000 C 
ATOM      4  H   UNL     1       0.254   6.431 -19.840  0.00  0.00    +0.000 HD
ATOM      5  H   UNL     1       1.834   6.034 -19.137  0.00  0.00    +0.000 HD
ATOM      6  H   UNL     1       0.367   5.322 -18.463  0.00  0.00    +0.000 HD
ENDBRANCH   1   3
BRANCH   1   7
ATOM      7  C   UNL     1       2.415   3.944 -20.415  0.00  0.00    +0.000 C 
ATOM      8  H   UNL     1       2.610   3.194 -19.642  0.00  0.00    +0.000 HD
ATOM      9  H   UNL     1       3.123   4.768 -20.276  0.00  0.00    +0.000 HD
ATOM     10  H   UNL     1       2.622   3.478 -21.385  0.00  0.00    +0.000 HD
ENDBRANCH   1   7
BRANCH   1  12
ATOM     11  O   UNL     1      -0.432   2.477 -20.656  0.00  0.00    +0.000 OA
ATOM     12  C   UNL     1       0.037   3.338 -19.926  0.00  0.00    +0.000 C 
BRANCH  12  13
ATOM     13  O   UNL     1      -0.218   3.414 -18.594  0.00  0.00    +0.000 OA
ATOM     14  H   UNL     1       0.601   3.335 -18.061  0.00  0.00    +0.000 HD
ENDBRANCH  12  13
ENDBRANCH   1  12
TORSDOF 4
ENDMDL
