MODEL 1
REMARK VINA RESULT:    -3.702      0.000      0.000
REMARK INTER + INTRA:          -4.533
REMARK INTER:                  -4.459
REMARK INTRA:                  -0.074
REMARK UNBOUND:                -0.074
REMARK  Name = 10430
REMARK  5 active torsions:
REMARK  status: ('A' for Active; 'I' for Inactive)
REMARK    1  A    between atoms: O_1  and  C_7
REMARK    2  A    between atoms: C_3  and  C_4
REMARK    3  A    between atoms: C_3  and  C_5
REMARK    4  A    between atoms: C_3  and  C_6
REMARK    5  A    between atoms: C_4  and  C_7
REMARK                            x       y       z     vdW  Elec       q    Type
REMARK                         _______ _______ _______ _____ _____    ______ ____
ROOT
ATOM      1  C   UNL     1      17.953  -5.851  -4.210  0.00  0.00    +0.000 C 
ATOM      2  H   UNL     1      17.595  -4.853  -4.489  0.00  0.00    +0.000 HD
ENDROOT
BRANCH   1   3
ATOM      3  C   UNL     1      17.497  -6.838  -5.287  0.00  0.00    +0.000 C 
ATOM      4  H   UNL     1      17.425  -6.360  -6.268  0.00  0.00    +0.000 HD
ATOM      5  H   UNL     1      16.519  -7.270  -5.044  0.00  0.00    +0.000 HD
ATOM      6  H   UNL     1      18.213  -7.662  -5.382  0.00  0.00    +0.000 HD
ENDBRANCH   1   3
BRANCH   1   7
ATOM      7  C   UNL     1      19.482  -5.811  -4.160  0.00  0.00    +0.000 C 
ATOM      8  H   UNL     1      19.913  -6.793  -4.385  0.00  0.00    +0.000 HD
ATOM      9  H   UNL     1      19.878  -5.091  -4.885  0.00  0.00    +0.000 HD
ATOM     10  H   UNL     1      19.828  -5.509  -3.165  0.00  0.00    +0.000 HD
ENDBRANCH   1   7
BRANCH   1  11
ATOM     11  C   UNL     1      17.356  -6.244  -2.850  0.00  0.00    +0.000 C 
ATOM     12  H   UNL     1      17.887  -5.743  -2.031  0.00  0.00    +0.000 HD
ATOM     13  H   UNL     1      17.469  -7.323  -2.682  0.00  0.00    +0.000 HD
BRANCH  11  15
ATOM     14  O   UNL     1      14.973  -6.715  -2.627  0.00  0.00    +0.000 OA
ATOM     15  C   UNL     1      15.888  -5.912  -2.729  0.00  0.00    +0.000 C 
BRANCH  15  16
ATOM     16  O   UNL     1      15.713  -4.566  -2.713  0.00  0.00    +0.000 OA
ATOM     17  H   UNL     1      15.025  -4.279  -3.350  0.00  0.00    +0.000 HD
ENDBRANCH  15  16
ENDBRANCH  11  15
ENDBRANCH   1  11
TORSDOF 5
ENDMDL
MODEL 2
REMARK VINA RESULT:    -3.687     33.605     34.515
REMARK INTER + INTRA:          -4.515
REMARK INTER:                  -4.444
REMARK INTRA:                  -0.071
REMARK UNBOUND:                -0.074
REMARK  Name = 10430
REMARK  5 active torsions:
REMARK  status: ('A' for Active; 'I' for Inactive)
REMARK    1  A    between atoms: O_1  and  C_7
REMARK    2  A    between atoms: C_3  and  C_4
REMARK    3  A    between atoms: C_3  and  C_5
REMARK    4  A    between atoms: C_3  and  C_6
REMARK    5  A    between atoms: C_4  and  C_7
REMARK                            x       y       z     vdW  Elec       q    Type
REMARK                         _______ _______ _______ _____ _____    ______ ____
ROOT
ATOM      1  C   UNL     1     -14.571 -15.626   4.008  0.00  0.00    +0.000 C 
ATOM      2  H   UNL     1     -13.884 -15.535   3.158  0.00  0.00    +0.000 HD
ENDROOT
BRANCH   1   3
ATOM      3  C   UNL     1     -14.372 -17.007   4.636  0.00  0.00    +0.000 C 
ATOM      4  H   UNL     1     -13.488 -17.510   4.231  0.00  0.00    +0.000 HD
ATOM      5  H   UNL     1     -15.241 -17.652   4.468  0.00  0.00    +0.000 HD
ATOM      6  H   UNL     1     -14.224 -16.920   5.719  0.00  0.00    +0.000 HD
ENDBRANCH   1   3
BRANCH   1   7
ATOM      7  C   UNL     1     -14.216 -14.538   5.025  0.00  0.00    +0.000 C 
ATOM      8  H   UNL     1     -13.765 -13.668   4.534  0.00  0.00    +0.000 HD
ATOM      9  H   UNL     1     -15.108 -14.201   5.564  0.00  0.00    +0.000 HD
ATOM     10  H   UNL     1     -13.501 -14.919   5.763  0.00  0.00    +0.000 HD
ENDBRANCH   1   7
BRANCH   1  11
ATOM     11  C   UNL     1     -16.018 -15.479   3.511  0.00  0.00    +0.000 C 
ATOM     12  H   UNL     1     -16.401 -14.472   3.716  0.00  0.00    +0.000 HD
ATOM     13  H   UNL     1     -16.676 -16.179   4.042  0.00  0.00    +0.000 HD
BRANCH  11  15
ATOM     14  O   UNL     1     -17.098 -16.320   1.492  0.00  0.00    +0.000 OA
ATOM     15  C   UNL     1     -16.166 -15.744   2.031  0.00  0.00    +0.000 C 
BRANCH  15  16
ATOM     16  O   UNL     1     -15.115 -15.214   1.354  0.00  0.00    +0.000 OA
ATOM     17  H   UNL     1     -15.247 -14.261   1.163  0.00  0.00    +0.000 HD
ENDBRANCH  15  16
ENDBRANCH  11  15
ENDBRANCH   1  11
TORSDOF 5
ENDMDL
MODEL 3
REMARK VINA RESULT:    -3.481     25.016     25.628
REMARK INTER + INTRA:          -4.267
REMARK INTER:                  -4.216
REMARK INTRA:                  -0.051
REMARK UNBOUND:                -0.074
REMARK  Name = 10430
REMARK  5 active torsions:
REMARK  status: ('A' for Active; 'I' for Inactive)
REMARK    1  A    between atoms: O_1  and  C_7
REMARK    2  A    between atoms: C_3  and  C_4
REMARK    3  A    between atoms: C_3  and  C_5
REMARK    4  A    between atoms: C_3  and  C_6
REMARK    5  A    between atoms: C_4  and  C_7
REMARK                            x       y       z     vdW  Elec       q    Type
REMARK                         _______ _______ _______ _____ _____    ______ ____
ROOT
ATOM      1  C   UNL     1       1.392   2.428 -20.466  0.00  0.00    +0.000 C 
ATOM      2  H   UNL     1       0.984   1.562 -19.931  0.00  0.00    +0.000 HD
ENDROOT
BRANCH   1   3
ATOM      3  C   UNL     1       0.842   3.696 -19.810  0.00  0.00    +0.000 C 
ATOM      4  H   UNL     1       1.539   4.101 -19.070  0.00  0.00    +0.000 HD
ATOM      5  H   UNL     1      -0.114   3.505 -19.311  0.00  0.00    +0.000 HD
ATOM      6  H   UNL     1       0.679   4.478 -20.560  0.00  0.00    +0.000 HD
ENDBRANCH   1   3
BRANCH   1   7
ATOM      7  C   UNL     1       2.917   2.394 -20.332  0.00  0.00    +0.000 C 
ATOM      8  H   UNL     1       3.248   1.499 -19.793  0.00  0.00    +0.000 HD
ATOM      9  H   UNL     1       3.395   2.395 -21.318  0.00  0.00    +0.000 HD
ATOM     10  H   UNL     1       3.275   3.272 -19.784  0.00  0.00    +0.000 HD
ENDBRANCH   1   7
BRANCH   1  11
ATOM     11  C   UNL     1       0.957   2.367 -21.938  0.00  0.00    +0.000 C 
ATOM     12  H   UNL     1       1.746   1.929 -22.562  0.00  0.00    +0.000 HD
ATOM     13  H   UNL     1       0.778   3.378 -22.325  0.00  0.00    +0.000 HD
BRANCH  11  15
ATOM     14  O   UNL     1      -1.450   1.976 -22.030  0.00  0.00    +0.000 OA
ATOM     15  C   UNL     1      -0.306   1.565 -22.150  0.00  0.00    +0.000 C 
BRANCH  15  16
ATOM     16  O   UNL     1       0.003   0.300 -22.537  0.00  0.00    +0.000 OA
ATOM     17  H   UNL     1      -0.682  -0.078 -23.128  0.00  0.00    +0.000 HD
ENDBRANCH  15  16
ENDBRANCH  11  15
ENDBRANCH   1  11
TORSDOF 5
ENDMDL
MODEL 4
REMARK VINA RESULT:    -3.394     24.253     24.848
REMARK INTER + INTRA:          -4.162
REMARK INTER:                  -4.085
REMARK INTRA:                  -0.077
REMARK UNBOUND:                -0.074
REMARK  Name = 10430
REMARK  5 active torsions:
REMARK  status: ('A' for Active; 'I' for Inactive)
REMARK    1  A    between atoms: O_1  and  C_7
REMARK    2  A    between atoms: C_3  and  C_4
REMARK    3  A    between atoms: C_3  and  C_5
REMARK    4  A    between atoms: C_3  and  C_6
REMARK    5  A    between atoms: C_4  and  C_7
REMARK                            x       y       z     vdW  Elec       q    Type
REMARK                         _______ _______ _______ _____ _____    ______ ____
ROOT
ATOM      1  C   UNL     1      13.422  16.820 -11.078  0.00  0.00    +0.000 C 
ATOM      2  H   UNL     1      13.468  16.313 -10.106  0.00  0.00    +0.000 HD
ENDROOT
BRANCH   1   3
ATOM      3  C   UNL     1      12.782  15.863 -12.085  0.00  0.00    +0.000 C 
ATOM      4  H   UNL     1      11.725  16.096 -12.247  0.00  0.00    +0.000 HD
ATOM      5  H   UNL     1      12.856  14.822 -11.749  0.00  0.00    +0.000 HD
ATOM      6  H   UNL     1      13.281  15.937 -13.058  0.00  0.00    +0.000 HD
ENDBRANCH   1   3
BRANCH   1   7
ATOM      7  C   UNL     1      12.549  18.067 -10.922  0.00  0.00    +0.000 C 
ATOM      8  H   UNL     1      12.210  18.439 -11.896  0.00  0.00    +0.000 HD
ATOM      9  H   UNL     1      11.663  17.850 -10.313  0.00  0.00    +0.000 HD
ATOM     10  H   UNL     1      13.106  18.870 -10.428  0.00  0.00    +0.000 HD
ENDBRANCH   1   7
BRANCH   1  11
ATOM     11  C   UNL     1      14.845  17.184 -11.529  0.00  0.00    +0.000 C 
ATOM     12  H   UNL     1      14.820  17.840 -12.408  0.00  0.00    +0.000 HD
ATOM     13  H   UNL     1      15.392  16.281 -11.828  0.00  0.00    +0.000 HD
BRANCH  11  15
ATOM     14  O   UNL     1      16.018  19.039 -10.463  0.00  0.00    +0.000 OA
ATOM     15  C   UNL     1      15.650  17.874 -10.453  0.00  0.00    +0.000 C 
BRANCH  15  16
ATOM     16  O   UNL     1      15.891  17.016  -9.428  0.00  0.00    +0.000 OA
ATOM     17  H   UNL     1      15.147  16.393  -9.291  0.00  0.00    +0.000 HD
ENDBRANCH  15  16
ENDBRANCH  11  15
ENDBRANCH   1  11
TORSDOF 5
ENDMDL
MODEL 5
REMARK VINA RESULT:    -3.374     25.780     26.259
REMARK INTER + INTRA:          -4.139
REMARK INTER:                  -4.088
REMARK INTRA:                  -0.051
REMARK UNBOUND:                -0.074
REMARK  Name = 10430
REMARK  5 active torsions:
REMARK  status: ('A' for Active; 'I' for Inactive)
REMARK    1  A    between atoms: O_1  and  C_7
REMARK    2  A    between atoms: C_3  and  C_4
REMARK    3  A    between atoms: C_3  and  C_5
REMARK    4  A    between atoms: C_3  and  C_6
REMARK    5  A    between atoms: C_4  and  C_7
REMARK                            x       y       z     vdW  Elec       q    Type
REMARK                         _______ _______ _______ _____ _____    ______ ____
ROOT
ATOM      1  C   UNL     1      12.687  17.866 -11.586  0.00  0.00    +0.000 C 
ATOM      2  H   UNL     1      11.848  17.670 -12.265  0.00  0.00    +0.000 HD
ENDROOT
BRANCH   1   3
ATOM      3  C   UNL     1      13.192  16.523 -11.053  0.00  0.00    +0.000 C 
ATOM      4  H   UNL     1      13.306  16.539  -9.965  0.00  0.00    +0.000 HD
ATOM      5  H   UNL     1      14.158  16.256 -11.495  0.00  0.00    +0.000 HD
ATOM      6  H   UNL     1      12.481  15.724 -11.290  0.00  0.00    +0.000 HD
ENDBRANCH   1   3
BRANCH   1   7
ATOM      7  C   UNL     1      13.795  18.554 -12.387  0.00  0.00    +0.000 C 
ATOM      8  H   UNL     1      13.588  18.519 -13.463  0.00  0.00    +0.000 HD
ATOM      9  H   UNL     1      13.894  19.605 -12.094  0.00  0.00    +0.000 HD
ATOM     10  H   UNL     1      14.759  18.065 -12.212  0.00  0.00    +0.000 HD
ENDBRANCH   1   7
BRANCH   1  11
ATOM     11  C   UNL     1      12.206  18.746 -10.423  0.00  0.00    +0.000 C 
ATOM     12  H   UNL     1      12.910  19.567 -10.236  0.00  0.00    +0.000 HD
ATOM     13  H   UNL     1      12.156  18.159  -9.497  0.00  0.00    +0.000 HD
BRANCH  11  15
ATOM     14  O   UNL     1      10.232  19.361 -11.719  0.00  0.00    +0.000 OA
ATOM     15  C   UNL     1      10.840  19.346 -10.659  0.00  0.00    +0.000 C 
BRANCH  15  16
ATOM     16  O   UNL     1      10.345  19.852  -9.501  0.00  0.00    +0.000 OA
ATOM     17  H   UNL     1      10.461  19.230  -8.752  0.00  0.00    +0.000 HD
ENDBRANCH  15  16
ENDBRANCH  11  15
ENDBRANCH   1  11
TORSDOF 5
ENDMDL
MODEL 6
REMARK VINA RESULT:    -3.366     25.164     25.701
REMARK INTER + INTRA:          -4.128
REMARK INTER:                  -4.075
REMARK INTRA:                  -0.053
REMARK UNBOUND:                -0.074
REMARK  Name = 10430
REMARK  5 active torsions:
REMARK  status: ('A' for Active; 'I' for Inactive)
REMARK    1  A    between atoms: O_1  and  C_7
REMARK    2  A    between atoms: C_3  and  C_4
REMARK    3  A    between atoms: C_3  and  C_5
REMARK    4  A    between atoms: C_3  and  C_6
REMARK    5  A    between atoms: C_4  and  C_7
REMARK                            x       y       z     vdW  Elec       q    Type
REMARK                         _______ _______ _______ _____ _____    ______ ____
ROOT
ATOM      1  C   UNL     1       1.049   4.565 -20.332  0.00  0.00    +0.000 C 
ATOM      2  H   UNL     1       0.685   4.755 -21.349  0.00  0.00    +0.000 HD
ENDROOT
BRANCH   1   3
ATOM      3  C   UNL     1       2.543   4.246 -20.414  0.00  0.00    +0.000 C 
ATOM      4  H   UNL     1       3.083   4.613 -19.535  0.00  0.00    +0.000 HD
ATOM      5  H   UNL     1       2.999   4.692 -21.305  0.00  0.00    +0.000 HD
ATOM      6  H   UNL     1       2.704   3.163 -20.461  0.00  0.00    +0.000 HD
ENDBRANCH   1   3
BRANCH   1   7
ATOM      7  C   UNL     1       0.835   5.836 -19.506  0.00  0.00    +0.000 C 
ATOM      8  H   UNL     1       1.181   5.702 -18.474  0.00  0.00    +0.000 HD
ATOM      9  H   UNL     1       1.382   6.681 -19.941  0.00  0.00    +0.000 HD
ATOM     10  H   UNL     1      -0.226   6.103 -19.476  0.00  0.00    +0.000 HD
ENDBRANCH   1   7
BRANCH   1  11
ATOM     11  C   UNL     1       0.289   3.372 -19.733  0.00  0.00    +0.000 C 
ATOM     12  H   UNL     1      -0.415   3.704 -18.960  0.00  0.00    +0.000 HD
ATOM     13  H   UNL     1       0.988   2.682 -19.244  0.00  0.00    +0.000 HD
BRANCH  11  15
ATOM     14  O   UNL     1      -0.056   1.664 -21.442  0.00  0.00    +0.000 OA
ATOM     15  C   UNL     1      -0.486   2.585 -20.764  0.00  0.00    +0.000 C 
BRANCH  15  16
ATOM     16  O   UNL     1      -1.770   3.023 -20.817  0.00  0.00    +0.000 OA
ATOM     17  H   UNL     1      -1.823   3.965 -21.084  0.00  0.00    +0.000 HD
ENDBRANCH  15  16
ENDBRANCH  11  15
ENDBRANCH   1  11
TORSDOF 5
ENDMDL
MODEL 7
REMARK VINA RESULT:    -3.325     25.557     26.773
REMARK INTER + INTRA:          -4.079
REMARK INTER:                  -4.016
REMARK INTRA:                  -0.063
REMARK UNBOUND:                -0.074
REMARK  Name = 10430
REMARK  5 active torsions:
REMARK  status: ('A' for Active; 'I' for Inactive)
REMARK    1  A    between atoms: O_1  and  C_7
REMARK    2  A    between atoms: C_3  and  C_4
REMARK    3  A    between atoms: C_3  and  C_5
REMARK    4  A    between atoms: C_3  and  C_6
REMARK    5  A    between atoms: C_4  and  C_7
REMARK                            x       y       z     vdW  Elec       q    Type
REMARK                         _______ _______ _______ _____ _____    ______ ____
ROOT
ATOM      1  C   UNL     1      -6.688 -13.485   3.760  0.00  0.00    +0.000 C 
ATOM      2  H   UNL     1      -6.272 -14.426   4.138  0.00  0.00    +0.000 HD
ENDROOT
BRANCH   1   3
ATOM      3  C   UNL     1      -5.561 -12.451   3.715  0.00  0.00    +0.000 C 
ATOM      4  H   UNL     1      -4.702 -12.815   3.142  0.00  0.00    +0.000 HD
ATOM      5  H   UNL     1      -5.216 -12.192   4.722  0.00  0.00    +0.000 HD
ATOM      6  H   UNL     1      -5.903 -11.529   3.230  0.00  0.00    +0.000 HD
ENDBRANCH   1   3
BRANCH   1   7
ATOM      7  C   UNL     1      -7.218 -13.734   2.346  0.00  0.00    +0.000 C 
ATOM      8  H   UNL     1      -7.783 -14.672   2.293  0.00  0.00    +0.000 HD
ATOM      9  H   UNL     1      -7.880 -12.920   2.028  0.00  0.00    +0.000 HD
ATOM     10  H   UNL     1      -6.393 -13.794   1.629  0.00  0.00    +0.000 HD
ENDBRANCH   1   7
BRANCH   1  11
ATOM     11  C   UNL     1      -7.803 -13.006   4.702  0.00  0.00    +0.000 C 
ATOM     12  H   UNL     1      -8.790 -13.151   4.246  0.00  0.00    +0.000 HD
ATOM     13  H   UNL     1      -7.703 -11.930   4.895  0.00  0.00    +0.000 HD
BRANCH  11  15
ATOM     14  O   UNL     1      -7.849 -13.181   7.135  0.00  0.00    +0.000 OA
ATOM     15  C   UNL     1      -7.795 -13.713   6.037  0.00  0.00    +0.000 C 
BRANCH  15  16
ATOM     16  O   UNL     1      -7.755 -15.058   5.853  0.00  0.00    +0.000 OA
ATOM     17  H   UNL     1      -7.639 -15.539   6.699  0.00  0.00    +0.000 HD
ENDBRANCH  15  16
ENDBRANCH  11  15
ENDBRANCH   1  11
TORSDOF 5
ENDMDL
MODEL 8
REMARK VINA RESULT:    -3.314     24.718     25.523
REMARK INTER + INTRA:          -4.065
REMARK INTER:                  -4.022
REMARK INTRA:                  -0.043
REMARK UNBOUND:                -0.074
REMARK  Name = 10430
REMARK  5 active torsions:
REMARK  status: ('A' for Active; 'I' for Inactive)
REMARK    1  A    between atoms: O_1  and  C_7
REMARK    2  A    between atoms: C_3  and  C_4
REMARK    3  A    between atoms: C_3  and  C_5
REMARK    4  A    between atoms: C_3  and  C_6
REMARK    5  A    between atoms: C_4  and  C_7
REMARK                            x       y       z     vdW  Elec       q    Type
REMARK                         _______ _______ _______ _____ _____    ______ ____
ROOT
ATOM      1  C   UNL     1      -7.136 -14.018   1.824  0.00  0.00    +0.000 C 
ATOM      2  H   UNL     1      -8.019 -13.604   2.325  0.00  0.00    +0.000 HD
ENDROOT
BRANCH   1   3
ATOM      3  C   UNL     1      -7.310 -15.535   1.730  0.00  0.00    +0.000 C 
ATOM      4  H   UNL     1      -6.360 -16.060   1.871  0.00  0.00    +0.000 HD
ATOM      5  H   UNL     1      -7.723 -15.831   0.759  0.00  0.00    +0.000 HD
ATOM      6  H   UNL     1      -7.994 -15.893   2.508  0.00  0.00    +0.000 HD
ENDBRANCH   1   3
BRANCH   1   7
ATOM      7  C   UNL     1      -7.062 -13.417   0.418  0.00  0.00    +0.000 C 
ATOM      8  H   UNL     1      -6.222 -13.835  -0.149  0.00  0.00    +0.000 HD
ATOM      9  H   UNL     1      -7.983 -13.617  -0.141  0.00  0.00    +0.000 HD
ATOM     10  H   UNL     1      -6.929 -12.331   0.469  0.00  0.00    +0.000 HD
ENDBRANCH   1   7
BRANCH   1  11
ATOM     11  C   UNL     1      -5.880 -13.683   2.644  0.00  0.00    +0.000 C 
ATOM     12  H   UNL     1      -5.096 -13.261   2.004  0.00  0.00    +0.000 HD
ATOM     13  H   UNL     1      -5.463 -14.595   3.090  0.00  0.00    +0.000 HD
BRANCH  11  15
ATOM     14  O   UNL     1      -7.044 -12.782   4.590  0.00  0.00    +0.000 OA
ATOM     15  C   UNL     1      -6.147 -12.705   3.764  0.00  0.00    +0.000 C 
BRANCH  15  16
ATOM     16  O   UNL     1      -5.215 -11.718   3.755  0.00  0.00    +0.000 OA
ATOM     17  H   UNL     1      -5.593 -10.862   3.463  0.00  0.00    +0.000 HD
ENDBRANCH  15  16
ENDBRANCH  11  15
ENDBRANCH   1  11
TORSDOF 5
ENDMDL
MODEL 9
REMARK VINA RESULT:    -3.308     27.478     28.000
REMARK INTER + INTRA:          -4.059
REMARK INTER:                  -3.985
REMARK INTRA:                  -0.074
REMARK UNBOUND:                -0.074
REMARK  Name = 10430
REMARK  5 active torsions:
REMARK  status: ('A' for Active; 'I' for Inactive)
REMARK    1  A    between atoms: O_1  and  C_7
REMARK    2  A    between atoms: C_3  and  C_4
REMARK    3  A    between atoms: C_3  and  C_5
REMARK    4  A    between atoms: C_3  and  C_6
REMARK    5  A    between atoms: C_4  and  C_7
REMARK                            x       y       z     vdW  Elec       q    Type
REMARK                         _______ _______ _______ _____ _____    ______ ____
ROOT
ATOM      1  C   UNL     1      11.147  19.410 -10.476  0.00  0.00    +0.000 C 
ATOM      2  H   UNL     1      10.395  18.993  -9.795  0.00  0.00    +0.000 HD
ENDROOT
BRANCH   1   3
ATOM      3  C   UNL     1      12.495  18.763 -10.149  0.00  0.00    +0.000 C 
ATOM      4  H   UNL     1      12.444  18.164  -9.235  0.00  0.00    +0.000 HD
ATOM      5  H   UNL     1      13.279  19.517 -10.021  0.00  0.00    +0.000 HD
ATOM      6  H   UNL     1      12.805  18.091 -10.957  0.00  0.00    +0.000 HD
ENDBRANCH   1   3
BRANCH   1   7
ATOM      7  C   UNL     1      10.738  19.058 -11.908  0.00  0.00    +0.000 C 
ATOM      8  H   UNL     1      10.469  19.956 -12.476  0.00  0.00    +0.000 HD
ATOM      9  H   UNL     1      11.555  18.554 -12.435  0.00  0.00    +0.000 HD
ATOM     10  H   UNL     1       9.873  18.386 -11.908  0.00  0.00    +0.000 HD
ENDBRANCH   1   7
BRANCH   1  11
ATOM     11  C   UNL     1      11.231  20.930 -10.273  0.00  0.00    +0.000 C 
ATOM     12  H   UNL     1      11.284  21.451 -11.238  0.00  0.00    +0.000 HD
ATOM     13  H   UNL     1      12.145  21.192  -9.726  0.00  0.00    +0.000 HD
BRANCH  11  15
ATOM     14  O   UNL     1       9.736  22.668  -9.437  0.00  0.00    +0.000 OA
ATOM     15  C   UNL     1      10.059  21.491  -9.503  0.00  0.00    +0.000 C 
BRANCH  15  16
ATOM     16  O   UNL     1       9.370  20.487  -8.903  0.00  0.00    +0.000 OA
ATOM     17  H   UNL     1       9.346  20.592  -7.929  0.00  0.00    +0.000 HD
ENDBRANCH  15  16
ENDBRANCH  11  15
ENDBRANCH   1  11
TORSDOF 5
ENDMDL
MODEL 10
REMARK VINA RESULT:    -3.261     24.130     24.674
REMARK INTER + INTRA:          -4.002
REMARK INTER:                  -4.028
REMARK INTRA:                   0.026
REMARK UNBOUND:                -0.074
REMARK  Name = 10430
REMARK  5 active torsions:
REMARK  status: ('A' for Active; 'I' for Inactive)
REMARK    1  A    between atoms: O_1  and  C_7
REMARK    2  A    between atoms: C_3  and  C_4
REMARK    3  A    between atoms: C_3  and  C_5
REMARK    4  A    between atoms: C_3  and  C_6
REMARK    5  A    between atoms: C_4  and  C_7
REMARK                            x       y       z     vdW  Elec       q    Type
REMARK                         _______ _______ _______ _____ _____    ______ ____
ROOT
ATOM      1  C   UNL     1       2.552   3.738 -20.691  0.00  0.00    +0.000 C 
ATOM      2  H   UNL     1       2.330   3.694 -21.764  0.00  0.00    +0.000 HD
ENDROOT
BRANCH   1   3
ATOM      3  C   UNL     1       2.799   2.311 -20.197  0.00  0.00    +0.000 C 
ATOM      4  H   UNL     1       1.939   1.923 -19.642  0.00  0.00    +0.000 HD
ATOM      5  H   UNL     1       3.678   2.260 -19.545  0.00  0.00    +0.000 HD
ATOM      6  H   UNL     1       2.968   1.635 -21.042  0.00  0.00    +0.000 HD
ENDBRANCH   1   3
BRANCH   1   7
ATOM      7  C   UNL     1       3.819   4.577 -20.503  0.00  0.00    +0.000 C 
ATOM      8  H   UNL     1       4.090   5.100 -21.427  0.00  0.00    +0.000 HD
ATOM      9  H   UNL     1       3.676   5.327 -19.717  0.00  0.00    +0.000 HD
ATOM     10  H   UNL     1       4.662   3.942 -20.212  0.00  0.00    +0.000 HD
ENDBRANCH   1   7
BRANCH   1  11
ATOM     11  C   UNL     1       1.356   4.352 -19.948  0.00  0.00    +0.000 C 
ATOM     12  H   UNL     1       1.043   5.292 -20.421  0.00  0.00    +0.000 HD
ATOM     13  H   UNL     1       1.634   4.599 -18.916  0.00  0.00    +0.000 HD
BRANCH  11  15
ATOM     14  O   UNL     1      -0.361   2.868 -20.844  0.00  0.00    +0.000 OA
ATOM     15  C   UNL     1       0.157   3.434 -19.893  0.00  0.00    +0.000 C 
BRANCH  15  16
ATOM     16  O   UNL     1      -0.261   3.288 -18.610  0.00  0.00    +0.000 OA
ATOM     17  H   UNL     1       0.488   3.310 -17.977  0.00  0.00    +0.000 HD
ENDBRANCH  15  16
ENDBRANCH  11  15
ENDBRANCH   1  11
TORSDOF 5
ENDMDL
