MODEL 1
REMARK VINA RESULT:    -4.770      0.000      0.000
REMARK INTER + INTRA:          -6.786
REMARK INTER:                  -6.451
REMARK INTRA:                  -0.335
REMARK UNBOUND:                -0.343
REMARK  Name = 6549
REMARK  8 active torsions:
REMARK  status: ('A' for Active; 'I' for Inactive)
REMARK    1  A    between atoms: O_1  and  C_2
REMARK    2  A    between atoms: C_2  and  C_3
REMARK    3  A    between atoms: C_2  and  C_5
REMARK    4  A    between atoms: C_2  and  C_6
REMARK    5  A    between atoms: C_3  and  C_4
REMARK    6  A    between atoms: C_4  and  C_7
REMARK    7  A    between atoms: C_8  and  C_9
REMARK    8  A    between atoms: C_8  and  C_10
REMARK                            x       y       z     vdW  Elec       q    Type
REMARK                         _______ _______ _______ _____ _____    ______ ____
ROOT
ATOM      1  C   UNL     1      -7.231 -13.085   5.262  0.00  0.00    +0.000 C 
ATOM      2  H   UNL     1      -6.573 -13.164   6.140  0.00  0.00    +0.000 HD
ATOM      3  H   UNL     1      -7.513 -12.023   5.224  0.00  0.00    +0.000 HD
ENDROOT
BRANCH   1   4
ATOM      4  C   UNL     1      -8.482 -13.941   5.484  0.00  0.00    +0.000 C 
ATOM      5  H   UNL     1      -8.824 -14.401   4.551  0.00  0.00    +0.000 HD
ATOM      6  H   UNL     1      -9.315 -13.312   5.821  0.00  0.00    +0.000 HD
BRANCH   4   7
ATOM      7  C   UNL     1      -8.246 -14.976   6.548  0.00  0.00    +0.000 C 
ATOM      8  C   UNL     1      -8.805 -16.199   6.642  0.00  0.00    +0.000 C 
ATOM      9  H   UNL     1      -7.531 -14.688   7.316  0.00  0.00    +0.000 HD
BRANCH   8  10
ATOM     10  C   UNL     1      -8.525 -17.193   7.733  0.00  0.00    +0.000 C 
ATOM     11  H   UNL     1      -8.898 -16.822   8.692  0.00  0.00    +0.000 HD
ATOM     12  H   UNL     1      -7.449 -17.369   7.819  0.00  0.00    +0.000 HD
ATOM     13  H   UNL     1      -9.008 -18.155   7.534  0.00  0.00    +0.000 HD
ENDBRANCH   8  10
BRANCH   8  14
ATOM     14  C   UNL     1      -9.780 -16.675   5.598  0.00  0.00    +0.000 C 
ATOM     15  H   UNL     1     -10.103 -15.831   4.979  0.00  0.00    +0.000 HD
ATOM     16  H   UNL     1      -9.394 -17.451   4.934  0.00  0.00    +0.000 HD
ATOM     17  H   UNL     1     -10.667 -17.098   6.084  0.00  0.00    +0.000 HD
ENDBRANCH   8  14
ENDBRANCH   4   7
ENDBRANCH   1   4
BRANCH   1  18
ATOM     18  C   UNL     1      -6.418 -13.428   3.989  0.00  0.00    +0.000 C 
BRANCH  18  19
ATOM     19  C   UNL     1      -7.334 -13.859   2.862  0.00  0.00    +0.000 C 
ATOM     20  C   UNL     1      -7.167 -13.647   1.551  0.00  0.00    +0.000 C 
ATOM     21  H   UNL     1      -8.221 -14.415   3.161  0.00  0.00    +0.000 HD
ATOM     22  H   UNL     1      -7.901 -14.018   0.843  0.00  0.00    +0.000 HD
ATOM     23  H   UNL     1      -6.316 -13.111   1.151  0.00  0.00    +0.000 HD
ENDBRANCH  18  19
BRANCH  18  24
ATOM     24  C   UNL     1      -5.445 -12.297   3.635  0.00  0.00    +0.000 C 
ATOM     25  H   UNL     1      -4.427 -12.549   3.954  0.00  0.00    +0.000 HD
ATOM     26  H   UNL     1      -5.390 -12.151   2.549  0.00  0.00    +0.000 HD
ATOM     27  H   UNL     1      -5.721 -11.343   4.095  0.00  0.00    +0.000 HD
ENDBRANCH  18  24
BRANCH  18  28
ATOM     28  O   UNL     1      -5.592 -14.560   4.313  0.00  0.00    +0.000 OA
ATOM     29  H   UNL     1      -5.689 -14.747   5.263  0.00  0.00    +0.000 HD
ENDBRANCH  18  28
ENDBRANCH   1  18
TORSDOF 8
ENDMDL
MODEL 2
REMARK VINA RESULT:    -4.757     25.297     27.050
REMARK INTER + INTRA:          -6.768
REMARK INTER:                  -6.314
REMARK INTRA:                  -0.454
REMARK UNBOUND:                -0.343
REMARK  Name = 6549
REMARK  8 active torsions:
REMARK  status: ('A' for Active; 'I' for Inactive)
REMARK    1  A    between atoms: O_1  and  C_2
REMARK    2  A    between atoms: C_2  and  C_3
REMARK    3  A    between atoms: C_2  and  C_5
REMARK    4  A    between atoms: C_2  and  C_6
REMARK    5  A    between atoms: C_3  and  C_4
REMARK    6  A    between atoms: C_4  and  C_7
REMARK    7  A    between atoms: C_8  and  C_9
REMARK    8  A    between atoms: C_8  and  C_10
REMARK                            x       y       z     vdW  Elec       q    Type
REMARK                         _______ _______ _______ _____ _____    ______ ____
ROOT
ATOM      1  C   UNL     1      17.227  -4.378  -2.634  0.00  0.00    +0.000 C 
ATOM      2  H   UNL     1      17.729  -3.959  -1.750  0.00  0.00    +0.000 HD
ATOM      3  H   UNL     1      17.144  -3.532  -3.331  0.00  0.00    +0.000 HD
ENDROOT
BRANCH   1   4
ATOM      4  C   UNL     1      15.825  -4.858  -2.242  0.00  0.00    +0.000 C 
ATOM      5  H   UNL     1      15.636  -5.876  -2.601  0.00  0.00    +0.000 HD
ATOM      6  H   UNL     1      15.063  -4.233  -2.723  0.00  0.00    +0.000 HD
BRANCH   4   7
ATOM      7  C   UNL     1      15.615  -4.756  -0.758  0.00  0.00    +0.000 C 
ATOM      8  C   UNL     1      15.630  -5.757   0.144  0.00  0.00    +0.000 C 
ATOM      9  H   UNL     1      15.441  -3.746  -0.389  0.00  0.00    +0.000 HD
BRANCH   8  10
ATOM     10  C   UNL     1      15.413  -5.589   1.622  0.00  0.00    +0.000 C 
ATOM     11  H   UNL     1      14.774  -4.723   1.819  0.00  0.00    +0.000 HD
ATOM     12  H   UNL     1      16.370  -5.442   2.132  0.00  0.00    +0.000 HD
ATOM     13  H   UNL     1      14.931  -6.468   2.060  0.00  0.00    +0.000 HD
ENDBRANCH   8  10
BRANCH   8  14
ATOM     14  C   UNL     1      15.892  -7.173  -0.291  0.00  0.00    +0.000 C 
ATOM     15  H   UNL     1      16.457  -7.175  -1.230  0.00  0.00    +0.000 HD
ATOM     16  H   UNL     1      16.444  -7.778   0.433  0.00  0.00    +0.000 HD
ATOM     17  H   UNL     1      14.942  -7.691  -0.465  0.00  0.00    +0.000 HD
ENDBRANCH   8  14
ENDBRANCH   4   7
ENDBRANCH   1   4
BRANCH   1  18
ATOM     18  C   UNL     1      18.137  -5.457  -3.269  0.00  0.00    +0.000 C 
BRANCH  18  19
ATOM     19  C   UNL     1      17.346  -6.356  -4.196  0.00  0.00    +0.000 C 
ATOM     20  C   UNL     1      17.717  -6.816  -5.398  0.00  0.00    +0.000 C 
ATOM     21  H   UNL     1      16.369  -6.668  -3.832  0.00  0.00    +0.000 HD
ATOM     22  H   UNL     1      17.052  -7.462  -5.961  0.00  0.00    +0.000 HD
ATOM     23  H   UNL     1      18.671  -6.569  -5.847  0.00  0.00    +0.000 HD
ENDBRANCH  18  19
BRANCH  18  24
ATOM     24  C   UNL     1      19.389  -4.825  -3.892  0.00  0.00    +0.000 C 
ATOM     25  H   UNL     1      19.841  -5.505  -4.623  0.00  0.00    +0.000 HD
ATOM     26  H   UNL     1      19.134  -3.915  -4.449  0.00  0.00    +0.000 HD
ATOM     27  H   UNL     1      20.148  -4.571  -3.146  0.00  0.00    +0.000 HD
ENDBRANCH  18  24
BRANCH  18  28
ATOM     28  O   UNL     1      18.618  -6.284  -2.195  0.00  0.00    +0.000 OA
ATOM     29  H   UNL     1      19.580  -6.162  -2.122  0.00  0.00    +0.000 HD
ENDBRANCH  18  28
ENDBRANCH   1  18
TORSDOF 8
ENDMDL
MODEL 3
REMARK VINA RESULT:    -4.589     25.391     28.477
REMARK INTER + INTRA:          -6.541
REMARK INTER:                  -6.193
REMARK INTRA:                  -0.348
REMARK UNBOUND:                -0.343
REMARK  Name = 6549
REMARK  8 active torsions:
REMARK  status: ('A' for Active; 'I' for Inactive)
REMARK    1  A    between atoms: O_1  and  C_2
REMARK    2  A    between atoms: C_2  and  C_3
REMARK    3  A    between atoms: C_2  and  C_5
REMARK    4  A    between atoms: C_2  and  C_6
REMARK    5  A    between atoms: C_3  and  C_4
REMARK    6  A    between atoms: C_4  and  C_7
REMARK    7  A    between atoms: C_8  and  C_9
REMARK    8  A    between atoms: C_8  and  C_10
REMARK                            x       y       z     vdW  Elec       q    Type
REMARK                         _______ _______ _______ _____ _____    ______ ____
ROOT
ATOM      1  C   UNL     1      17.355  -6.173  -2.499  0.00  0.00    +0.000 C 
ATOM      2  H   UNL     1      18.288  -6.360  -1.948  0.00  0.00    +0.000 HD
ATOM      3  H   UNL     1      16.786  -7.109  -2.404  0.00  0.00    +0.000 HD
ENDROOT
BRANCH   1   4
ATOM      4  C   UNL     1      17.678  -5.918  -3.975  0.00  0.00    +0.000 C 
ATOM      5  H   UNL     1      17.440  -4.889  -4.265  0.00  0.00    +0.000 HD
ATOM      6  H   UNL     1      17.054  -6.553  -4.614  0.00  0.00    +0.000 HD
BRANCH   4   7
ATOM      7  C   UNL     1      19.112  -6.251  -4.279  0.00  0.00    +0.000 C 
ATOM      8  C   UNL     1      20.169  -5.415  -4.270  0.00  0.00    +0.000 C 
ATOM      9  H   UNL     1      19.297  -7.296  -4.523  0.00  0.00    +0.000 HD
BRANCH   8  10
ATOM     10  C   UNL     1      21.584  -5.811  -4.583  0.00  0.00    +0.000 C 
ATOM     11  H   UNL     1      22.288  -5.175  -4.039  0.00  0.00    +0.000 HD
ATOM     12  H   UNL     1      21.778  -5.713  -5.655  0.00  0.00    +0.000 HD
ATOM     13  H   UNL     1      21.783  -6.850  -4.300  0.00  0.00    +0.000 HD
ENDBRANCH   8  10
BRANCH   8  14
ATOM     14  C   UNL     1      19.991  -3.963  -3.914  0.00  0.00    +0.000 C 
ATOM     15  H   UNL     1      19.775  -3.866  -2.845  0.00  0.00    +0.000 HD
ATOM     16  H   UNL     1      20.851  -3.329  -4.141  0.00  0.00    +0.000 HD
ATOM     17  H   UNL     1      19.144  -3.545  -4.471  0.00  0.00    +0.000 HD
ENDBRANCH   8  14
ENDBRANCH   4   7
ENDBRANCH   1   4
BRANCH   1  18
ATOM     18  C   UNL     1      16.569  -5.041  -1.794  0.00  0.00    +0.000 C 
BRANCH  18  19
ATOM     19  C   UNL     1      15.768  -5.583  -0.628  0.00  0.00    +0.000 C 
ATOM     20  C   UNL     1      15.345  -6.841  -0.445  0.00  0.00    +0.000 C 
ATOM     21  H   UNL     1      15.520  -4.864   0.151  0.00  0.00    +0.000 HD
ATOM     22  H   UNL     1      14.780  -7.100   0.444  0.00  0.00    +0.000 HD
ATOM     23  H   UNL     1      15.544  -7.632  -1.157  0.00  0.00    +0.000 HD
ENDBRANCH  18  19
BRANCH  18  24
ATOM     24  C   UNL     1      17.486  -3.860  -1.454  0.00  0.00    +0.000 C 
ATOM     25  H   UNL     1      17.850  -3.937  -0.423  0.00  0.00    +0.000 HD
ATOM     26  H   UNL     1      18.381  -3.863  -2.089  0.00  0.00    +0.000 HD
ATOM     27  H   UNL     1      16.987  -2.893  -1.569  0.00  0.00    +0.000 HD
ENDBRANCH  18  24
BRANCH  18  28
ATOM     28  O   UNL     1      15.622  -4.531  -2.750  0.00  0.00    +0.000 OA
ATOM     29  H   UNL     1      15.320  -5.270  -3.305  0.00  0.00    +0.000 HD
ENDBRANCH  18  28
ENDBRANCH   1  18
TORSDOF 8
ENDMDL
MODEL 4
REMARK VINA RESULT:    -4.536     25.319     28.074
REMARK INTER + INTRA:          -6.470
REMARK INTER:                  -5.719
REMARK INTRA:                  -0.751
REMARK UNBOUND:                -0.343
REMARK  Name = 6549
REMARK  8 active torsions:
REMARK  status: ('A' for Active; 'I' for Inactive)
REMARK    1  A    between atoms: O_1  and  C_2
REMARK    2  A    between atoms: C_2  and  C_3
REMARK    3  A    between atoms: C_2  and  C_5
REMARK    4  A    between atoms: C_2  and  C_6
REMARK    5  A    between atoms: C_3  and  C_4
REMARK    6  A    between atoms: C_4  and  C_7
REMARK    7  A    between atoms: C_8  and  C_9
REMARK    8  A    between atoms: C_8  and  C_10
REMARK                            x       y       z     vdW  Elec       q    Type
REMARK                         _______ _______ _______ _____ _____    ______ ____
ROOT
ATOM      1  C   UNL     1      17.685  -4.298  -0.964  0.00  0.00    +0.000 C 
ATOM      2  H   UNL     1      17.389  -3.474  -0.299  0.00  0.00    +0.000 HD
ATOM      3  H   UNL     1      18.707  -4.553  -0.649  0.00  0.00    +0.000 HD
ENDROOT
BRANCH   1   4
ATOM      4  C   UNL     1      17.706  -3.800  -2.413  0.00  0.00    +0.000 C 
ATOM      5  H   UNL     1      17.441  -2.739  -2.476  0.00  0.00    +0.000 HD
ATOM      6  H   UNL     1      16.946  -4.325  -3.004  0.00  0.00    +0.000 HD
BRANCH   4   7
ATOM      7  C   UNL     1      19.037  -4.068  -3.057  0.00  0.00    +0.000 C 
ATOM      8  C   UNL     1      19.363  -5.088  -3.874  0.00  0.00    +0.000 C 
ATOM      9  H   UNL     1      19.810  -3.335  -2.831  0.00  0.00    +0.000 HD
BRANCH   8  10
ATOM     10  C   UNL     1      20.717  -5.301  -4.490  0.00  0.00    +0.000 C 
ATOM     11  H   UNL     1      20.618  -5.631  -5.528  0.00  0.00    +0.000 HD
ATOM     12  H   UNL     1      21.273  -6.060  -3.931  0.00  0.00    +0.000 HD
ATOM     13  H   UNL     1      21.310  -4.380  -4.486  0.00  0.00    +0.000 HD
ENDBRANCH   8  10
BRANCH   8  14
ATOM     14  C   UNL     1      18.336  -6.121  -4.253  0.00  0.00    +0.000 C 
ATOM     15  H   UNL     1      18.514  -7.046  -3.692  0.00  0.00    +0.000 HD
ATOM     16  H   UNL     1      17.300  -5.819  -4.081  0.00  0.00    +0.000 HD
ATOM     17  H   UNL     1      18.417  -6.352  -5.321  0.00  0.00    +0.000 HD
ENDBRANCH   8  14
ENDBRANCH   4   7
ENDBRANCH   1   4
BRANCH   1  18
ATOM     18  C   UNL     1      16.767  -5.516  -0.701  0.00  0.00    +0.000 C 
BRANCH  18  19
ATOM     19  C   UNL     1      15.613  -5.545  -1.682  0.00  0.00    +0.000 C 
ATOM     20  C   UNL     1      15.157  -6.599  -2.372  0.00  0.00    +0.000 C 
ATOM     21  H   UNL     1      15.092  -4.600  -1.829  0.00  0.00    +0.000 HD
ATOM     22  H   UNL     1      14.312  -6.484  -3.043  0.00  0.00    +0.000 HD
ATOM     23  H   UNL     1      15.601  -7.583  -2.293  0.00  0.00    +0.000 HD
ENDBRANCH  18  19
BRANCH  18  24
ATOM     24  C   UNL     1      17.580  -6.813  -0.619  0.00  0.00    +0.000 C 
ATOM     25  H   UNL     1      18.521  -6.646  -0.082  0.00  0.00    +0.000 HD
ATOM     26  H   UNL     1      17.041  -7.579  -0.048  0.00  0.00    +0.000 HD
ATOM     27  H   UNL     1      17.817  -7.224  -1.605  0.00  0.00    +0.000 HD
ENDBRANCH  18  24
BRANCH  18  28
ATOM     28  O   UNL     1      16.198  -5.334   0.608  0.00  0.00    +0.000 OA
ATOM     29  H   UNL     1      16.460  -6.089   1.162  0.00  0.00    +0.000 HD
ENDBRANCH  18  28
ENDBRANCH   1  18
TORSDOF 8
ENDMDL
MODEL 5
REMARK VINA RESULT:    -4.504     31.877     32.945
REMARK INTER + INTRA:          -6.426
REMARK INTER:                  -6.097
REMARK INTRA:                  -0.330
REMARK UNBOUND:                -0.343
REMARK  Name = 6549
REMARK  8 active torsions:
REMARK  status: ('A' for Active; 'I' for Inactive)
REMARK    1  A    between atoms: O_1  and  C_2
REMARK    2  A    between atoms: C_2  and  C_3
REMARK    3  A    between atoms: C_2  and  C_5
REMARK    4  A    between atoms: C_2  and  C_6
REMARK    5  A    between atoms: C_3  and  C_4
REMARK    6  A    between atoms: C_4  and  C_7
REMARK    7  A    between atoms: C_8  and  C_9
REMARK    8  A    between atoms: C_8  and  C_10
REMARK                            x       y       z     vdW  Elec       q    Type
REMARK                         _______ _______ _______ _____ _____    ______ ____
ROOT
ATOM      1  C   UNL     1       0.779   5.148 -20.202  0.00  0.00    +0.000 C 
ATOM      2  H   UNL     1       0.120   5.701 -20.887  0.00  0.00    +0.000 HD
ATOM      3  H   UNL     1       0.508   5.515 -19.202  0.00  0.00    +0.000 HD
ENDROOT
BRANCH   1   4
ATOM      4  C   UNL     1       2.239   5.504 -20.501  0.00  0.00    +0.000 C 
ATOM      5  H   UNL     1       2.337   6.016 -21.464  0.00  0.00    +0.000 HD
ATOM      6  H   UNL     1       2.840   4.591 -20.593  0.00  0.00    +0.000 HD
BRANCH   4   7
ATOM      7  C   UNL     1       2.834   6.320 -19.387  0.00  0.00    +0.000 C 
ATOM      8  C   UNL     1       4.058   6.192 -18.840  0.00  0.00    +0.000 C 
ATOM      9  H   UNL     1       2.186   7.104 -18.998  0.00  0.00    +0.000 HD
BRANCH   8  10
ATOM     10  C   UNL     1       4.597   7.043 -17.725  0.00  0.00    +0.000 C 
ATOM     11  H   UNL     1       5.580   6.682 -17.408  0.00  0.00    +0.000 HD
ATOM     12  H   UNL     1       3.920   7.017 -16.866  0.00  0.00    +0.000 HD
ATOM     13  H   UNL     1       4.707   8.088 -18.033  0.00  0.00    +0.000 HD
ENDBRANCH   8  10
BRANCH   8  14
ATOM     14  C   UNL     1       5.017   5.148 -19.347  0.00  0.00    +0.000 C 
ATOM     15  H   UNL     1       4.605   4.670 -20.243  0.00  0.00    +0.000 HD
ATOM     16  H   UNL     1       6.012   5.524 -19.595  0.00  0.00    +0.000 HD
ATOM     17  H   UNL     1       5.161   4.374 -18.585  0.00  0.00    +0.000 HD
ENDBRANCH   8  14
ENDBRANCH   4   7
ENDBRANCH   1   4
BRANCH   1  18
ATOM     18  C   UNL     1       0.441   3.639 -20.285  0.00  0.00    +0.000 C 
BRANCH  18  19
ATOM     19  C   UNL     1      -0.453   3.349 -21.473  0.00  0.00    +0.000 C 
ATOM     20  C   UNL     1      -1.158   2.236 -21.710  0.00  0.00    +0.000 C 
ATOM     21  H   UNL     1      -0.535   4.148 -22.209  0.00  0.00    +0.000 HD
ATOM     22  H   UNL     1      -1.767   2.159 -22.604  0.00  0.00    +0.000 HD
ATOM     23  H   UNL     1      -1.149   1.387 -21.038  0.00  0.00    +0.000 HD
ENDBRANCH  18  19
BRANCH  18  24
ATOM     24  C   UNL     1       1.711   2.784 -20.207  0.00  0.00    +0.000 C 
ATOM     25  H   UNL     1       2.354   3.120 -19.385  0.00  0.00    +0.000 HD
ATOM     26  H   UNL     1       1.467   1.737 -19.986  0.00  0.00    +0.000 HD
ATOM     27  H   UNL     1       2.295   2.812 -21.131  0.00  0.00    +0.000 HD
ENDBRANCH  18  24
BRANCH  18  28
ATOM     28  O   UNL     1      -0.315   3.315 -19.105  0.00  0.00    +0.000 OA
ATOM     29  H   UNL     1      -1.009   2.680 -19.351  0.00  0.00    +0.000 HD
ENDBRANCH  18  28
ENDBRANCH   1  18
TORSDOF 8
ENDMDL
MODEL 6
REMARK VINA RESULT:    -4.476      1.755      2.481
REMARK INTER + INTRA:          -6.388
REMARK INTER:                  -5.684
REMARK INTRA:                  -0.704
REMARK UNBOUND:                -0.343
REMARK  Name = 6549
REMARK  8 active torsions:
REMARK  status: ('A' for Active; 'I' for Inactive)
REMARK    1  A    between atoms: O_1  and  C_2
REMARK    2  A    between atoms: C_2  and  C_3
REMARK    3  A    between atoms: C_2  and  C_5
REMARK    4  A    between atoms: C_2  and  C_6
REMARK    5  A    between atoms: C_3  and  C_4
REMARK    6  A    between atoms: C_4  and  C_7
REMARK    7  A    between atoms: C_8  and  C_9
REMARK    8  A    between atoms: C_8  and  C_10
REMARK                            x       y       z     vdW  Elec       q    Type
REMARK                         _______ _______ _______ _____ _____    ______ ____
ROOT
ATOM      1  C   UNL     1      -7.528 -13.199   3.535  0.00  0.00    +0.000 C 
ATOM      2  H   UNL     1      -7.648 -12.168   3.173  0.00  0.00    +0.000 HD
ATOM      3  H   UNL     1      -8.541 -13.624   3.497  0.00  0.00    +0.000 HD
ENDROOT
BRANCH   1   4
ATOM      4  C   UNL     1      -7.037 -13.174   4.987  0.00  0.00    +0.000 C 
ATOM      5  H   UNL     1      -6.977 -12.151   5.372  0.00  0.00    +0.000 HD
ATOM      6  H   UNL     1      -6.016 -13.569   5.048  0.00  0.00    +0.000 HD
BRANCH   4   7
ATOM      7  C   UNL     1      -7.902 -14.036   5.863  0.00  0.00    +0.000 C 
ATOM      8  C   UNL     1      -7.657 -15.295   6.276  0.00  0.00    +0.000 C 
ATOM      9  H   UNL     1      -8.825 -13.566   6.199  0.00  0.00    +0.000 HD
BRANCH   8  10
ATOM     10  C   UNL     1      -8.565 -16.106   7.157  0.00  0.00    +0.000 C 
ATOM     11  H   UNL     1      -8.415 -15.841   8.207  0.00  0.00    +0.000 HD
ATOM     12  H   UNL     1      -8.361 -17.174   7.031  0.00  0.00    +0.000 HD
ATOM     13  H   UNL     1      -9.619 -15.934   6.915  0.00  0.00    +0.000 HD
ENDBRANCH   8  10
BRANCH   8  14
ATOM     14  C   UNL     1      -6.387 -15.996   5.874  0.00  0.00    +0.000 C 
ATOM     15  H   UNL     1      -6.351 -16.103   4.784  0.00  0.00    +0.000 HD
ATOM     16  H   UNL     1      -5.469 -15.497   6.193  0.00  0.00    +0.000 HD
ATOM     17  H   UNL     1      -6.361 -16.999   6.314  0.00  0.00    +0.000 HD
ENDBRANCH   8  14
ENDBRANCH   4   7
ENDBRANCH   1   4
BRANCH   1  18
ATOM     18  C   UNL     1      -6.625 -13.979   2.550  0.00  0.00    +0.000 C 
BRANCH  18  19
ATOM     19  C   UNL     1      -5.178 -13.946   2.998  0.00  0.00    +0.000 C 
ATOM     20  C   UNL     1      -4.156 -14.655   2.504  0.00  0.00    +0.000 C 
ATOM     21  H   UNL     1      -4.950 -13.255   3.808  0.00  0.00    +0.000 HD
ATOM     22  H   UNL     1      -3.160 -14.530   2.916  0.00  0.00    +0.000 HD
ATOM     23  H   UNL     1      -4.276 -15.364   1.695  0.00  0.00    +0.000 HD
ENDBRANCH  18  19
BRANCH  18  24
ATOM     24  C   UNL     1      -7.186 -15.381   2.279  0.00  0.00    +0.000 C 
ATOM     25  H   UNL     1      -6.811 -15.769   1.325  0.00  0.00    +0.000 HD
ATOM     26  H   UNL     1      -6.851 -16.093   3.044  0.00  0.00    +0.000 HD
ATOM     27  H   UNL     1      -8.280 -15.398   2.248  0.00  0.00    +0.000 HD
ENDBRANCH  18  24
BRANCH  18  28
ATOM     28  O   UNL     1      -6.688 -13.289   1.289  0.00  0.00    +0.000 OA
ATOM     29  H   UNL     1      -7.104 -12.422   1.436  0.00  0.00    +0.000 HD
ENDBRANCH  18  28
ENDBRANCH   1  18
TORSDOF 8
ENDMDL
MODEL 7
REMARK VINA RESULT:    -4.441      7.203      9.159
REMARK INTER + INTRA:          -6.342
REMARK INTER:                  -6.064
REMARK INTRA:                  -0.278
REMARK UNBOUND:                -0.343
REMARK  Name = 6549
REMARK  8 active torsions:
REMARK  status: ('A' for Active; 'I' for Inactive)
REMARK    1  A    between atoms: O_1  and  C_2
REMARK    2  A    between atoms: C_2  and  C_3
REMARK    3  A    between atoms: C_2  and  C_5
REMARK    4  A    between atoms: C_2  and  C_6
REMARK    5  A    between atoms: C_3  and  C_4
REMARK    6  A    between atoms: C_4  and  C_7
REMARK    7  A    between atoms: C_8  and  C_9
REMARK    8  A    between atoms: C_8  and  C_10
REMARK                            x       y       z     vdW  Elec       q    Type
REMARK                         _______ _______ _______ _____ _____    ______ ____
ROOT
ATOM      1  C   UNL     1     -14.308 -16.542   2.231  0.00  0.00    +0.000 C 
ATOM      2  H   UNL     1     -13.260 -16.230   2.344  0.00  0.00    +0.000 HD
ATOM      3  H   UNL     1     -14.257 -17.629   2.075  0.00  0.00    +0.000 HD
ENDROOT
BRANCH   1   4
ATOM      4  C   UNL     1     -14.907 -15.872   0.990  0.00  0.00    +0.000 C 
ATOM      5  H   UNL     1     -15.364 -14.908   1.236  0.00  0.00    +0.000 HD
ATOM      6  H   UNL     1     -15.721 -16.486   0.585  0.00  0.00    +0.000 HD
BRANCH   4   7
ATOM      7  C   UNL     1     -13.877 -15.726  -0.094  0.00  0.00    +0.000 C 
ATOM      8  C   UNL     1     -13.713 -16.504  -1.182  0.00  0.00    +0.000 C 
ATOM      9  H   UNL     1     -13.201 -14.881   0.029  0.00  0.00    +0.000 HD
BRANCH   8  10
ATOM     10  C   UNL     1     -12.659 -16.304  -2.234  0.00  0.00    +0.000 C 
ATOM     11  H   UNL     1     -12.598 -15.249  -2.518  0.00  0.00    +0.000 HD
ATOM     12  H   UNL     1     -12.895 -16.894  -3.125  0.00  0.00    +0.000 HD
ATOM     13  H   UNL     1     -11.671 -16.613  -1.879  0.00  0.00    +0.000 HD
ENDBRANCH   8  10
BRANCH   8  14
ATOM     14  C   UNL     1     -14.629 -17.672  -1.430  0.00  0.00    +0.000 C 
ATOM     15  H   UNL     1     -14.774 -18.236  -0.502  0.00  0.00    +0.000 HD
ATOM     16  H   UNL     1     -15.615 -17.404  -1.817  0.00  0.00    +0.000 HD
ATOM     17  H   UNL     1     -14.181 -18.346  -2.170  0.00  0.00    +0.000 HD
ENDBRANCH   8  14
ENDBRANCH   4   7
ENDBRANCH   1   4
BRANCH   1  18
ATOM     18  C   UNL     1     -15.063 -16.266   3.555  0.00  0.00    +0.000 C 
BRANCH  18  19
ATOM     19  C   UNL     1     -14.129 -15.697   4.602  0.00  0.00    +0.000 C 
ATOM     20  C   UNL     1     -14.132 -14.457   5.110  0.00  0.00    +0.000 C 
ATOM     21  H   UNL     1     -13.378 -16.383   4.990  0.00  0.00    +0.000 HD
ATOM     22  H   UNL     1     -13.406 -14.178   5.865  0.00  0.00    +0.000 HD
ATOM     23  H   UNL     1     -14.841 -13.701   4.795  0.00  0.00    +0.000 HD
ENDBRANCH  18  19
BRANCH  18  24
ATOM     24  C   UNL     1     -16.333 -15.445   3.305  0.00  0.00    +0.000 C 
ATOM     25  H   UNL     1     -17.156 -16.093   2.983  0.00  0.00    +0.000 HD
ATOM     26  H   UNL     1     -16.677 -14.962   4.229  0.00  0.00    +0.000 HD
ATOM     27  H   UNL     1     -16.192 -14.670   2.545  0.00  0.00    +0.000 HD
ENDBRANCH  18  24
BRANCH  18  28
ATOM     28  O   UNL     1     -15.518 -17.539   4.049  0.00  0.00    +0.000 OA
ATOM     29  H   UNL     1     -15.056 -18.240   3.557  0.00  0.00    +0.000 HD
ENDBRANCH  18  28
ENDBRANCH   1  18
TORSDOF 8
ENDMDL
MODEL 8
REMARK VINA RESULT:    -4.420      3.196      5.743
REMARK INTER + INTRA:          -6.313
REMARK INTER:                  -5.938
REMARK INTRA:                  -0.375
REMARK UNBOUND:                -0.343
REMARK  Name = 6549
REMARK  8 active torsions:
REMARK  status: ('A' for Active; 'I' for Inactive)
REMARK    1  A    between atoms: O_1  and  C_2
REMARK    2  A    between atoms: C_2  and  C_3
REMARK    3  A    between atoms: C_2  and  C_5
REMARK    4  A    between atoms: C_2  and  C_6
REMARK    5  A    between atoms: C_3  and  C_4
REMARK    6  A    between atoms: C_4  and  C_7
REMARK    7  A    between atoms: C_8  and  C_9
REMARK    8  A    between atoms: C_8  and  C_10
REMARK                            x       y       z     vdW  Elec       q    Type
REMARK                         _______ _______ _______ _____ _____    ______ ____
ROOT
ATOM      1  C   UNL     1      -5.665 -14.916   3.203  0.00  0.00    +0.000 C 
ATOM      2  H   UNL     1      -5.781 -15.478   4.141  0.00  0.00    +0.000 HD
ATOM      3  H   UNL     1      -6.057 -15.590   2.428  0.00  0.00    +0.000 HD
ENDROOT
BRANCH   1   4
ATOM      4  C   UNL     1      -4.177 -14.652   2.948  0.00  0.00    +0.000 C 
ATOM      5  H   UNL     1      -3.557 -15.030   3.768  0.00  0.00    +0.000 HD
ATOM      6  H   UNL     1      -3.985 -13.572   2.912  0.00  0.00    +0.000 HD
BRANCH   4   7
ATOM      7  C   UNL     1      -3.746 -15.227   1.628  0.00  0.00    +0.000 C 
ATOM      8  C   UNL     1      -2.544 -15.102   1.032  0.00  0.00    +0.000 C 
ATOM      9  H   UNL     1      -4.505 -15.816   1.116  0.00  0.00    +0.000 HD
BRANCH   8  10
ATOM     10  C   UNL     1      -2.173 -15.705  -0.293  0.00  0.00    +0.000 C 
ATOM     11  H   UNL     1      -1.271 -15.231  -0.690  0.00  0.00    +0.000 HD
ATOM     12  H   UNL     1      -2.986 -15.571  -1.013  0.00  0.00    +0.000 HD
ATOM     13  H   UNL     1      -1.976 -16.779  -0.206  0.00  0.00    +0.000 HD
ENDBRANCH   8  10
BRANCH   8  14
ATOM     14  C   UNL     1      -1.439 -14.326   1.696  0.00  0.00    +0.000 C 
ATOM     15  H   UNL     1      -0.657 -15.012   2.040  0.00  0.00    +0.000 HD
ATOM     16  H   UNL     1      -0.967 -13.571   1.063  0.00  0.00    +0.000 HD
ATOM     17  H   UNL     1      -1.832 -13.794   2.570  0.00  0.00    +0.000 HD
ENDBRANCH   8  14
ENDBRANCH   4   7
ENDBRANCH   1   4
BRANCH   1  18
ATOM     18  C   UNL     1      -6.557 -13.652   3.259  0.00  0.00    +0.000 C 
BRANCH  18  19
ATOM     19  C   UNL     1      -7.397 -13.526   2.005  0.00  0.00    +0.000 C 
ATOM     20  C   UNL     1      -6.971 -13.531   0.735  0.00  0.00    +0.000 C 
ATOM     21  H   UNL     1      -8.470 -13.433   2.162  0.00  0.00    +0.000 HD
ATOM     22  H   UNL     1      -7.684 -13.438  -0.077  0.00  0.00    +0.000 HD
ATOM     23  H   UNL     1      -5.925 -13.624   0.472  0.00  0.00    +0.000 HD
ENDBRANCH  18  19
BRANCH  18  24
ATOM     24  C   UNL     1      -7.344 -13.588   4.573  0.00  0.00    +0.000 C 
ATOM     25  H   UNL     1      -7.473 -14.591   4.996  0.00  0.00    +0.000 HD
ATOM     26  H   UNL     1      -6.797 -13.013   5.331  0.00  0.00    +0.000 HD
ATOM     27  H   UNL     1      -8.334 -13.140   4.450  0.00  0.00    +0.000 HD
ENDBRANCH  18  24
BRANCH  18  28
ATOM     28  O   UNL     1      -5.672 -12.517   3.284  0.00  0.00    +0.000 OA
ATOM     29  H   UNL     1      -4.928 -12.697   2.685  0.00  0.00    +0.000 HD
ENDBRANCH  18  28
ENDBRANCH   1  18
TORSDOF 8
ENDMDL
MODEL 9
REMARK VINA RESULT:    -4.415     31.651     33.867
REMARK INTER + INTRA:          -6.307
REMARK INTER:                  -5.692
REMARK INTRA:                  -0.615
REMARK UNBOUND:                -0.343
REMARK  Name = 6549
REMARK  8 active torsions:
REMARK  status: ('A' for Active; 'I' for Inactive)
REMARK    1  A    between atoms: O_1  and  C_2
REMARK    2  A    between atoms: C_2  and  C_3
REMARK    3  A    between atoms: C_2  and  C_5
REMARK    4  A    between atoms: C_2  and  C_6
REMARK    5  A    between atoms: C_3  and  C_4
REMARK    6  A    between atoms: C_4  and  C_7
REMARK    7  A    between atoms: C_8  and  C_9
REMARK    8  A    between atoms: C_8  and  C_10
REMARK                            x       y       z     vdW  Elec       q    Type
REMARK                         _______ _______ _______ _____ _____    ______ ____
ROOT
ATOM      1  C   UNL     1      -0.530   3.461 -21.241  0.00  0.00    +0.000 C 
ATOM      2  H   UNL     1      -0.240   2.597 -21.855  0.00  0.00    +0.000 HD
ATOM      3  H   UNL     1      -1.526   3.201 -20.853  0.00  0.00    +0.000 HD
ENDROOT
BRANCH   1   4
ATOM      4  C   UNL     1      -0.635   4.705 -22.129  0.00  0.00    +0.000 C 
ATOM      5  H   UNL     1      -0.066   5.543 -21.713  0.00  0.00    +0.000 HD
ATOM      6  H   UNL     1      -1.674   5.052 -22.173  0.00  0.00    +0.000 HD
BRANCH   4   7
ATOM      7  C   UNL     1      -0.205   4.401 -23.537  0.00  0.00    +0.000 C 
ATOM      8  C   UNL     1       0.890   4.855 -24.177  0.00  0.00    +0.000 C 
ATOM      9  H   UNL     1      -0.865   3.727 -24.081  0.00  0.00    +0.000 HD
BRANCH   8  10
ATOM     10  C   UNL     1       1.266   4.511 -25.591  0.00  0.00    +0.000 C 
ATOM     11  H   UNL     1       1.211   5.399 -26.228  0.00  0.00    +0.000 HD
ATOM     12  H   UNL     1       0.589   3.750 -25.990  0.00  0.00    +0.000 HD
ATOM     13  H   UNL     1       2.286   4.117 -25.651  0.00  0.00    +0.000 HD
ENDBRANCH   8  10
BRANCH   8  14
ATOM     14  C   UNL     1       1.861   5.767 -23.477  0.00  0.00    +0.000 C 
ATOM     15  H   UNL     1       1.313   6.536 -22.920  0.00  0.00    +0.000 HD
ATOM     16  H   UNL     1       2.537   5.266 -22.781  0.00  0.00    +0.000 HD
ATOM     17  H   UNL     1       2.496   6.271 -24.215  0.00  0.00    +0.000 HD
ENDBRANCH   8  14
ENDBRANCH   4   7
ENDBRANCH   1   4
BRANCH   1  18
ATOM     18  C   UNL     1       0.449   3.585 -20.048  0.00  0.00    +0.000 C 
BRANCH  18  19
ATOM     19  C   UNL     1       1.547   2.547 -20.139  0.00  0.00    +0.000 C 
ATOM     20  C   UNL     1       2.755   2.685 -20.703  0.00  0.00    +0.000 C 
ATOM     21  H   UNL     1       1.327   1.583 -19.683  0.00  0.00    +0.000 HD
ATOM     22  H   UNL     1       3.456   1.857 -20.694  0.00  0.00    +0.000 HD
ATOM     23  H   UNL     1       3.074   3.604 -21.178  0.00  0.00    +0.000 HD
ENDBRANCH  18  19
BRANCH  18  24
ATOM     24  C   UNL     1       0.936   5.030 -19.882  0.00  0.00    +0.000 C 
ATOM     25  H   UNL     1       1.610   5.113 -19.022  0.00  0.00    +0.000 HD
ATOM     26  H   UNL     1       1.521   5.350 -20.753  0.00  0.00    +0.000 HD
ATOM     27  H   UNL     1       0.114   5.738 -19.742  0.00  0.00    +0.000 HD
ENDBRANCH  18  24
BRANCH  18  28
ATOM     28  O   UNL     1      -0.304   3.293 -18.858  0.00  0.00    +0.000 OA
ATOM     29  H   UNL     1      -0.035   2.417 -18.533  0.00  0.00    +0.000 HD
ENDBRANCH  18  28
ENDBRANCH   1  18
TORSDOF 8
ENDMDL
MODEL 10
REMARK VINA RESULT:    -4.319     18.054     20.419
REMARK INTER + INTRA:          -6.177
REMARK INTER:                  -5.835
REMARK INTRA:                  -0.343
REMARK UNBOUND:                -0.343
REMARK  Name = 6549
REMARK  8 active torsions:
REMARK  status: ('A' for Active; 'I' for Inactive)
REMARK    1  A    between atoms: O_1  and  C_2
REMARK    2  A    between atoms: C_2  and  C_3
REMARK    3  A    between atoms: C_2  and  C_5
REMARK    4  A    between atoms: C_2  and  C_6
REMARK    5  A    between atoms: C_3  and  C_4
REMARK    6  A    between atoms: C_4  and  C_7
REMARK    7  A    between atoms: C_8  and  C_9
REMARK    8  A    between atoms: C_8  and  C_10
REMARK                            x       y       z     vdW  Elec       q    Type
REMARK                         _______ _______ _______ _____ _____    ______ ____
ROOT
ATOM      1  C   UNL     1      -8.230  -8.354 -13.267  0.00  0.00    +0.000 C 
ATOM      2  H   UNL     1      -8.021  -9.433 -13.230  0.00  0.00    +0.000 HD
ATOM      3  H   UNL     1      -9.322  -8.280 -13.158  0.00  0.00    +0.000 HD
ENDROOT
BRANCH   1   4
ATOM      4  C   UNL     1      -7.812  -7.800 -14.633  0.00  0.00    +0.000 C 
ATOM      5  H   UNL     1      -7.286  -6.845 -14.534  0.00  0.00    +0.000 HD
ATOM      6  H   UNL     1      -8.699  -7.582 -15.240  0.00  0.00    +0.000 HD
BRANCH   4   7
ATOM      7  C   UNL     1      -6.986  -8.801 -15.391  0.00  0.00    +0.000 C 
ATOM      8  C   UNL     1      -6.610  -8.745 -16.684  0.00  0.00    +0.000 C 
ATOM      9  H   UNL     1      -6.657  -9.659 -14.807  0.00  0.00    +0.000 HD
BRANCH   8  10
ATOM     10  C   UNL     1      -5.780  -9.782 -17.386  0.00  0.00    +0.000 C 
ATOM     11  H   UNL     1      -5.070 -10.239 -16.690  0.00  0.00    +0.000 HD
ATOM     12  H   UNL     1      -5.221  -9.327 -18.209  0.00  0.00    +0.000 HD
ATOM     13  H   UNL     1      -6.401 -10.580 -17.803  0.00  0.00    +0.000 HD
ENDBRANCH   8  10
BRANCH   8  14
ATOM     14  C   UNL     1      -7.005  -7.574 -17.543  0.00  0.00    +0.000 C 
ATOM     15  H   UNL     1      -8.097  -7.496 -17.586  0.00  0.00    +0.000 HD
ATOM     16  H   UNL     1      -6.613  -6.611 -17.210  0.00  0.00    +0.000 HD
ATOM     17  H   UNL     1      -6.635  -7.721 -18.564  0.00  0.00    +0.000 HD
ENDBRANCH   8  14
ENDBRANCH   4   7
ENDBRANCH   1   4
BRANCH   1  18
ATOM     18  C   UNL     1      -7.564  -7.668 -12.049  0.00  0.00    +0.000 C 
BRANCH  18  19
ATOM     19  C   UNL     1      -6.165  -8.203 -11.825  0.00  0.00    +0.000 C 
ATOM     20  C   UNL     1      -5.035  -7.497 -11.684  0.00  0.00    +0.000 C 
ATOM     21  H   UNL     1      -6.077  -9.286 -11.761  0.00  0.00    +0.000 HD
ATOM     22  H   UNL     1      -4.092  -8.008 -11.522  0.00  0.00    +0.000 HD
ATOM     23  H   UNL     1      -5.016  -6.415 -11.726  0.00  0.00    +0.000 HD
ENDBRANCH  18  19
BRANCH  18  24
ATOM     24  C   UNL     1      -7.665  -6.142 -12.151  0.00  0.00    +0.000 C 
ATOM     25  H   UNL     1      -7.408  -5.804 -13.161  0.00  0.00    +0.000 HD
ATOM     26  H   UNL     1      -8.693  -5.803 -11.974  0.00  0.00    +0.000 HD
ATOM     27  H   UNL     1      -7.008  -5.628 -11.442  0.00  0.00    +0.000 HD
ENDBRANCH  18  24
BRANCH  18  28
ATOM     28  O   UNL     1      -8.339  -8.029 -10.891  0.00  0.00    +0.000 OA
ATOM     29  H   UNL     1      -8.724  -7.218 -10.517  0.00  0.00    +0.000 HD
ENDBRANCH  18  28
ENDBRANCH   1  18
TORSDOF 8
ENDMDL
