MODEL 1
REMARK VINA RESULT:    -4.829      0.000      0.000
REMARK INTER + INTRA:          -5.874
REMARK INTER:                  -5.656
REMARK INTRA:                  -0.218
REMARK UNBOUND:                -0.198
REMARK  Name = 16666
REMARK  5 active torsions:
REMARK  status: ('A' for Active; 'I' for Inactive)
REMARK    1  A    between atoms: O_1  and  C_3
REMARK    2  A    between atoms: C_2  and  C_8
REMARK    3  A    between atoms: C_5  and  C_9
REMARK    4  A    between atoms: C_8  and  C_10
REMARK    5  A    between atoms: C_8  and  C_11
REMARK                            x       y       z     vdW  Elec       q    Type
REMARK                         _______ _______ _______ _____ _____    ______ ____
ROOT
ATOM      1  C   UNL     1      -7.446 -14.449   2.559  0.00  0.00    +0.000 C 
ATOM      2  C   UNL     1      -7.290 -15.719   3.413  0.00  0.00    +0.000 C 
ATOM      3  C   UNL     1      -6.873 -13.227   3.289  0.00  0.00    +0.000 C 
ATOM      4  C   UNL     1      -7.316 -14.318   5.529  0.00  0.00    +0.000 C 
ATOM      5  C   UNL     1      -7.896 -15.538   4.808  0.00  0.00    +0.000 C 
ATOM      6  C   UNL     1      -7.484 -13.054   4.677  0.00  0.00    +0.000 C 
ATOM      7  H   UNL     1      -8.520 -14.283   2.392  0.00  0.00    +0.000 HD
ATOM      8  H   UNL     1      -6.242 -15.998   3.549  0.00  0.00    +0.000 HD
ATOM      9  H   UNL     1      -7.063 -12.306   2.728  0.00  0.00    +0.000 HD
ATOM     10  H   UNL     1      -5.790 -13.307   3.424  0.00  0.00    +0.000 HD
ATOM     11  H   UNL     1      -6.243 -14.487   5.691  0.00  0.00    +0.000 HD
ATOM     12  H   UNL     1      -7.725 -16.447   5.397  0.00  0.00    +0.000 HD
ATOM     13  H   UNL     1      -8.987 -15.445   4.724  0.00  0.00    +0.000 HD
ATOM     14  H   UNL     1      -7.011 -12.201   5.177  0.00  0.00    +0.000 HD
ATOM     15  H   UNL     1      -8.549 -12.810   4.574  0.00  0.00    +0.000 HD
ENDROOT
BRANCH   4  16
ATOM     16  C   UNL     1      -7.973 -14.137   6.897  0.00  0.00    +0.000 C 
ATOM     17  H   UNL     1      -8.479 -13.168   6.960  0.00  0.00    +0.000 HD
ATOM     18  H   UNL     1      -8.719 -14.918   7.075  0.00  0.00    +0.000 HD
ATOM     19  H   UNL     1      -7.233 -14.186   7.704  0.00  0.00    +0.000 HD
ENDBRANCH   4  16
BRANCH   2  20
ATOM     20  O   UNL     1      -7.944 -16.807   2.766  0.00  0.00    +0.000 OA
ATOM     21  H   UNL     1      -8.831 -16.509   2.499  0.00  0.00    +0.000 HD
ENDBRANCH   2  20
BRANCH   1  22
ATOM     22  C   UNL     1      -6.781 -14.613   1.190  0.00  0.00    +0.000 C 
ATOM     23  H   UNL     1      -7.203 -15.491   0.686  0.00  0.00    +0.000 HD
BRANCH  22  24
ATOM     24  C   UNL     1      -7.066 -13.398   0.311  0.00  0.00    +0.000 C 
ATOM     25  H   UNL     1      -7.230 -13.662  -0.738  0.00  0.00    +0.000 HD
ATOM     26  H   UNL     1      -7.978 -12.897   0.655  0.00  0.00    +0.000 HD
ATOM     27  H   UNL     1      -6.253 -12.667   0.365  0.00  0.00    +0.000 HD
ENDBRANCH  22  24
BRANCH  22  28
ATOM     28  C   UNL     1      -5.278 -14.822   1.350  0.00  0.00    +0.000 C 
ATOM     29  H   UNL     1      -4.960 -14.953   2.387  0.00  0.00    +0.000 HD
ATOM     30  H   UNL     1      -4.755 -13.926   0.991  0.00  0.00    +0.000 HD
ATOM     31  H   UNL     1      -4.888 -15.648   0.749  0.00  0.00    +0.000 HD
ENDBRANCH  22  28
ENDBRANCH   1  22
TORSDOF 5
ENDMDL
MODEL 2
REMARK VINA RESULT:    -4.798     29.379     30.498
REMARK INTER + INTRA:          -5.838
REMARK INTER:                  -5.643
REMARK INTRA:                  -0.195
REMARK UNBOUND:                -0.198
REMARK  Name = 16666
REMARK  5 active torsions:
REMARK  status: ('A' for Active; 'I' for Inactive)
REMARK    1  A    between atoms: O_1  and  C_3
REMARK    2  A    between atoms: C_2  and  C_8
REMARK    3  A    between atoms: C_5  and  C_9
REMARK    4  A    between atoms: C_8  and  C_10
REMARK    5  A    between atoms: C_8  and  C_11
REMARK                            x       y       z     vdW  Elec       q    Type
REMARK                         _______ _______ _______ _____ _____    ______ ____
ROOT
ATOM      1  C   UNL     1      15.029   6.785  -1.089  0.00  0.00    +0.000 C 
ATOM      2  C   UNL     1      13.586   6.257  -1.055  0.00  0.00    +0.000 C 
ATOM      3  C   UNL     1      16.024   5.641  -1.331  0.00  0.00    +0.000 C 
ATOM      4  C   UNL     1      14.417   3.984  -0.291  0.00  0.00    +0.000 C 
ATOM      5  C   UNL     1      13.424   5.123  -0.039  0.00  0.00    +0.000 C 
ATOM      6  C   UNL     1      15.856   4.516  -0.313  0.00  0.00    +0.000 C 
ATOM      7  H   UNL     1      15.249   7.236  -0.110  0.00  0.00    +0.000 HD
ATOM      8  H   UNL     1      13.266   5.870  -2.026  0.00  0.00    +0.000 HD
ATOM      9  H   UNL     1      17.058   5.994  -1.264  0.00  0.00    +0.000 HD
ATOM     10  H   UNL     1      15.896   5.196  -2.322  0.00  0.00    +0.000 HD
ATOM     11  H   UNL     1      14.197   3.540  -1.270  0.00  0.00    +0.000 HD
ATOM     12  H   UNL     1      12.394   4.746  -0.079  0.00  0.00    +0.000 HD
ATOM     13  H   UNL     1      13.552   5.519   0.977  0.00  0.00    +0.000 HD
ATOM     14  H   UNL     1      16.551   3.703  -0.553  0.00  0.00    +0.000 HD
ATOM     15  H   UNL     1      16.134   4.886   0.682  0.00  0.00    +0.000 HD
ENDROOT
BRANCH   4  16
ATOM     16  C   UNL     1      14.263   2.890   0.765  0.00  0.00    +0.000 C 
ATOM     17  H   UNL     1      15.039   2.127   0.648  0.00  0.00    +0.000 HD
ATOM     18  H   UNL     1      14.352   3.309   1.773  0.00  0.00    +0.000 HD
ATOM     19  H   UNL     1      13.288   2.397   0.688  0.00  0.00    +0.000 HD
ENDBRANCH   4  16
BRANCH   2  20
ATOM     20  O   UNL     1      12.702   7.319  -0.703  0.00  0.00    +0.000 OA
ATOM     21  H   UNL     1      12.773   7.462   0.257  0.00  0.00    +0.000 HD
ENDBRANCH   2  20
BRANCH   1  22
ATOM     22  C   UNL     1      15.201   7.873  -2.152  0.00  0.00    +0.000 C 
ATOM     23  H   UNL     1      14.629   8.761  -1.855  0.00  0.00    +0.000 HD
BRANCH  22  24
ATOM     24  C   UNL     1      16.666   8.287  -2.259  0.00  0.00    +0.000 C 
ATOM     25  H   UNL     1      17.019   8.334  -3.294  0.00  0.00    +0.000 HD
ATOM     26  H   UNL     1      16.802   9.288  -1.834  0.00  0.00    +0.000 HD
ATOM     27  H   UNL     1      17.315   7.605  -1.699  0.00  0.00    +0.000 HD
ENDBRANCH  22  24
BRANCH  22  28
ATOM     28  C   UNL     1      14.677   7.389  -3.500  0.00  0.00    +0.000 C 
ATOM     29  H   UNL     1      14.973   8.022  -4.340  0.00  0.00    +0.000 HD
ATOM     30  H   UNL     1      13.580   7.414  -3.483  0.00  0.00    +0.000 HD
ATOM     31  H   UNL     1      14.942   6.353  -3.723  0.00  0.00    +0.000 HD
ENDBRANCH  22  28
ENDBRANCH   1  22
TORSDOF 5
ENDMDL
MODEL 3
REMARK VINA RESULT:    -4.767     31.711     32.618
REMARK INTER + INTRA:          -5.801
REMARK INTER:                  -5.586
REMARK INTRA:                  -0.216
REMARK UNBOUND:                -0.198
REMARK  Name = 16666
REMARK  5 active torsions:
REMARK  status: ('A' for Active; 'I' for Inactive)
REMARK    1  A    between atoms: O_1  and  C_3
REMARK    2  A    between atoms: C_2  and  C_8
REMARK    3  A    between atoms: C_5  and  C_9
REMARK    4  A    between atoms: C_8  and  C_10
REMARK    5  A    between atoms: C_8  and  C_11
REMARK                            x       y       z     vdW  Elec       q    Type
REMARK                         _______ _______ _______ _____ _____    ______ ____
ROOT
ATOM      1  C   UNL     1       5.444   4.929 -18.660  0.00  0.00    +0.000 C 
ATOM      2  C   UNL     1       5.092   6.422 -18.562  0.00  0.00    +0.000 C 
ATOM      3  C   UNL     1       4.946   4.336 -19.985  0.00  0.00    +0.000 C 
ATOM      4  C   UNL     1       3.108   6.072 -20.105  0.00  0.00    +0.000 C 
ATOM      5  C   UNL     1       3.595   6.663 -18.780  0.00  0.00    +0.000 C 
ATOM      6  C   UNL     1       3.454   4.580 -20.192  0.00  0.00    +0.000 C 
ATOM      7  H   UNL     1       4.941   4.406 -17.833  0.00  0.00    +0.000 HD
ATOM      8  H   UNL     1       5.627   7.022 -19.302  0.00  0.00    +0.000 HD
ATOM      9  H   UNL     1       5.111   3.254 -20.022  0.00  0.00    +0.000 HD
ATOM     10  H   UNL     1       5.464   4.773 -20.844  0.00  0.00    +0.000 HD
ATOM     11  H   UNL     1       3.616   6.594 -20.927  0.00  0.00    +0.000 HD
ATOM     12  H   UNL     1       3.394   7.741 -18.746  0.00  0.00    +0.000 HD
ATOM     13  H   UNL     1       3.029   6.234 -17.942  0.00  0.00    +0.000 HD
ATOM     14  H   UNL     1       3.154   4.184 -21.169  0.00  0.00    +0.000 HD
ATOM     15  H   UNL     1       2.888   4.020 -19.436  0.00  0.00    +0.000 HD
ENDROOT
BRANCH   4  16
ATOM     16  C   UNL     1       1.605   6.288 -20.273  0.00  0.00    +0.000 C 
ATOM     17  H   UNL     1       1.212   5.671 -21.088  0.00  0.00    +0.000 HD
ATOM     18  H   UNL     1       1.069   6.014 -19.357  0.00  0.00    +0.000 HD
ATOM     19  H   UNL     1       1.375   7.334 -20.499  0.00  0.00    +0.000 HD
ENDBRANCH   4  16
BRANCH   2  20
ATOM     20  O   UNL     1       5.453   6.910 -17.272  0.00  0.00    +0.000 OA
ATOM     21  H   UNL     1       6.410   7.084 -17.274  0.00  0.00    +0.000 HD
ENDBRANCH   2  20
BRANCH   1  22
ATOM     22  C   UNL     1       6.950   4.700 -18.507  0.00  0.00    +0.000 C 
ATOM     23  H   UNL     1       7.306   5.222 -17.610  0.00  0.00    +0.000 HD
BRANCH  22  24
ATOM     24  C   UNL     1       7.247   3.214 -18.321  0.00  0.00    +0.000 C 
ATOM     25  H   UNL     1       7.126   2.638 -19.243  0.00  0.00    +0.000 HD
ATOM     26  H   UNL     1       8.287   3.081 -18.001  0.00  0.00    +0.000 HD
ATOM     27  H   UNL     1       6.609   2.774 -17.547  0.00  0.00    +0.000 HD
ENDBRANCH  22  24
BRANCH  22  28
ATOM     28  C   UNL     1       7.699   5.252 -19.716  0.00  0.00    +0.000 C 
ATOM     29  H   UNL     1       8.761   5.432 -19.531  0.00  0.00    +0.000 HD
ATOM     30  H   UNL     1       7.275   6.230 -19.979  0.00  0.00    +0.000 HD
ATOM     31  H   UNL     1       7.592   4.636 -20.612  0.00  0.00    +0.000 HD
ENDBRANCH  22  28
ENDBRANCH   1  22
TORSDOF 5
ENDMDL
MODEL 4
REMARK VINA RESULT:    -4.732     26.237     27.695
REMARK INTER + INTRA:          -5.760
REMARK INTER:                  -5.564
REMARK INTRA:                  -0.196
REMARK UNBOUND:                -0.198
REMARK  Name = 16666
REMARK  5 active torsions:
REMARK  status: ('A' for Active; 'I' for Inactive)
REMARK    1  A    between atoms: O_1  and  C_3
REMARK    2  A    between atoms: C_2  and  C_8
REMARK    3  A    between atoms: C_5  and  C_9
REMARK    4  A    between atoms: C_8  and  C_10
REMARK    5  A    between atoms: C_8  and  C_11
REMARK                            x       y       z     vdW  Elec       q    Type
REMARK                         _______ _______ _______ _____ _____    ______ ____
ROOT
ATOM      1  C   UNL     1      17.945  -4.836  -1.423  0.00  0.00    +0.000 C 
ATOM      2  C   UNL     1      16.686  -4.591  -2.271  0.00  0.00    +0.000 C 
ATOM      3  C   UNL     1      19.187  -4.966  -2.315  0.00  0.00    +0.000 C 
ATOM      4  C   UNL     1      17.757  -5.786  -4.236  0.00  0.00    +0.000 C 
ATOM      5  C   UNL     1      16.515  -5.665  -3.349  0.00  0.00    +0.000 C 
ATOM      6  C   UNL     1      19.008  -6.040  -3.385  0.00  0.00    +0.000 C 
ATOM      7  H   UNL     1      17.809  -5.780  -0.876  0.00  0.00    +0.000 HD
ATOM      8  H   UNL     1      16.712  -3.624  -2.778  0.00  0.00    +0.000 HD
ATOM      9  H   UNL     1      20.072  -5.232  -1.727  0.00  0.00    +0.000 HD
ATOM     10  H   UNL     1      19.413  -4.031  -2.836  0.00  0.00    +0.000 HD
ATOM     11  H   UNL     1      17.892  -4.840  -4.777  0.00  0.00    +0.000 HD
ATOM     12  H   UNL     1      15.633  -5.429  -3.957  0.00  0.00    +0.000 HD
ATOM     13  H   UNL     1      16.294  -6.630  -2.874  0.00  0.00    +0.000 HD
ATOM     14  H   UNL     1      19.897  -6.064  -4.026  0.00  0.00    +0.000 HD
ATOM     15  H   UNL     1      18.939  -7.023  -2.902  0.00  0.00    +0.000 HD
ENDROOT
BRANCH   4  16
ATOM     16  C   UNL     1      17.575  -6.895  -5.271  0.00  0.00    +0.000 C 
ATOM     17  H   UNL     1      16.622  -7.414  -5.121  0.00  0.00    +0.000 HD
ATOM     18  H   UNL     1      17.576  -6.482  -6.286  0.00  0.00    +0.000 HD
ATOM     19  H   UNL     1      18.378  -7.637  -5.207  0.00  0.00    +0.000 HD
ENDBRANCH   4  16
BRANCH   2  20
ATOM     20  O   UNL     1      15.538  -4.602  -1.426  0.00  0.00    +0.000 OA
ATOM     21  H   UNL     1      15.005  -3.815  -1.633  0.00  0.00    +0.000 HD
ENDBRANCH   2  20
BRANCH   1  22
ATOM     22  C   UNL     1      18.147  -3.724  -0.390  0.00  0.00    +0.000 C 
ATOM     23  H   UNL     1      17.206  -3.174  -0.263  0.00  0.00    +0.000 HD
BRANCH  22  24
ATOM     24  C   UNL     1      18.518  -4.318   0.966  0.00  0.00    +0.000 C 
ATOM     25  H   UNL     1      18.585  -5.410   0.948  0.00  0.00    +0.000 HD
ATOM     26  H   UNL     1      19.503  -3.948   1.276  0.00  0.00    +0.000 HD
ATOM     27  H   UNL     1      17.802  -4.024   1.740  0.00  0.00    +0.000 HD
ENDBRANCH  22  24
BRANCH  22  28
ATOM     28  C   UNL     1      19.219  -2.746  -0.862  0.00  0.00    +0.000 C 
ATOM     29  H   UNL     1      20.197  -2.909  -0.403  0.00  0.00    +0.000 HD
ATOM     30  H   UNL     1      18.923  -1.729  -0.572  0.00  0.00    +0.000 HD
ATOM     31  H   UNL     1      19.334  -2.718  -1.948  0.00  0.00    +0.000 HD
ENDBRANCH  22  28
ENDBRANCH   1  22
TORSDOF 5
ENDMDL
MODEL 5
REMARK VINA RESULT:    -4.674      1.824      4.472
REMARK INTER + INTRA:          -5.693
REMARK INTER:                  -5.501
REMARK INTRA:                  -0.191
REMARK UNBOUND:                -0.198
REMARK  Name = 16666
REMARK  5 active torsions:
REMARK  status: ('A' for Active; 'I' for Inactive)
REMARK    1  A    between atoms: O_1  and  C_3
REMARK    2  A    between atoms: C_2  and  C_8
REMARK    3  A    between atoms: C_5  and  C_9
REMARK    4  A    between atoms: C_8  and  C_10
REMARK    5  A    between atoms: C_8  and  C_11
REMARK                            x       y       z     vdW  Elec       q    Type
REMARK                         _______ _______ _______ _____ _____    ______ ____
ROOT
ATOM      1  C   UNL     1      -7.607 -15.008   4.594  0.00  0.00    +0.000 C 
ATOM      2  C   UNL     1      -7.179 -13.566   4.278  0.00  0.00    +0.000 C 
ATOM      3  C   UNL     1      -6.959 -15.997   3.616  0.00  0.00    +0.000 C 
ATOM      4  C   UNL     1      -6.806 -14.192   1.847  0.00  0.00    +0.000 C 
ATOM      5  C   UNL     1      -7.459 -13.203   2.817  0.00  0.00    +0.000 C 
ATOM      6  C   UNL     1      -7.245 -15.628   2.162  0.00  0.00    +0.000 C 
ATOM      7  H   UNL     1      -8.699 -15.072   4.482  0.00  0.00    +0.000 HD
ATOM      8  H   UNL     1      -6.113 -13.404   4.454  0.00  0.00    +0.000 HD
ATOM      9  H   UNL     1      -7.330 -17.014   3.776  0.00  0.00    +0.000 HD
ATOM     10  H   UNL     1      -5.871 -16.027   3.730  0.00  0.00    +0.000 HD
ATOM     11  H   UNL     1      -5.716 -14.128   1.967  0.00  0.00    +0.000 HD
ATOM     12  H   UNL     1      -7.099 -12.185   2.622  0.00  0.00    +0.000 HD
ATOM     13  H   UNL     1      -8.543 -13.167   2.649  0.00  0.00    +0.000 HD
ATOM     14  H   UNL     1      -6.724 -16.330   1.501  0.00  0.00    +0.000 HD
ATOM     15  H   UNL     1      -8.318 -15.743   1.965  0.00  0.00    +0.000 HD
ENDROOT
BRANCH   4  16
ATOM     16  C   UNL     1      -7.140 -13.831   0.401  0.00  0.00    +0.000 C 
ATOM     17  H   UNL     1      -8.222 -13.726   0.267  0.00  0.00    +0.000 HD
ATOM     18  H   UNL     1      -6.674 -12.880   0.121  0.00  0.00    +0.000 HD
ATOM     19  H   UNL     1      -6.786 -14.599  -0.294  0.00  0.00    +0.000 HD
ENDBRANCH   4  16
BRANCH   2  20
ATOM     20  O   UNL     1      -7.894 -12.665   5.120  0.00  0.00    +0.000 OA
ATOM     21  H   UNL     1      -7.473 -12.675   5.997  0.00  0.00    +0.000 HD
ENDBRANCH   2  20
BRANCH   1  22
ATOM     22  C   UNL     1      -7.265 -15.388   6.038  0.00  0.00    +0.000 C 
ATOM     23  H   UNL     1      -6.845 -14.514   6.551  0.00  0.00    +0.000 HD
BRANCH  22  24
ATOM     24  C   UNL     1      -8.526 -15.801   6.793  0.00  0.00    +0.000 C 
ATOM     25  H   UNL     1      -8.322 -16.503   7.607  0.00  0.00    +0.000 HD
ATOM     26  H   UNL     1      -8.992 -14.919   7.247  0.00  0.00    +0.000 HD
ATOM     27  H   UNL     1      -9.264 -16.249   6.120  0.00  0.00    +0.000 HD
ENDBRANCH  22  24
BRANCH  22  28
ATOM     28  C   UNL     1      -6.229 -16.508   6.063  0.00  0.00    +0.000 C 
ATOM     29  H   UNL     1      -6.651 -17.501   5.887  0.00  0.00    +0.000 HD
ATOM     30  H   UNL     1      -5.780 -16.552   7.064  0.00  0.00    +0.000 HD
ATOM     31  H   UNL     1      -5.397 -16.346   5.375  0.00  0.00    +0.000 HD
ENDBRANCH  22  28
ENDBRANCH   1  22
TORSDOF 5
ENDMDL
MODEL 6
REMARK VINA RESULT:    -4.627     29.423     30.581
REMARK INTER + INTRA:          -5.637
REMARK INTER:                  -5.418
REMARK INTRA:                  -0.219
REMARK UNBOUND:                -0.198
REMARK  Name = 16666
REMARK  5 active torsions:
REMARK  status: ('A' for Active; 'I' for Inactive)
REMARK    1  A    between atoms: O_1  and  C_3
REMARK    2  A    between atoms: C_2  and  C_8
REMARK    3  A    between atoms: C_5  and  C_9
REMARK    4  A    between atoms: C_8  and  C_10
REMARK    5  A    between atoms: C_8  and  C_11
REMARK                            x       y       z     vdW  Elec       q    Type
REMARK                         _______ _______ _______ _____ _____    ______ ____
ROOT
ATOM      1  C   UNL     1      -3.659   4.267  26.531  0.00  0.00    +0.000 C 
ATOM      2  C   UNL     1      -3.905   4.953  25.177  0.00  0.00    +0.000 C 
ATOM      3  C   UNL     1      -2.966   5.224  27.510  0.00  0.00    +0.000 C 
ATOM      4  C   UNL     1      -1.931   6.495  25.581  0.00  0.00    +0.000 C 
ATOM      5  C   UNL     1      -2.613   5.539  24.599  0.00  0.00    +0.000 C 
ATOM      6  C   UNL     1      -1.679   5.802  26.926  0.00  0.00    +0.000 C 
ATOM      7  H   UNL     1      -2.998   3.405  26.360  0.00  0.00    +0.000 HD
ATOM      8  H   UNL     1      -4.626   5.770  25.254  0.00  0.00    +0.000 HD
ATOM      9  H   UNL     1      -2.705   4.716  28.444  0.00  0.00    +0.000 HD
ATOM     10  H   UNL     1      -3.608   6.072  27.770  0.00  0.00    +0.000 HD
ATOM     11  H   UNL     1      -2.597   7.352  25.751  0.00  0.00    +0.000 HD
ATOM     12  H   UNL     1      -2.840   6.055  23.658  0.00  0.00    +0.000 HD
ATOM     13  H   UNL     1      -1.930   4.723  24.328  0.00  0.00    +0.000 HD
ATOM     14  H   UNL     1      -1.247   6.515  27.638  0.00  0.00    +0.000 HD
ATOM     15  H   UNL     1      -0.946   4.996  26.800  0.00  0.00    +0.000 HD
ENDROOT
BRANCH   4  16
ATOM     16  C   UNL     1      -0.624   7.028  24.996  0.00  0.00    +0.000 C 
ATOM     17  H   UNL     1      -0.331   7.962  25.486  0.00  0.00    +0.000 HD
ATOM     18  H   UNL     1       0.187   6.305  25.139  0.00  0.00    +0.000 HD
ATOM     19  H   UNL     1      -0.718   7.223  23.922  0.00  0.00    +0.000 HD
ENDBRANCH   4  16
BRANCH   2  20
ATOM     20  O   UNL     1      -4.431   4.002  24.254  0.00  0.00    +0.000 OA
ATOM     21  H   UNL     1      -4.455   4.418  23.375  0.00  0.00    +0.000 HD
ENDBRANCH   2  20
BRANCH   1  22
ATOM     22  C   UNL     1      -4.963   3.740  27.135  0.00  0.00    +0.000 C 
ATOM     23  H   UNL     1      -5.429   3.038  26.432  0.00  0.00    +0.000 HD
BRANCH  22  24
ATOM     24  C   UNL     1      -4.683   2.978  28.427  0.00  0.00    +0.000 C 
ATOM     25  H   UNL     1      -3.677   3.161  28.818  0.00  0.00    +0.000 HD
ATOM     26  H   UNL     1      -5.385   3.296  29.206  0.00  0.00    +0.000 HD
ATOM     27  H   UNL     1      -4.814   1.900  28.291  0.00  0.00    +0.000 HD
ENDBRANCH  22  24
BRANCH  22  28
ATOM     28  C   UNL     1      -5.936   4.889  27.386  0.00  0.00    +0.000 C 
ATOM     29  H   UNL     1      -6.940   4.561  27.666  0.00  0.00    +0.000 HD
ATOM     30  H   UNL     1      -6.060   5.458  26.456  0.00  0.00    +0.000 HD
ATOM     31  H   UNL     1      -5.577   5.609  28.125  0.00  0.00    +0.000 HD
ENDBRANCH  22  28
ENDBRANCH   1  22
TORSDOF 5
ENDMDL
MODEL 7
REMARK VINA RESULT:    -4.528     24.804     26.476
REMARK INTER + INTRA:          -5.520
REMARK INTER:                  -5.313
REMARK INTRA:                  -0.208
REMARK UNBOUND:                -0.198
REMARK  Name = 16666
REMARK  5 active torsions:
REMARK  status: ('A' for Active; 'I' for Inactive)
REMARK    1  A    between atoms: O_1  and  C_3
REMARK    2  A    between atoms: C_2  and  C_8
REMARK    3  A    between atoms: C_5  and  C_9
REMARK    4  A    between atoms: C_8  and  C_10
REMARK    5  A    between atoms: C_8  and  C_11
REMARK                            x       y       z     vdW  Elec       q    Type
REMARK                         _______ _______ _______ _____ _____    ______ ____
ROOT
ATOM      1  C   UNL     1      17.656  -5.446  -2.184  0.00  0.00    +0.000 C 
ATOM      2  C   UNL     1      16.167  -5.806  -2.320  0.00  0.00    +0.000 C 
ATOM      3  C   UNL     1      18.415  -6.543  -1.425  0.00  0.00    +0.000 C 
ATOM      4  C   UNL     1      16.296  -7.212  -0.211  0.00  0.00    +0.000 C 
ATOM      5  C   UNL     1      15.535  -6.114  -0.960  0.00  0.00    +0.000 C 
ATOM      6  C   UNL     1      17.778  -6.842  -0.070  0.00  0.00    +0.000 C 
ATOM      7  H   UNL     1      17.728  -4.511  -1.609  0.00  0.00    +0.000 HD
ATOM      8  H   UNL     1      16.011  -6.681  -2.956  0.00  0.00    +0.000 HD
ATOM      9  H   UNL     1      19.454  -6.252  -1.243  0.00  0.00    +0.000 HD
ATOM     10  H   UNL     1      18.434  -7.484  -1.984  0.00  0.00    +0.000 HD
ATOM     11  H   UNL     1      16.224  -8.142  -0.791  0.00  0.00    +0.000 HD
ATOM     12  H   UNL     1      14.488  -6.408  -1.106  0.00  0.00    +0.000 HD
ATOM     13  H   UNL     1      15.500  -5.198  -0.355  0.00  0.00    +0.000 HD
ATOM     14  H   UNL     1      18.323  -7.662   0.413  0.00  0.00    +0.000 HD
ATOM     15  H   UNL     1      17.885  -5.965   0.580  0.00  0.00    +0.000 HD
ENDROOT
BRANCH   4  16
ATOM     16  C   UNL     1      15.670  -7.465   1.159  0.00  0.00    +0.000 C 
ATOM     17  H   UNL     1      15.811  -6.599   1.816  0.00  0.00    +0.000 HD
ATOM     18  H   UNL     1      14.594  -7.644   1.067  0.00  0.00    +0.000 HD
ATOM     19  H   UNL     1      16.118  -8.337   1.648  0.00  0.00    +0.000 HD
ENDBRANCH   4  16
BRANCH   2  20
ATOM     20  O   UNL     1      15.470  -4.714  -2.914  0.00  0.00    +0.000 OA
ATOM     21  H   UNL     1      15.046  -4.204  -2.201  0.00  0.00    +0.000 HD
ENDBRANCH   2  20
BRANCH   1  22
ATOM     22  C   UNL     1      18.299  -5.203  -3.552  0.00  0.00    +0.000 C 
ATOM     23  H   UNL     1      17.603  -4.634  -4.182  0.00  0.00    +0.000 HD
BRANCH  22  24
ATOM     24  C   UNL     1      19.569  -4.370  -3.403  0.00  0.00    +0.000 C 
ATOM     25  H   UNL     1      19.852  -3.859  -4.328  0.00  0.00    +0.000 HD
ATOM     26  H   UNL     1      19.416  -3.591  -2.647  0.00  0.00    +0.000 HD
ATOM     27  H   UNL     1      20.412  -4.985  -3.071  0.00  0.00    +0.000 HD
ENDBRANCH  22  24
BRANCH  22  28
ATOM     28  C   UNL     1      18.601  -6.530  -4.242  0.00  0.00    +0.000 C 
ATOM     29  H   UNL     1      18.741  -7.364  -3.549  0.00  0.00    +0.000 HD
ATOM     30  H   UNL     1      19.549  -6.437  -4.788  0.00  0.00    +0.000 HD
ATOM     31  H   UNL     1      17.858  -6.809  -4.992  0.00  0.00    +0.000 HD
ENDBRANCH  22  28
ENDBRANCH   1  22
TORSDOF 5
ENDMDL
MODEL 8
REMARK VINA RESULT:    -4.497     16.200     17.268
REMARK INTER + INTRA:          -5.484
REMARK INTER:                  -5.286
REMARK INTRA:                  -0.198
REMARK UNBOUND:                -0.198
REMARK  Name = 16666
REMARK  5 active torsions:
REMARK  status: ('A' for Active; 'I' for Inactive)
REMARK    1  A    between atoms: O_1  and  C_3
REMARK    2  A    between atoms: C_2  and  C_8
REMARK    3  A    between atoms: C_5  and  C_9
REMARK    4  A    between atoms: C_8  and  C_10
REMARK    5  A    between atoms: C_8  and  C_11
REMARK                            x       y       z     vdW  Elec       q    Type
REMARK                         _______ _______ _______ _____ _____    ______ ____
ROOT
ATOM      1  C   UNL     1      -7.793  -7.386 -12.034  0.00  0.00    +0.000 C 
ATOM      2  C   UNL     1      -8.764  -7.320 -13.224  0.00  0.00    +0.000 C 
ATOM      3  C   UNL     1      -8.496  -7.932 -10.784  0.00  0.00    +0.000 C 
ATOM      4  C   UNL     1     -10.725  -7.081 -11.631  0.00  0.00    +0.000 C 
ATOM      5  C   UNL     1     -10.028  -6.528 -12.877  0.00  0.00    +0.000 C 
ATOM      6  C   UNL     1      -9.753  -7.135 -10.445  0.00  0.00    +0.000 C 
ATOM      7  H   UNL     1      -7.447  -6.364 -11.821  0.00  0.00    +0.000 HD
ATOM      8  H   UNL     1      -9.084  -8.313 -13.550  0.00  0.00    +0.000 HD
ATOM      9  H   UNL     1      -7.838  -7.895  -9.910  0.00  0.00    +0.000 HD
ATOM     10  H   UNL     1      -8.805  -8.974 -10.915  0.00  0.00    +0.000 HD
ATOM     11  H   UNL     1     -11.065  -8.103 -11.848  0.00  0.00    +0.000 HD
ATOM     12  H   UNL     1     -10.711  -6.543 -13.735  0.00  0.00    +0.000 HD
ATOM     13  H   UNL     1      -9.768  -5.471 -12.728  0.00  0.00    +0.000 HD
ATOM     14  H   UNL     1     -10.247  -7.589  -9.578  0.00  0.00    +0.000 HD
ATOM     15  H   UNL     1      -9.467  -6.118 -10.150  0.00  0.00    +0.000 HD
ENDROOT
BRANCH   4  16
ATOM     16  C   UNL     1     -11.955  -6.243 -11.283  0.00  0.00    +0.000 C 
ATOM     17  H   UNL     1     -12.869  -6.839 -11.373  0.00  0.00    +0.000 HD
ATOM     18  H   UNL     1     -11.894  -5.874 -10.254  0.00  0.00    +0.000 HD
ATOM     19  H   UNL     1     -12.048  -5.378 -11.948  0.00  0.00    +0.000 HD
ENDBRANCH   4  16
BRANCH   2  20
ATOM     20  O   UNL     1      -8.117  -6.693 -14.328  0.00  0.00    +0.000 OA
ATOM     21  H   UNL     1      -8.319  -5.742 -14.294  0.00  0.00    +0.000 HD
ENDBRANCH   2  20
BRANCH   1  22
ATOM     22  C   UNL     1      -6.562  -8.234 -12.365  0.00  0.00    +0.000 C 
ATOM     23  H   UNL     1      -6.381  -8.202 -13.447  0.00  0.00    +0.000 HD
BRANCH  22  24
ATOM     24  C   UNL     1      -5.324  -7.668 -11.675  0.00  0.00    +0.000 C 
ATOM     25  H   UNL     1      -4.953  -6.755 -12.151  0.00  0.00    +0.000 HD
ATOM     26  H   UNL     1      -5.563  -7.407 -10.638  0.00  0.00    +0.000 HD
ATOM     27  H   UNL     1      -4.512  -8.402 -11.647  0.00  0.00    +0.000 HD
ENDBRANCH  22  24
BRANCH  22  28
ATOM     28  C   UNL     1      -6.790  -9.687 -11.956  0.00  0.00    +0.000 C 
ATOM     29  H   UNL     1      -6.219  -9.991 -11.076  0.00  0.00    +0.000 HD
ATOM     30  H   UNL     1      -6.450 -10.341 -12.769  0.00  0.00    +0.000 HD
ATOM     31  H   UNL     1      -7.843  -9.935 -11.803  0.00  0.00    +0.000 HD
ENDBRANCH  22  28
ENDBRANCH   1  22
TORSDOF 5
ENDMDL
MODEL 9
REMARK VINA RESULT:    -4.496     25.116     26.761
REMARK INTER + INTRA:          -5.483
REMARK INTER:                  -5.271
REMARK INTRA:                  -0.212
REMARK UNBOUND:                -0.198
REMARK  Name = 16666
REMARK  5 active torsions:
REMARK  status: ('A' for Active; 'I' for Inactive)
REMARK    1  A    between atoms: O_1  and  C_3
REMARK    2  A    between atoms: C_2  and  C_8
REMARK    3  A    between atoms: C_5  and  C_9
REMARK    4  A    between atoms: C_8  and  C_10
REMARK    5  A    between atoms: C_8  and  C_11
REMARK                            x       y       z     vdW  Elec       q    Type
REMARK                         _______ _______ _______ _____ _____    ______ ____
ROOT
ATOM      1  C   UNL     1      17.699  -6.442  -2.609  0.00  0.00    +0.000 C 
ATOM      2  C   UNL     1      18.493  -6.118  -1.333  0.00  0.00    +0.000 C 
ATOM      3  C   UNL     1      16.433  -5.578  -2.699  0.00  0.00    +0.000 C 
ATOM      4  C   UNL     1      16.362  -5.369  -0.177  0.00  0.00    +0.000 C 
ATOM      5  C   UNL     1      17.620  -6.237  -0.080  0.00  0.00    +0.000 C 
ATOM      6  C   UNL     1      15.569  -5.704  -1.446  0.00  0.00    +0.000 C 
ATOM      7  H   UNL     1      17.397  -7.498  -2.563  0.00  0.00    +0.000 HD
ATOM      8  H   UNL     1      18.902  -5.105  -1.348  0.00  0.00    +0.000 HD
ATOM      9  H   UNL     1      15.816  -5.867  -3.555  0.00  0.00    +0.000 HD
ATOM     10  H   UNL     1      16.674  -4.517  -2.815  0.00  0.00    +0.000 HD
ATOM     11  H   UNL     1      16.669  -4.316  -0.227  0.00  0.00    +0.000 HD
ATOM     12  H   UNL     1      18.211  -5.956   0.800  0.00  0.00    +0.000 HD
ATOM     13  H   UNL     1      17.344  -7.288   0.076  0.00  0.00    +0.000 HD
ATOM     14  H   UNL     1      14.705  -5.035  -1.534  0.00  0.00    +0.000 HD
ATOM     15  H   UNL     1      15.174  -6.726  -1.383  0.00  0.00    +0.000 HD
ENDROOT
BRANCH   4  16
ATOM     16  C   UNL     1      15.489  -5.544   1.066  0.00  0.00    +0.000 C 
ATOM     17  H   UNL     1      15.880  -6.343   1.705  0.00  0.00    +0.000 HD
ATOM     18  H   UNL     1      15.468  -4.622   1.656  0.00  0.00    +0.000 HD
ATOM     19  H   UNL     1      14.459  -5.798   0.797  0.00  0.00    +0.000 HD
ENDBRANCH   4  16
BRANCH   2  20
ATOM     20  O   UNL     1      19.589  -7.022  -1.217  0.00  0.00    +0.000 OA
ATOM     21  H   UNL     1      19.283  -7.903  -1.496  0.00  0.00    +0.000 HD
ENDBRANCH   2  20
BRANCH   1  22
ATOM     22  C   UNL     1      18.558  -6.258  -3.863  0.00  0.00    +0.000 C 
ATOM     23  H   UNL     1      19.397  -6.965  -3.833  0.00  0.00    +0.000 HD
BRANCH  22  24
ATOM     24  C   UNL     1      17.744  -6.565  -5.116  0.00  0.00    +0.000 C 
ATOM     25  H   UNL     1      17.048  -7.398  -4.978  0.00  0.00    +0.000 HD
ATOM     26  H   UNL     1      17.139  -5.693  -5.389  0.00  0.00    +0.000 HD
ATOM     27  H   UNL     1      18.393  -6.790  -5.969  0.00  0.00    +0.000 HD
ENDBRANCH  22  24
BRANCH  22  28
ATOM     28  C   UNL     1      19.122  -4.842  -3.919  0.00  0.00    +0.000 C 
ATOM     29  H   UNL     1      20.107  -4.741  -3.455  0.00  0.00    +0.000 HD
ATOM     30  H   UNL     1      18.460  -4.174  -3.354  0.00  0.00    +0.000 HD
ATOM     31  H   UNL     1      19.160  -4.429  -4.930  0.00  0.00    +0.000 HD
ENDBRANCH  22  28
ENDBRANCH   1  22
TORSDOF 5
ENDMDL
MODEL 10
REMARK VINA RESULT:    -4.420     30.914     32.284
REMARK INTER + INTRA:          -5.393
REMARK INTER:                  -5.176
REMARK INTRA:                  -0.218
REMARK UNBOUND:                -0.198
REMARK  Name = 16666
REMARK  5 active torsions:
REMARK  status: ('A' for Active; 'I' for Inactive)
REMARK    1  A    between atoms: O_1  and  C_3
REMARK    2  A    between atoms: C_2  and  C_8
REMARK    3  A    between atoms: C_5  and  C_9
REMARK    4  A    between atoms: C_8  and  C_10
REMARK    5  A    between atoms: C_8  and  C_11
REMARK                            x       y       z     vdW  Elec       q    Type
REMARK                         _______ _______ _______ _____ _____    ______ ____
ROOT
ATOM      1  C   UNL     1       1.279   4.763 -20.637  0.00  0.00    +0.000 C 
ATOM      2  C   UNL     1       0.014   3.917 -20.412  0.00  0.00    +0.000 C 
ATOM      3  C   UNL     1       1.151   5.608 -21.912  0.00  0.00    +0.000 C 
ATOM      4  C   UNL     1      -0.449   3.917 -22.907  0.00  0.00    +0.000 C 
ATOM      5  C   UNL     1      -0.320   3.066 -21.641  0.00  0.00    +0.000 C 
ATOM      6  C   UNL     1       0.819   4.750 -23.131  0.00  0.00    +0.000 C 
ATOM      7  H   UNL     1       2.130   4.077 -20.758  0.00  0.00    +0.000 HD
ATOM      8  H   UNL     1      -0.861   4.534 -20.197  0.00  0.00    +0.000 HD
ATOM      9  H   UNL     1       2.081   6.142 -22.129  0.00  0.00    +0.000 HD
ATOM     10  H   UNL     1       0.359   6.358 -21.824  0.00  0.00    +0.000 HD
ATOM     11  H   UNL     1      -1.297   4.603 -22.780  0.00  0.00    +0.000 HD
ATOM     12  H   UNL     1      -1.250   2.514 -21.455  0.00  0.00    +0.000 HD
ATOM     13  H   UNL     1       0.454   2.299 -21.777  0.00  0.00    +0.000 HD
ATOM     14  H   UNL     1       0.689   5.399 -24.006  0.00  0.00    +0.000 HD
ATOM     15  H   UNL     1       1.667   4.090 -23.350  0.00  0.00    +0.000 HD
ENDROOT
BRANCH   4  16
ATOM     16  C   UNL     1      -0.737   3.036 -24.122  0.00  0.00    +0.000 C 
ATOM     17  H   UNL     1      -1.816   2.934 -24.280  0.00  0.00    +0.000 HD
ATOM     18  H   UNL     1      -0.305   3.473 -25.029  0.00  0.00    +0.000 HD
ATOM     19  H   UNL     1      -0.316   2.033 -23.996  0.00  0.00    +0.000 HD
ENDBRANCH   4  16
BRANCH   2  20
ATOM     20  O   UNL     1       0.216   3.054 -19.296  0.00  0.00    +0.000 OA
ATOM     21  H   UNL     1       0.519   3.597 -18.547  0.00  0.00    +0.000 HD
ENDBRANCH   2  20
BRANCH   1  22
ATOM     22  C   UNL     1       1.571   5.661 -19.432  0.00  0.00    +0.000 C 
ATOM     23  H   UNL     1       1.610   5.045 -18.524  0.00  0.00    +0.000 HD
BRANCH  22  24
ATOM     24  C   UNL     1       2.931   6.336 -19.588  0.00  0.00    +0.000 C 
ATOM     25  H   UNL     1       2.894   7.414 -19.407  0.00  0.00    +0.000 HD
ATOM     26  H   UNL     1       3.638   5.919 -18.860  0.00  0.00    +0.000 HD
ATOM     27  H   UNL     1       3.351   6.162 -20.585  0.00  0.00    +0.000 HD
ENDBRANCH  22  24
BRANCH  22  28
ATOM     28  C   UNL     1       0.469   6.702 -19.263  0.00  0.00    +0.000 C 
ATOM     29  H   UNL     1      -0.529   6.271 -19.148  0.00  0.00    +0.000 HD
ATOM     30  H   UNL     1       0.422   7.319 -20.169  0.00  0.00    +0.000 HD
ATOM     31  H   UNL     1       0.652   7.400 -18.443  0.00  0.00    +0.000 HD
ENDBRANCH  22  28
ENDBRANCH   1  22
TORSDOF 5
ENDMDL
