MODEL 1
REMARK VINA RESULT:    -4.166      0.000      0.000
REMARK INTER + INTRA:          -6.061
REMARK INTER:                  -5.748
REMARK INTRA:                  -0.312
REMARK UNBOUND:                -0.190
REMARK  Name = 7826
REMARK  8 active torsions:
REMARK  status: ('A' for Active; 'I' for Inactive)
REMARK    1  A    between atoms: O_1  and  C_9
REMARK    2  A    between atoms: O_1  and  C_10
REMARK    3  A    between atoms: C_3  and  C_4
REMARK    4  A    between atoms: C_3  and  C_5
REMARK    5  A    between atoms: C_4  and  C_6
REMARK    6  A    between atoms: C_5  and  C_7
REMARK    7  A    between atoms: C_6  and  C_8
REMARK    8  A    between atoms: C_7  and  C_9
REMARK                            x       y       z     vdW  Elec       q    Type
REMARK                         _______ _______ _______ _____ _____    ______ ____
ROOT
ATOM      1  C   UNL     1      -5.109   4.741  24.630  0.00  0.00    +0.000 C 
ATOM      2  H   UNL     1      -5.568   4.014  23.948  0.00  0.00    +0.000 HD
ATOM      3  H   UNL     1      -5.182   5.725  24.152  0.00  0.00    +0.000 HD
ENDROOT
BRANCH   1   4
ATOM      4  C   UNL     1      -3.638   4.384  24.852  0.00  0.00    +0.000 C 
ATOM      5  H   UNL     1      -3.470   4.157  25.911  0.00  0.00    +0.000 HD
ATOM      6  H   UNL     1      -3.391   3.480  24.284  0.00  0.00    +0.000 HD
BRANCH   4   7
ATOM      7  C   UNL     1      -2.719   5.528  24.422  0.00  0.00    +0.000 C 
ATOM      8  H   UNL     1      -3.313   6.340  23.989  0.00  0.00    +0.000 HD
ATOM      9  H   UNL     1      -2.030   5.178  23.644  0.00  0.00    +0.000 HD
BRANCH   7  10
ATOM     10  C   UNL     1      -1.915   6.066  25.594  0.00  0.00    +0.000 C 
ATOM     11  H   UNL     1      -2.553   6.220  26.470  0.00  0.00    +0.000 HD
ATOM     12  H   UNL     1      -1.460   7.026  25.332  0.00  0.00    +0.000 HD
ATOM     13  H   UNL     1      -1.112   5.374  25.871  0.00  0.00    +0.000 HD
ENDBRANCH   7  10
ENDBRANCH   4   7
ENDBRANCH   1   4
BRANCH   1  14
ATOM     14  C   UNL     1      -5.882   4.759  25.953  0.00  0.00    +0.000 C 
ATOM     15  H   UNL     1      -6.272   5.768  26.137  0.00  0.00    +0.000 HD
ATOM     16  H   UNL     1      -6.754   4.097  25.876  0.00  0.00    +0.000 HD
BRANCH  14  17
ATOM     17  C   UNL     1      -5.021   4.325  27.138  0.00  0.00    +0.000 C 
ATOM     18  H   UNL     1      -4.247   3.629  26.794  0.00  0.00    +0.000 HD
ATOM     19  H   UNL     1      -4.536   5.205  27.576  0.00  0.00    +0.000 HD
BRANCH  17  21
ATOM     20  O   UNL     1      -5.511   2.571  28.751  0.00  0.00    +0.000 OA
ATOM     21  C   UNL     1      -5.811   3.636  28.229  0.00  0.00    +0.000 C 
BRANCH  21  22
ATOM     22  O   UNL     1      -6.924   4.378  28.509  0.00  0.00    +0.000 OA
BRANCH  22  23
ATOM     23  C   UNL     1      -6.859   5.156  29.708  0.00  0.00    +0.000 C 
ATOM     24  H   UNL     1      -6.597   4.521  30.559  0.00  0.00    +0.000 HD
ATOM     25  H   UNL     1      -7.848   5.589  29.885  0.00  0.00    +0.000 HD
ATOM     26  H   UNL     1      -6.136   5.969  29.594  0.00  0.00    +0.000 HD
ENDBRANCH  22  23
ENDBRANCH  21  22
ENDBRANCH  17  21
ENDBRANCH  14  17
ENDBRANCH   1  14
TORSDOF 8
ENDMDL
MODEL 2
REMARK VINA RESULT:    -4.075     29.385     30.732
REMARK INTER + INTRA:          -5.933
REMARK INTER:                  -5.712
REMARK INTRA:                  -0.222
REMARK UNBOUND:                -0.190
REMARK  Name = 7826
REMARK  8 active torsions:
REMARK  status: ('A' for Active; 'I' for Inactive)
REMARK    1  A    between atoms: O_1  and  C_9
REMARK    2  A    between atoms: O_1  and  C_10
REMARK    3  A    between atoms: C_3  and  C_4
REMARK    4  A    between atoms: C_3  and  C_5
REMARK    5  A    between atoms: C_4  and  C_6
REMARK    6  A    between atoms: C_5  and  C_7
REMARK    7  A    between atoms: C_6  and  C_8
REMARK    8  A    between atoms: C_7  and  C_9
REMARK                            x       y       z     vdW  Elec       q    Type
REMARK                         _______ _______ _______ _____ _____    ______ ____
ROOT
ATOM      1  C   UNL     1      -6.374 -12.681   4.316  0.00  0.00    +0.000 C 
ATOM      2  H   UNL     1      -5.647 -13.061   5.045  0.00  0.00    +0.000 HD
ATOM      3  H   UNL     1      -6.305 -11.587   4.330  0.00  0.00    +0.000 HD
ENDROOT
BRANCH   1   4
ATOM      4  C   UNL     1      -7.784 -13.113   4.722  0.00  0.00    +0.000 C 
ATOM      5  H   UNL     1      -8.496 -12.310   4.493  0.00  0.00    +0.000 HD
ATOM      6  H   UNL     1      -8.084 -13.987   4.132  0.00  0.00    +0.000 HD
BRANCH   4   7
ATOM      7  C   UNL     1      -7.856 -13.449   6.212  0.00  0.00    +0.000 C 
ATOM      8  H   UNL     1      -8.581 -12.792   6.706  0.00  0.00    +0.000 HD
ATOM      9  H   UNL     1      -6.882 -13.268   6.681  0.00  0.00    +0.000 HD
BRANCH   7  10
ATOM     10  C   UNL     1      -8.257 -14.897   6.437  0.00  0.00    +0.000 C 
ATOM     11  H   UNL     1      -9.308 -14.972   6.735  0.00  0.00    +0.000 HD
ATOM     12  H   UNL     1      -7.647 -15.341   7.230  0.00  0.00    +0.000 HD
ATOM     13  H   UNL     1      -8.115 -15.490   5.527  0.00  0.00    +0.000 HD
ENDBRANCH   7  10
ENDBRANCH   4   7
ENDBRANCH   1   4
BRANCH   1  14
ATOM     14  C   UNL     1      -6.015 -13.198   2.919  0.00  0.00    +0.000 C 
ATOM     15  H   UNL     1      -5.482 -12.416   2.364  0.00  0.00    +0.000 HD
ATOM     16  H   UNL     1      -5.321 -14.043   3.010  0.00  0.00    +0.000 HD
BRANCH  14  17
ATOM     17  C   UNL     1      -7.244 -13.636   2.125  0.00  0.00    +0.000 C 
ATOM     18  H   UNL     1      -7.632 -14.576   2.537  0.00  0.00    +0.000 HD
ATOM     19  H   UNL     1      -8.022 -12.868   2.207  0.00  0.00    +0.000 HD
BRANCH  17  21
ATOM     20  O   UNL     1      -7.190 -13.055  -0.236  0.00  0.00    +0.000 OA
ATOM     21  C   UNL     1      -6.958 -13.859   0.657  0.00  0.00    +0.000 C 
BRANCH  21  22
ATOM     22  O   UNL     1      -6.431 -15.108   0.490  0.00  0.00    +0.000 OA
BRANCH  22  23
ATOM     23  C   UNL     1      -7.374 -16.184   0.521  0.00  0.00    +0.000 C 
ATOM     24  H   UNL     1      -7.801 -16.284   1.523  0.00  0.00    +0.000 HD
ATOM     25  H   UNL     1      -6.844 -17.107   0.273  0.00  0.00    +0.000 HD
ATOM     26  H   UNL     1      -8.160 -16.020  -0.221  0.00  0.00    +0.000 HD
ENDBRANCH  22  23
ENDBRANCH  21  22
ENDBRANCH  17  21
ENDBRANCH  14  17
ENDBRANCH   1  14
TORSDOF 8
ENDMDL
MODEL 3
REMARK VINA RESULT:    -4.075      1.249      2.064
REMARK INTER + INTRA:          -5.932
REMARK INTER:                  -5.677
REMARK INTRA:                  -0.255
REMARK UNBOUND:                -0.190
REMARK  Name = 7826
REMARK  8 active torsions:
REMARK  status: ('A' for Active; 'I' for Inactive)
REMARK    1  A    between atoms: O_1  and  C_9
REMARK    2  A    between atoms: O_1  and  C_10
REMARK    3  A    between atoms: C_3  and  C_4
REMARK    4  A    between atoms: C_3  and  C_5
REMARK    5  A    between atoms: C_4  and  C_6
REMARK    6  A    between atoms: C_5  and  C_7
REMARK    7  A    between atoms: C_6  and  C_8
REMARK    8  A    between atoms: C_7  and  C_9
REMARK                            x       y       z     vdW  Elec       q    Type
REMARK                         _______ _______ _______ _____ _____    ______ ____
ROOT
ATOM      1  C   UNL     1      -3.406   5.031  24.537  0.00  0.00    +0.000 C 
ATOM      2  H   UNL     1      -2.802   4.203  24.145  0.00  0.00    +0.000 HD
ATOM      3  H   UNL     1      -3.596   5.716  23.702  0.00  0.00    +0.000 HD
ENDROOT
BRANCH   1   4
ATOM      4  C   UNL     1      -2.632   5.761  25.635  0.00  0.00    +0.000 C 
ATOM      5  H   UNL     1      -3.316   6.400  26.207  0.00  0.00    +0.000 HD
ATOM      6  H   UNL     1      -2.212   5.029  26.336  0.00  0.00    +0.000 HD
BRANCH   4   7
ATOM      7  C   UNL     1      -1.507   6.614  25.049  0.00  0.00    +0.000 C 
ATOM      8  H   UNL     1      -0.547   6.311  25.482  0.00  0.00    +0.000 HD
ATOM      9  H   UNL     1      -1.663   7.667  25.311  0.00  0.00    +0.000 HD
BRANCH   7  10
ATOM     10  C   UNL     1      -1.437   6.482  23.536  0.00  0.00    +0.000 C 
ATOM     11  H   UNL     1      -1.727   7.417  23.047  0.00  0.00    +0.000 HD
ATOM     12  H   UNL     1      -2.115   5.694  23.194  0.00  0.00    +0.000 HD
ATOM     13  H   UNL     1      -0.424   6.223  23.211  0.00  0.00    +0.000 HD
ENDBRANCH   7  10
ENDBRANCH   4   7
ENDBRANCH   1   4
BRANCH   1  14
ATOM     14  C   UNL     1      -4.738   4.487  25.064  0.00  0.00    +0.000 C 
ATOM     15  H   UNL     1      -5.550   5.171  24.786  0.00  0.00    +0.000 HD
ATOM     16  H   UNL     1      -4.959   3.528  24.577  0.00  0.00    +0.000 HD
BRANCH  14  17
ATOM     17  C   UNL     1      -4.732   4.295  26.579  0.00  0.00    +0.000 C 
ATOM     18  H   UNL     1      -4.512   3.247  26.816  0.00  0.00    +0.000 HD
ATOM     19  H   UNL     1      -3.954   4.928  27.021  0.00  0.00    +0.000 HD
BRANCH  17  21
ATOM     20  O   UNL     1      -6.741   5.617  26.942  0.00  0.00    +0.000 OA
ATOM     21  C   UNL     1      -6.050   4.650  27.231  0.00  0.00    +0.000 C 
BRANCH  21  22
ATOM     22  O   UNL     1      -6.323   3.736  28.210  0.00  0.00    +0.000 OA
BRANCH  22  23
ATOM     23  C   UNL     1      -5.217   2.929  28.625  0.00  0.00    +0.000 C 
ATOM     24  H   UNL     1      -4.292   3.289  28.165  0.00  0.00    +0.000 HD
ATOM     25  H   UNL     1      -5.400   1.905  28.289  0.00  0.00    +0.000 HD
ATOM     26  H   UNL     1      -5.135   2.931  29.715  0.00  0.00    +0.000 HD
ENDBRANCH  22  23
ENDBRANCH  21  22
ENDBRANCH  17  21
ENDBRANCH  14  17
ENDBRANCH   1  14
TORSDOF 8
ENDMDL
MODEL 4
REMARK VINA RESULT:    -3.931     28.346     29.680
REMARK INTER + INTRA:          -5.730
REMARK INTER:                  -5.366
REMARK INTRA:                  -0.364
REMARK UNBOUND:                -0.190
REMARK  Name = 7826
REMARK  8 active torsions:
REMARK  status: ('A' for Active; 'I' for Inactive)
REMARK    1  A    between atoms: O_1  and  C_9
REMARK    2  A    between atoms: O_1  and  C_10
REMARK    3  A    between atoms: C_3  and  C_4
REMARK    4  A    between atoms: C_3  and  C_5
REMARK    5  A    between atoms: C_4  and  C_6
REMARK    6  A    between atoms: C_5  and  C_7
REMARK    7  A    between atoms: C_6  and  C_8
REMARK    8  A    between atoms: C_7  and  C_9
REMARK                            x       y       z     vdW  Elec       q    Type
REMARK                         _______ _______ _______ _____ _____    ______ ____
ROOT
ATOM      1  C   UNL     1      -7.808 -13.704   6.459  0.00  0.00    +0.000 C 
ATOM      2  H   UNL     1      -7.026 -13.161   7.003  0.00  0.00    +0.000 HD
ATOM      3  H   UNL     1      -8.747 -13.554   7.006  0.00  0.00    +0.000 HD
ENDROOT
BRANCH   1   4
ATOM      4  C   UNL     1      -7.470 -15.195   6.418  0.00  0.00    +0.000 C 
ATOM      5  H   UNL     1      -7.336 -15.515   5.377  0.00  0.00    +0.000 HD
ATOM      6  H   UNL     1      -6.518 -15.369   6.934  0.00  0.00    +0.000 HD
BRANCH   4   7
ATOM      7  C   UNL     1      -8.569 -16.033   7.072  0.00  0.00    +0.000 C 
ATOM      8  H   UNL     1      -9.149 -15.410   7.763  0.00  0.00    +0.000 HD
ATOM      9  H   UNL     1      -8.120 -16.841   7.662  0.00  0.00    +0.000 HD
BRANCH   7  10
ATOM     10  C   UNL     1      -9.504 -16.633   6.035  0.00  0.00    +0.000 C 
ATOM     11  H   UNL     1      -8.939 -17.117   5.231  0.00  0.00    +0.000 HD
ATOM     12  H   UNL     1     -10.128 -15.853   5.590  0.00  0.00    +0.000 HD
ATOM     13  H   UNL     1     -10.165 -17.380   6.488  0.00  0.00    +0.000 HD
ENDBRANCH   7  10
ENDBRANCH   4   7
ENDBRANCH   1   4
BRANCH   1  14
ATOM     14  C   UNL     1      -7.943 -13.126   5.046  0.00  0.00    +0.000 C 
ATOM     15  H   UNL     1      -8.944 -12.694   4.921  0.00  0.00    +0.000 HD
ATOM     16  H   UNL     1      -7.230 -12.302   4.919  0.00  0.00    +0.000 HD
BRANCH  14  17
ATOM     17  C   UNL     1      -7.703 -14.174   3.961  0.00  0.00    +0.000 C 
ATOM     18  H   UNL     1      -7.112 -15.001   4.373  0.00  0.00    +0.000 HD
ATOM     19  H   UNL     1      -8.667 -14.567   3.617  0.00  0.00    +0.000 HD
BRANCH  17  21
ATOM     20  O   UNL     1      -7.443 -13.478   1.645  0.00  0.00    +0.000 OA
ATOM     21  C   UNL     1      -6.963 -13.630   2.759  0.00  0.00    +0.000 C 
BRANCH  21  22
ATOM     22  O   UNL     1      -5.670 -13.367   3.115  0.00  0.00    +0.000 OA
BRANCH  22  23
ATOM     23  C   UNL     1      -4.856 -14.515   3.372  0.00  0.00    +0.000 C 
ATOM     24  H   UNL     1      -5.236 -15.062   4.239  0.00  0.00    +0.000 HD
ATOM     25  H   UNL     1      -3.842 -14.170   3.592  0.00  0.00    +0.000 HD
ATOM     26  H   UNL     1      -4.823 -15.162   2.490  0.00  0.00    +0.000 HD
ENDBRANCH  22  23
ENDBRANCH  21  22
ENDBRANCH  17  21
ENDBRANCH  14  17
ENDBRANCH   1  14
TORSDOF 8
ENDMDL
MODEL 5
REMARK VINA RESULT:    -3.910     35.708     37.599
REMARK INTER + INTRA:          -5.700
REMARK INTER:                  -5.415
REMARK INTRA:                  -0.285
REMARK UNBOUND:                -0.190
REMARK  Name = 7826
REMARK  8 active torsions:
REMARK  status: ('A' for Active; 'I' for Inactive)
REMARK    1  A    between atoms: O_1  and  C_9
REMARK    2  A    between atoms: O_1  and  C_10
REMARK    3  A    between atoms: C_3  and  C_4
REMARK    4  A    between atoms: C_3  and  C_5
REMARK    5  A    between atoms: C_4  and  C_6
REMARK    6  A    between atoms: C_5  and  C_7
REMARK    7  A    between atoms: C_6  and  C_8
REMARK    8  A    between atoms: C_7  and  C_9
REMARK                            x       y       z     vdW  Elec       q    Type
REMARK                         _______ _______ _______ _____ _____    ______ ____
ROOT
ATOM      1  C   UNL     1      17.155  -4.895  -3.107  0.00  0.00    +0.000 C 
ATOM      2  H   UNL     1      17.221  -3.956  -3.670  0.00  0.00    +0.000 HD
ATOM      3  H   UNL     1      17.980  -4.898  -2.384  0.00  0.00    +0.000 HD
ENDROOT
BRANCH   1   4
ATOM      4  C   UNL     1      17.305  -6.081  -4.061  0.00  0.00    +0.000 C 
ATOM      5  H   UNL     1      16.989  -7.003  -3.557  0.00  0.00    +0.000 HD
ATOM      6  H   UNL     1      16.643  -5.942  -4.924  0.00  0.00    +0.000 HD
BRANCH   4   7
ATOM      7  C   UNL     1      18.749  -6.230  -4.540  0.00  0.00    +0.000 C 
ATOM      8  H   UNL     1      19.101  -5.282  -4.961  0.00  0.00    +0.000 HD
ATOM      9  H   UNL     1      18.801  -6.979  -5.339  0.00  0.00    +0.000 HD
BRANCH   7  10
ATOM     10  C   UNL     1      19.672  -6.647  -3.407  0.00  0.00    +0.000 C 
ATOM     11  H   UNL     1      19.616  -7.726  -3.232  0.00  0.00    +0.000 HD
ATOM     12  H   UNL     1      19.389  -6.138  -2.481  0.00  0.00    +0.000 HD
ATOM     13  H   UNL     1      20.712  -6.389  -3.632  0.00  0.00    +0.000 HD
ENDBRANCH   7  10
ENDBRANCH   4   7
ENDBRANCH   1   4
BRANCH   1  14
ATOM     14  C   UNL     1      15.820  -4.950  -2.357  0.00  0.00    +0.000 C 
ATOM     15  H   UNL     1      15.871  -4.309  -1.468  0.00  0.00    +0.000 HD
ATOM     16  H   UNL     1      15.027  -4.538  -2.994  0.00  0.00    +0.000 HD
BRANCH  14  17
ATOM     17  C   UNL     1      15.444  -6.371  -1.938  0.00  0.00    +0.000 C 
ATOM     18  H   UNL     1      14.355  -6.446  -1.831  0.00  0.00    +0.000 HD
ATOM     19  H   UNL     1      15.772  -7.076  -2.711  0.00  0.00    +0.000 HD
BRANCH  17  21
ATOM     20  O   UNL     1      17.244  -7.083  -0.466  0.00  0.00    +0.000 OA
ATOM     21  C   UNL     1      16.068  -6.790  -0.625  0.00  0.00    +0.000 C 
BRANCH  21  22
ATOM     22  O   UNL     1      15.099  -6.818   0.338  0.00  0.00    +0.000 OA
BRANCH  22  23
ATOM     23  C   UNL     1      15.402  -7.606   1.494  0.00  0.00    +0.000 C 
ATOM     24  H   UNL     1      15.525  -8.656   1.214  0.00  0.00    +0.000 HD
ATOM     25  H   UNL     1      14.563  -7.524   2.189  0.00  0.00    +0.000 HD
ATOM     26  H   UNL     1      16.303  -7.227   1.985  0.00  0.00    +0.000 HD
ENDBRANCH  22  23
ENDBRANCH  21  22
ENDBRANCH  17  21
ENDBRANCH  14  17
ENDBRANCH   1  14
TORSDOF 8
ENDMDL
MODEL 6
REMARK VINA RESULT:    -3.786     46.304     47.614
REMARK INTER + INTRA:          -5.526
REMARK INTER:                  -5.320
REMARK INTRA:                  -0.206
REMARK UNBOUND:                -0.190
REMARK  Name = 7826
REMARK  8 active torsions:
REMARK  status: ('A' for Active; 'I' for Inactive)
REMARK    1  A    between atoms: O_1  and  C_9
REMARK    2  A    between atoms: O_1  and  C_10
REMARK    3  A    between atoms: C_3  and  C_4
REMARK    4  A    between atoms: C_3  and  C_5
REMARK    5  A    between atoms: C_4  and  C_6
REMARK    6  A    between atoms: C_5  and  C_7
REMARK    7  A    between atoms: C_6  and  C_8
REMARK    8  A    between atoms: C_7  and  C_9
REMARK                            x       y       z     vdW  Elec       q    Type
REMARK                         _______ _______ _______ _____ _____    ______ ____
ROOT
ATOM      1  C   UNL     1       4.030   3.450 -20.859  0.00  0.00    +0.000 C 
ATOM      2  H   UNL     1       4.904   2.885 -21.207  0.00  0.00    +0.000 HD
ATOM      3  H   UNL     1       3.609   3.964 -21.731  0.00  0.00    +0.000 HD
ENDROOT
BRANCH   1   4
ATOM      4  C   UNL     1       4.463   4.480 -19.815  0.00  0.00    +0.000 C 
ATOM      5  H   UNL     1       4.604   5.455 -20.295  0.00  0.00    +0.000 HD
ATOM      6  H   UNL     1       3.669   4.600 -19.068  0.00  0.00    +0.000 HD
BRANCH   4   7
ATOM      7  C   UNL     1       5.760   4.059 -19.122  0.00  0.00    +0.000 C 
ATOM      8  H   UNL     1       6.587   4.078 -19.840  0.00  0.00    +0.000 HD
ATOM      9  H   UNL     1       5.669   3.029 -18.758  0.00  0.00    +0.000 HD
BRANCH   7  10
ATOM     10  C   UNL     1       6.090   4.973 -17.954  0.00  0.00    +0.000 C 
ATOM     11  H   UNL     1       7.021   5.519 -18.134  0.00  0.00    +0.000 HD
ATOM     12  H   UNL     1       6.210   4.389 -17.037  0.00  0.00    +0.000 HD
ATOM     13  H   UNL     1       5.290   5.703 -17.789  0.00  0.00    +0.000 HD
ENDBRANCH   7  10
ENDBRANCH   4   7
ENDBRANCH   1   4
BRANCH   1  14
ATOM     14  C   UNL     1       2.990   2.481 -20.287  0.00  0.00    +0.000 C 
ATOM     15  H   UNL     1       3.392   1.460 -20.304  0.00  0.00    +0.000 HD
ATOM     16  H   UNL     1       2.805   2.725 -19.233  0.00  0.00    +0.000 HD
BRANCH  14  17
ATOM     17  C   UNL     1       1.670   2.520 -21.055  0.00  0.00    +0.000 C 
ATOM     18  H   UNL     1       1.836   2.957 -22.047  0.00  0.00    +0.000 HD
ATOM     19  H   UNL     1       1.291   1.499 -21.177  0.00  0.00    +0.000 HD
BRANCH  17  21
ATOM     20  O   UNL     1       0.785   4.411 -19.807  0.00  0.00    +0.000 OA
ATOM     21  C   UNL     1       0.602   3.337 -20.363  0.00  0.00    +0.000 C 
BRANCH  21  22
ATOM     22  O   UNL     1      -0.586   2.666 -20.433  0.00  0.00    +0.000 OA
BRANCH  22  23
ATOM     23  C   UNL     1      -1.054   2.376 -21.753  0.00  0.00    +0.000 C 
ATOM     24  H   UNL     1      -2.147   2.356 -21.772  0.00  0.00    +0.000 HD
ATOM     25  H   UNL     1      -0.681   1.388 -22.036  0.00  0.00    +0.000 HD
ATOM     26  H   UNL     1      -0.668   3.113 -22.462  0.00  0.00    +0.000 HD
ENDBRANCH  22  23
ENDBRANCH  21  22
ENDBRANCH  17  21
ENDBRANCH  14  17
ENDBRANCH   1  14
TORSDOF 8
ENDMDL
MODEL 7
REMARK VINA RESULT:    -3.756     46.617     48.167
REMARK INTER + INTRA:          -5.483
REMARK INTER:                  -5.302
REMARK INTRA:                  -0.181
REMARK UNBOUND:                -0.190
REMARK  Name = 7826
REMARK  8 active torsions:
REMARK  status: ('A' for Active; 'I' for Inactive)
REMARK    1  A    between atoms: O_1  and  C_9
REMARK    2  A    between atoms: O_1  and  C_10
REMARK    3  A    between atoms: C_3  and  C_4
REMARK    4  A    between atoms: C_3  and  C_5
REMARK    5  A    between atoms: C_4  and  C_6
REMARK    6  A    between atoms: C_5  and  C_7
REMARK    7  A    between atoms: C_6  and  C_8
REMARK    8  A    between atoms: C_7  and  C_9
REMARK                            x       y       z     vdW  Elec       q    Type
REMARK                         _______ _______ _______ _____ _____    ______ ____
ROOT
ATOM      1  C   UNL     1       5.218   4.123 -19.904  0.00  0.00    +0.000 C 
ATOM      2  H   UNL     1       5.510   3.125 -19.554  0.00  0.00    +0.000 HD
ATOM      3  H   UNL     1       5.874   4.375 -20.746  0.00  0.00    +0.000 HD
ENDROOT
BRANCH   1   4
ATOM      4  C   UNL     1       5.412   5.142 -18.780  0.00  0.00    +0.000 C 
ATOM      5  H   UNL     1       5.761   6.093 -19.200  0.00  0.00    +0.000 HD
ATOM      6  H   UNL     1       4.448   5.338 -18.294  0.00  0.00    +0.000 HD
BRANCH   4   7
ATOM      7  C   UNL     1       6.417   4.641 -17.742  0.00  0.00    +0.000 C 
ATOM      8  H   UNL     1       5.891   4.112 -16.940  0.00  0.00    +0.000 HD
ATOM      9  H   UNL     1       6.935   5.493 -17.285  0.00  0.00    +0.000 HD
BRANCH   7  10
ATOM     10  C   UNL     1       7.444   3.711 -18.366  0.00  0.00    +0.000 C 
ATOM     11  H   UNL     1       8.311   4.271 -18.732  0.00  0.00    +0.000 HD
ATOM     12  H   UNL     1       7.005   3.174 -19.212  0.00  0.00    +0.000 HD
ATOM     13  H   UNL     1       7.796   2.970 -17.640  0.00  0.00    +0.000 HD
ENDBRANCH   7  10
ENDBRANCH   4   7
ENDBRANCH   1   4
BRANCH   1  14
ATOM     14  C   UNL     1       3.763   4.092 -20.382  0.00  0.00    +0.000 C 
ATOM     15  H   UNL     1       3.105   4.449 -19.579  0.00  0.00    +0.000 HD
ATOM     16  H   UNL     1       3.638   4.789 -21.220  0.00  0.00    +0.000 HD
BRANCH  14  17
ATOM     17  C   UNL     1       3.321   2.695 -20.816  0.00  0.00    +0.000 C 
ATOM     18  H   UNL     1       4.179   2.149 -21.226  0.00  0.00    +0.000 HD
ATOM     19  H   UNL     1       2.938   2.149 -19.946  0.00  0.00    +0.000 HD
BRANCH  17  21
ATOM     20  O   UNL     1       2.125   1.904 -22.781  0.00  0.00    +0.000 OA
ATOM     21  C   UNL     1       2.237   2.714 -21.872  0.00  0.00    +0.000 C 
BRANCH  21  22
ATOM     22  O   UNL     1       1.430   3.797 -21.661  0.00  0.00    +0.000 OA
BRANCH  22  23
ATOM     23  C   UNL     1       0.115   3.702 -22.217  0.00  0.00    +0.000 C 
ATOM     24  H   UNL     1      -0.013   2.743 -22.727  0.00  0.00    +0.000 HD
ATOM     25  H   UNL     1      -0.003   4.506 -22.948  0.00  0.00    +0.000 HD
ATOM     26  H   UNL     1      -0.637   3.828 -21.433  0.00  0.00    +0.000 HD
ENDBRANCH  22  23
ENDBRANCH  21  22
ENDBRANCH  17  21
ENDBRANCH  14  17
ENDBRANCH   1  14
TORSDOF 8
ENDMDL
MODEL 8
REMARK VINA RESULT:    -3.717      2.120      3.079
REMARK INTER + INTRA:          -5.428
REMARK INTER:                  -5.161
REMARK INTRA:                  -0.268
REMARK UNBOUND:                -0.190
REMARK  Name = 7826
REMARK  8 active torsions:
REMARK  status: ('A' for Active; 'I' for Inactive)
REMARK    1  A    between atoms: O_1  and  C_9
REMARK    2  A    between atoms: O_1  and  C_10
REMARK    3  A    between atoms: C_3  and  C_4
REMARK    4  A    between atoms: C_3  and  C_5
REMARK    5  A    between atoms: C_4  and  C_6
REMARK    6  A    between atoms: C_5  and  C_7
REMARK    7  A    between atoms: C_6  and  C_8
REMARK    8  A    between atoms: C_7  and  C_9
REMARK                            x       y       z     vdW  Elec       q    Type
REMARK                         _______ _______ _______ _____ _____    ______ ____
ROOT
ATOM      1  C   UNL     1      -1.892   6.367  25.295  0.00  0.00    +0.000 C 
ATOM      2  H   UNL     1      -2.205   7.413  25.402  0.00  0.00    +0.000 HD
ATOM      3  H   UNL     1      -0.877   6.288  25.704  0.00  0.00    +0.000 HD
ENDROOT
BRANCH   1   4
ATOM      4  C   UNL     1      -1.880   5.980  23.815  0.00  0.00    +0.000 C 
ATOM      5  H   UNL     1      -1.448   4.979  23.698  0.00  0.00    +0.000 HD
ATOM      6  H   UNL     1      -2.910   5.932  23.441  0.00  0.00    +0.000 HD
BRANCH   4   7
ATOM      7  C   UNL     1      -1.079   6.984  22.984  0.00  0.00    +0.000 C 
ATOM      8  H   UNL     1      -1.731   7.803  22.661  0.00  0.00    +0.000 HD
ATOM      9  H   UNL     1      -0.696   6.496  22.080  0.00  0.00    +0.000 HD
BRANCH   7  10
ATOM     10  C   UNL     1       0.087   7.555  23.774  0.00  0.00    +0.000 C 
ATOM     11  H   UNL     1      -0.002   7.310  24.838  0.00  0.00    +0.000 HD
ATOM     12  H   UNL     1       0.114   8.644  23.677  0.00  0.00    +0.000 HD
ATOM     13  H   UNL     1       1.040   7.158  23.409  0.00  0.00    +0.000 HD
ENDBRANCH   7  10
ENDBRANCH   4   7
ENDBRANCH   1   4
BRANCH   1  14
ATOM     14  C   UNL     1      -2.836   5.465  26.097  0.00  0.00    +0.000 C 
ATOM     15  H   UNL     1      -2.258   4.887  26.829  0.00  0.00    +0.000 HD
ATOM     16  H   UNL     1      -3.534   6.087  26.672  0.00  0.00    +0.000 HD
BRANCH  14  17
ATOM     17  C   UNL     1      -3.628   4.509  25.206  0.00  0.00    +0.000 C 
ATOM     18  H   UNL     1      -3.397   4.712  24.153  0.00  0.00    +0.000 HD
ATOM     19  H   UNL     1      -3.342   3.477  25.438  0.00  0.00    +0.000 HD
BRANCH  17  21
ATOM     20  O   UNL     1      -5.963   4.261  24.573  0.00  0.00    +0.000 OA
ATOM     21  C   UNL     1      -5.125   4.631  25.383  0.00  0.00    +0.000 C 
BRANCH  21  22
ATOM     22  O   UNL     1      -5.384   5.247  26.575  0.00  0.00    +0.000 OA
BRANCH  22  23
ATOM     23  C   UNL     1      -6.259   4.540  27.459  0.00  0.00    +0.000 C 
ATOM     24  H   UNL     1      -5.711   4.200  28.342  0.00  0.00    +0.000 HD
ATOM     25  H   UNL     1      -6.643   3.665  26.927  0.00  0.00    +0.000 HD
ATOM     26  H   UNL     1      -7.102   5.174  27.745  0.00  0.00    +0.000 HD
ENDBRANCH  22  23
ENDBRANCH  21  22
ENDBRANCH  17  21
ENDBRANCH  14  17
ENDBRANCH   1  14
TORSDOF 8
ENDMDL
MODEL 9
REMARK VINA RESULT:    -3.675     46.425     47.054
REMARK INTER + INTRA:          -5.369
REMARK INTER:                  -5.179
REMARK INTRA:                  -0.190
REMARK UNBOUND:                -0.190
REMARK  Name = 7826
REMARK  8 active torsions:
REMARK  status: ('A' for Active; 'I' for Inactive)
REMARK    1  A    between atoms: O_1  and  C_9
REMARK    2  A    between atoms: O_1  and  C_10
REMARK    3  A    between atoms: C_3  and  C_4
REMARK    4  A    between atoms: C_3  and  C_5
REMARK    5  A    between atoms: C_4  and  C_6
REMARK    6  A    between atoms: C_5  and  C_7
REMARK    7  A    between atoms: C_6  and  C_8
REMARK    8  A    between atoms: C_7  and  C_9
REMARK                            x       y       z     vdW  Elec       q    Type
REMARK                         _______ _______ _______ _____ _____    ______ ____
ROOT
ATOM      1  C   UNL     1       4.743   4.433 -19.796  0.00  0.00    +0.000 C 
ATOM      2  H   UNL     1       4.153   3.634 -19.331  0.00  0.00    +0.000 HD
ATOM      3  H   UNL     1       5.382   3.965 -20.554  0.00  0.00    +0.000 HD
ENDROOT
BRANCH   1   4
ATOM      4  C   UNL     1       5.615   5.114 -18.740  0.00  0.00    +0.000 C 
ATOM      5  H   UNL     1       6.211   5.907 -19.208  0.00  0.00    +0.000 HD
ATOM      6  H   UNL     1       4.974   5.593 -17.989  0.00  0.00    +0.000 HD
BRANCH   4   7
ATOM      7  C   UNL     1       6.545   4.112 -18.056  0.00  0.00    +0.000 C 
ATOM      8  H   UNL     1       6.337   3.101 -18.424  0.00  0.00    +0.000 HD
ATOM      9  H   UNL     1       6.359   4.109 -16.976  0.00  0.00    +0.000 HD
BRANCH   7  10
ATOM     10  C   UNL     1       8.006   4.446 -18.310  0.00  0.00    +0.000 C 
ATOM     11  H   UNL     1       8.123   5.015 -19.237  0.00  0.00    +0.000 HD
ATOM     12  H   UNL     1       8.595   3.528 -18.397  0.00  0.00    +0.000 HD
ATOM     13  H   UNL     1       8.421   5.039 -17.488  0.00  0.00    +0.000 HD
ENDBRANCH   7  10
ENDBRANCH   4   7
ENDBRANCH   1   4
BRANCH   1  14
ATOM     14  C   UNL     1       3.802   5.437 -20.471  0.00  0.00    +0.000 C 
ATOM     15  H   UNL     1       4.393   6.205 -20.987  0.00  0.00    +0.000 HD
ATOM     16  H   UNL     1       3.216   4.924 -21.244  0.00  0.00    +0.000 HD
BRANCH  14  17
ATOM     17  C   UNL     1       2.854   6.107 -19.479  0.00  0.00    +0.000 C 
ATOM     18  H   UNL     1       3.072   5.751 -18.465  0.00  0.00    +0.000 HD
ATOM     19  H   UNL     1       3.003   7.193 -19.512  0.00  0.00    +0.000 HD
BRANCH  17  21
ATOM     20  O   UNL     1       0.471   6.593 -19.532  0.00  0.00    +0.000 OA
ATOM     21  C   UNL     1       1.395   5.826 -19.764  0.00  0.00    +0.000 C 
BRANCH  21  22
ATOM     22  O   UNL     1       1.279   4.570 -20.290  0.00  0.00    +0.000 OA
BRANCH  22  23
ATOM     23  C   UNL     1       0.441   3.671 -19.558  0.00  0.00    +0.000 C 
ATOM     24  H   UNL     1       0.026   4.171 -18.678  0.00  0.00    +0.000 HD
ATOM     25  H   UNL     1       1.054   2.829 -19.226  0.00  0.00    +0.000 HD
ATOM     26  H   UNL     1      -0.359   3.291 -20.200  0.00  0.00    +0.000 HD
ENDBRANCH  22  23
ENDBRANCH  21  22
ENDBRANCH  17  21
ENDBRANCH  14  17
ENDBRANCH   1  14
TORSDOF 8
ENDMDL
MODEL 10
REMARK VINA RESULT:    -3.663     46.186     47.240
REMARK INTER + INTRA:          -5.352
REMARK INTER:                  -5.088
REMARK INTRA:                  -0.264
REMARK UNBOUND:                -0.190
REMARK  Name = 7826
REMARK  8 active torsions:
REMARK  status: ('A' for Active; 'I' for Inactive)
REMARK    1  A    between atoms: O_1  and  C_9
REMARK    2  A    between atoms: O_1  and  C_10
REMARK    3  A    between atoms: C_3  and  C_4
REMARK    4  A    between atoms: C_3  and  C_5
REMARK    5  A    between atoms: C_4  and  C_6
REMARK    6  A    between atoms: C_5  and  C_7
REMARK    7  A    between atoms: C_6  and  C_8
REMARK    8  A    between atoms: C_7  and  C_9
REMARK                            x       y       z     vdW  Elec       q    Type
REMARK                         _______ _______ _______ _____ _____    ______ ____
ROOT
ATOM      1  C   UNL     1       3.471   5.680 -19.792  0.00  0.00    +0.000 C 
ATOM      2  H   UNL     1       3.293   4.691 -19.352  0.00  0.00    +0.000 HD
ATOM      3  H   UNL     1       4.110   5.533 -20.671  0.00  0.00    +0.000 HD
ENDROOT
BRANCH   1   4
ATOM      4  C   UNL     1       4.189   6.575 -18.780  0.00  0.00    +0.000 C 
ATOM      5  H   UNL     1       4.548   7.483 -19.280  0.00  0.00    +0.000 HD
ATOM      6  H   UNL     1       3.482   6.891 -18.004  0.00  0.00    +0.000 HD
BRANCH   4   7
ATOM      7  C   UNL     1       5.369   5.847 -18.133  0.00  0.00    +0.000 C 
ATOM      8  H   UNL     1       5.122   5.589 -17.097  0.00  0.00    +0.000 HD
ATOM      9  H   UNL     1       6.243   6.508 -18.105  0.00  0.00    +0.000 HD
BRANCH   7  10
ATOM     10  C   UNL     1       5.726   4.580 -18.893  0.00  0.00    +0.000 C 
ATOM     11  H   UNL     1       5.626   3.698 -18.254  0.00  0.00    +0.000 HD
ATOM     12  H   UNL     1       6.761   4.630 -19.246  0.00  0.00    +0.000 HD
ATOM     13  H   UNL     1       5.076   4.449 -19.765  0.00  0.00    +0.000 HD
ENDBRANCH   7  10
ENDBRANCH   4   7
ENDBRANCH   1   4
BRANCH   1  14
ATOM     14  C   UNL     1       2.137   6.294 -20.227  0.00  0.00    +0.000 C 
ATOM     15  H   UNL     1       2.162   7.379 -20.067  0.00  0.00    +0.000 HD
ATOM     16  H   UNL     1       1.999   6.142 -21.305  0.00  0.00    +0.000 HD
BRANCH  14  17
ATOM     17  C   UNL     1       0.947   5.698 -19.477  0.00  0.00    +0.000 C 
ATOM     18  H   UNL     1       1.184   5.631 -18.408  0.00  0.00    +0.000 HD
ATOM     19  H   UNL     1       0.074   6.348 -19.606  0.00  0.00    +0.000 HD
BRANCH  17  21
ATOM     20  O   UNL     1       0.335   3.356 -19.230  0.00  0.00    +0.000 OA
ATOM     21  C   UNL     1       0.574   4.312 -19.955  0.00  0.00    +0.000 C 
BRANCH  21  22
ATOM     22  O   UNL     1       0.579   4.297 -21.321  0.00  0.00    +0.000 OA
BRANCH  22  23
ATOM     23  C   UNL     1       1.072   3.095 -21.923  0.00  0.00    +0.000 C 
ATOM     24  H   UNL     1       1.486   3.309 -22.912  0.00  0.00    +0.000 HD
ATOM     25  H   UNL     1       0.232   2.404 -22.036  0.00  0.00    +0.000 HD
ATOM     26  H   UNL     1       1.824   2.631 -21.280  0.00  0.00    +0.000 HD
ENDBRANCH  22  23
ENDBRANCH  21  22
ENDBRANCH  17  21
ENDBRANCH  14  17
ENDBRANCH   1  14
TORSDOF 8
ENDMDL
