MODEL 1
REMARK VINA RESULT:    -4.942      0.000      0.000
REMARK INTER + INTRA:          -6.151
REMARK INTER:                  -5.803
REMARK INTRA:                  -0.348
REMARK UNBOUND:                -0.342
REMARK  Name = 4133
REMARK  4 active torsions:
REMARK  status: ('A' for Active; 'I' for Inactive)
REMARK    1  A    between atoms: O_1  and  C_10
REMARK    2  A    between atoms: O_1  and  C_11
REMARK    3  A    between atoms: O_2  and  C_5
REMARK    4  A    between atoms: C_4  and  C_10
REMARK                            x       y       z     vdW  Elec       q    Type
REMARK                         _______ _______ _______ _____ _____    ______ ____
ROOT
ATOM      1  C   UNL     1      14.875   5.250  -0.974  0.00  0.00    +0.000 A 
ATOM      2  C   UNL     1      13.569   5.323  -0.493  0.00  0.00    +0.000 A 
ATOM      3  C   UNL     1      15.661   4.133  -0.692  0.00  0.00    +0.000 A 
ATOM      4  C   UNL     1      13.048   4.280   0.273  0.00  0.00    +0.000 A 
ATOM      5  C   UNL     1      15.141   3.089   0.074  0.00  0.00    +0.000 A 
ATOM      6  C   UNL     1      13.834   3.163   0.556  0.00  0.00    +0.000 A 
ATOM      7  H   UNL     1      16.678   4.039  -1.065  0.00  0.00    +0.000 HD
ATOM      8  H   UNL     1      12.032   4.323   0.655  0.00  0.00    +0.000 HD
ATOM      9  H   UNL     1      15.752   2.218   0.291  0.00  0.00    +0.000 HD
ATOM     10  H   UNL     1      13.429   2.349   1.151  0.00  0.00    +0.000 HD
ENDROOT
BRANCH   2  11
ATOM     11  O   UNL     1      12.784   6.406  -0.757  0.00  0.00    +0.000 OA
ATOM     12  H   UNL     1      13.070   6.809  -1.593  0.00  0.00    +0.000 HD
ENDBRANCH   2  11
BRANCH   1  14
ATOM     13  O   UNL     1      16.437   6.985  -1.460  0.00  0.00    +0.000 OA
ATOM     14  C   UNL     1      15.438   6.328  -1.775  0.00  0.00    +0.000 C 
BRANCH  14  15
ATOM     15  O   UNL     1      14.723   6.524  -2.925  0.00  0.00    +0.000 OA
BRANCH  15  16
ATOM     16  C   UNL     1      14.664   7.862  -3.429  0.00  0.00    +0.000 C 
ATOM     17  H   UNL     1      13.915   7.933  -4.224  0.00  0.00    +0.000 HD
ATOM     18  H   UNL     1      15.648   8.170  -3.796  0.00  0.00    +0.000 HD
ATOM     19  H   UNL     1      14.371   8.522  -2.609  0.00  0.00    +0.000 HD
ENDBRANCH  15  16
ENDBRANCH  14  15
ENDBRANCH   1  14
TORSDOF 4
ENDMDL
MODEL 2
REMARK VINA RESULT:    -4.539     23.246     24.627
REMARK INTER + INTRA:          -5.677
REMARK INTER:                  -5.338
REMARK INTRA:                  -0.338
REMARK UNBOUND:                -0.342
REMARK  Name = 4133
REMARK  4 active torsions:
REMARK  status: ('A' for Active; 'I' for Inactive)
REMARK    1  A    between atoms: O_1  and  C_10
REMARK    2  A    between atoms: O_1  and  C_11
REMARK    3  A    between atoms: O_2  and  C_5
REMARK    4  A    between atoms: C_4  and  C_10
REMARK                            x       y       z     vdW  Elec       q    Type
REMARK                         _______ _______ _______ _____ _____    ______ ____
ROOT
ATOM      1  C   UNL     1       1.222   3.762 -21.340  0.00  0.00    +0.000 A 
ATOM      2  C   UNL     1       0.478   3.930 -20.172  0.00  0.00    +0.000 A 
ATOM      3  C   UNL     1       2.189   4.702 -21.692  0.00  0.00    +0.000 A 
ATOM      4  C   UNL     1       0.700   5.040 -19.357  0.00  0.00    +0.000 A 
ATOM      5  C   UNL     1       2.412   5.813 -20.878  0.00  0.00    +0.000 A 
ATOM      6  C   UNL     1       1.667   5.981 -19.711  0.00  0.00    +0.000 A 
ATOM      7  H   UNL     1       2.796   4.592 -22.587  0.00  0.00    +0.000 HD
ATOM      8  H   UNL     1       0.127   5.185 -18.446  0.00  0.00    +0.000 HD
ATOM      9  H   UNL     1       3.167   6.543 -21.151  0.00  0.00    +0.000 HD
ATOM     10  H   UNL     1       1.842   6.846 -19.076  0.00  0.00    +0.000 HD
ENDROOT
BRANCH   2  11
ATOM     11  O   UNL     1      -0.473   3.023 -19.810  0.00  0.00    +0.000 OA
ATOM     12  H   UNL     1      -0.124   2.464 -19.097  0.00  0.00    +0.000 HD
ENDBRANCH   2  11
BRANCH   1  14
ATOM     13  O   UNL     1       1.908   1.891 -22.649  0.00  0.00    +0.000 OA
ATOM     14  C   UNL     1       1.005   2.610 -22.204  0.00  0.00    +0.000 C 
BRANCH  14  15
ATOM     15  O   UNL     1      -0.325   2.419 -22.462  0.00  0.00    +0.000 OA
BRANCH  15  16
ATOM     16  C   UNL     1      -0.869   3.111 -23.591  0.00  0.00    +0.000 C 
ATOM     17  H   UNL     1      -0.504   4.144 -23.611  0.00  0.00    +0.000 HD
ATOM     18  H   UNL     1      -1.962   3.089 -23.556  0.00  0.00    +0.000 HD
ATOM     19  H   UNL     1      -0.533   2.601 -24.497  0.00  0.00    +0.000 HD
ENDBRANCH  15  16
ENDBRANCH  14  15
ENDBRANCH   1  14
TORSDOF 4
ENDMDL
MODEL 3
REMARK VINA RESULT:    -4.536     22.803     23.743
REMARK INTER + INTRA:          -5.674
REMARK INTER:                  -5.327
REMARK INTRA:                  -0.346
REMARK UNBOUND:                -0.342
REMARK  Name = 4133
REMARK  4 active torsions:
REMARK  status: ('A' for Active; 'I' for Inactive)
REMARK    1  A    between atoms: O_1  and  C_10
REMARK    2  A    between atoms: O_1  and  C_11
REMARK    3  A    between atoms: O_2  and  C_5
REMARK    4  A    between atoms: C_4  and  C_10
REMARK                            x       y       z     vdW  Elec       q    Type
REMARK                         _______ _______ _______ _____ _____    ______ ____
ROOT
ATOM      1  C   UNL     1       1.493   4.503 -20.493  0.00  0.00    +0.000 A 
ATOM      2  C   UNL     1       0.982   3.299 -20.009  0.00  0.00    +0.000 A 
ATOM      3  C   UNL     1       2.841   4.601 -20.838  0.00  0.00    +0.000 A 
ATOM      4  C   UNL     1       1.819   2.193 -19.869  0.00  0.00    +0.000 A 
ATOM      5  C   UNL     1       3.679   3.494 -20.697  0.00  0.00    +0.000 A 
ATOM      6  C   UNL     1       3.168   2.291 -20.213  0.00  0.00    +0.000 A 
ATOM      7  H   UNL     1       3.266   5.520 -21.231  0.00  0.00    +0.000 HD
ATOM      8  H   UNL     1       1.436   1.249 -19.493  0.00  0.00    +0.000 HD
ATOM      9  H   UNL     1       4.728   3.569 -20.968  0.00  0.00    +0.000 HD
ATOM     10  H   UNL     1       3.820   1.428 -20.105  0.00  0.00    +0.000 HD
ENDROOT
BRANCH   2  11
ATOM     11  O   UNL     1      -0.332   3.183 -19.666  0.00  0.00    +0.000 OA
ATOM     12  H   UNL     1      -0.474   3.608 -18.804  0.00  0.00    +0.000 HD
ENDBRANCH   2  11
BRANCH   1  14
ATOM     13  O   UNL     1       0.767   6.723 -20.011  0.00  0.00    +0.000 OA
ATOM     14  C   UNL     1       0.636   5.670 -20.648  0.00  0.00    +0.000 C 
BRANCH  14  15
ATOM     15  O   UNL     1      -0.335   5.459 -21.588  0.00  0.00    +0.000 OA
BRANCH  15  16
ATOM     16  C   UNL     1       0.025   5.698 -22.953  0.00  0.00    +0.000 C 
ATOM     17  H   UNL     1       0.943   5.154 -23.202  0.00  0.00    +0.000 HD
ATOM     18  H   UNL     1       0.154   6.771 -23.126  0.00  0.00    +0.000 HD
ATOM     19  H   UNL     1      -0.785   5.332 -23.588  0.00  0.00    +0.000 HD
ENDBRANCH  15  16
ENDBRANCH  14  15
ENDBRANCH   1  14
TORSDOF 4
ENDMDL
MODEL 4
REMARK VINA RESULT:    -4.510     27.659     29.321
REMARK INTER + INTRA:          -5.643
REMARK INTER:                  -5.278
REMARK INTRA:                  -0.364
REMARK UNBOUND:                -0.342
REMARK  Name = 4133
REMARK  4 active torsions:
REMARK  status: ('A' for Active; 'I' for Inactive)
REMARK    1  A    between atoms: O_1  and  C_10
REMARK    2  A    between atoms: O_1  and  C_11
REMARK    3  A    between atoms: O_2  and  C_5
REMARK    4  A    between atoms: C_4  and  C_10
REMARK                            x       y       z     vdW  Elec       q    Type
REMARK                         _______ _______ _______ _____ _____    ______ ____
ROOT
ATOM      1  C   UNL     1      -6.483 -13.798   4.554  0.00  0.00    +0.000 A 
ATOM      2  C   UNL     1      -6.101 -15.095   4.895  0.00  0.00    +0.000 A 
ATOM      3  C   UNL     1      -7.509 -13.165   5.255  0.00  0.00    +0.000 A 
ATOM      4  C   UNL     1      -6.747 -15.760   5.938  0.00  0.00    +0.000 A 
ATOM      5  C   UNL     1      -8.155 -13.830   6.298  0.00  0.00    +0.000 A 
ATOM      6  C   UNL     1      -7.774 -15.127   6.639  0.00  0.00    +0.000 A 
ATOM      7  H   UNL     1      -7.819 -12.149   5.023  0.00  0.00    +0.000 HD
ATOM      8  H   UNL     1      -6.461 -16.771   6.214  0.00  0.00    +0.000 HD
ATOM      9  H   UNL     1      -8.951 -13.336   6.846  0.00  0.00    +0.000 HD
ATOM     10  H   UNL     1      -8.276 -15.644   7.452  0.00  0.00    +0.000 HD
ENDROOT
BRANCH   2  11
ATOM     11  O   UNL     1      -5.102 -15.732   4.222  0.00  0.00    +0.000 OA
ATOM     12  H   UNL     1      -5.054 -15.381   3.317  0.00  0.00    +0.000 HD
ENDBRANCH   2  11
BRANCH   1  14
ATOM     13  O   UNL     1      -5.248 -11.998   3.595  0.00  0.00    +0.000 OA
ATOM     14  C   UNL     1      -5.822 -13.086   3.469  0.00  0.00    +0.000 C 
BRANCH  14  15
ATOM     15  O   UNL     1      -5.914 -13.773   2.289  0.00  0.00    +0.000 OA
BRANCH  15  16
ATOM     16  C   UNL     1      -7.114 -13.595   1.531  0.00  0.00    +0.000 C 
ATOM     17  H   UNL     1      -7.225 -14.407   0.804  0.00  0.00    +0.000 HD
ATOM     18  H   UNL     1      -7.101 -12.625   1.026  0.00  0.00    +0.000 HD
ATOM     19  H   UNL     1      -7.961 -13.623   2.221  0.00  0.00    +0.000 HD
ENDBRANCH  15  16
ENDBRANCH  14  15
ENDBRANCH   1  14
TORSDOF 4
ENDMDL
MODEL 5
REMARK VINA RESULT:    -4.476     23.082     24.668
REMARK INTER + INTRA:          -5.603
REMARK INTER:                  -5.301
REMARK INTRA:                  -0.302
REMARK UNBOUND:                -0.342
REMARK  Name = 4133
REMARK  4 active torsions:
REMARK  status: ('A' for Active; 'I' for Inactive)
REMARK    1  A    between atoms: O_1  and  C_10
REMARK    2  A    between atoms: O_1  and  C_11
REMARK    3  A    between atoms: O_2  and  C_5
REMARK    4  A    between atoms: C_4  and  C_10
REMARK                            x       y       z     vdW  Elec       q    Type
REMARK                         _______ _______ _______ _____ _____    ______ ____
ROOT
ATOM      1  C   UNL     1       0.394   4.429 -21.117  0.00  0.00    +0.000 A 
ATOM      2  C   UNL     1      -0.456   3.369 -20.805  0.00  0.00    +0.000 A 
ATOM      3  C   UNL     1       0.594   4.795 -22.448  0.00  0.00    +0.000 A 
ATOM      4  C   UNL     1      -1.105   2.672 -21.823  0.00  0.00    +0.000 A 
ATOM      5  C   UNL     1      -0.056   4.098 -23.468  0.00  0.00    +0.000 A 
ATOM      6  C   UNL     1      -0.905   3.037 -23.155  0.00  0.00    +0.000 A 
ATOM      7  H   UNL     1       1.238   5.625 -22.724  0.00  0.00    +0.000 HD
ATOM      8  H   UNL     1      -1.770   1.843 -21.595  0.00  0.00    +0.000 HD
ATOM      9  H   UNL     1       0.098   4.384 -24.504  0.00  0.00    +0.000 HD
ATOM     10  H   UNL     1      -1.412   2.496 -23.949  0.00  0.00    +0.000 HD
ENDROOT
BRANCH   2  11
ATOM     11  O   UNL     1      -0.664   2.996 -19.510  0.00  0.00    +0.000 OA
ATOM     12  H   UNL     1      -1.553   2.613 -19.429  0.00  0.00    +0.000 HD
ENDBRANCH   2  11
BRANCH   1  14
ATOM     13  O   UNL     1       0.513   5.800 -19.170  0.00  0.00    +0.000 OA
ATOM     14  C   UNL     1       1.082   5.170 -20.069  0.00  0.00    +0.000 C 
BRANCH  14  15
ATOM     15  O   UNL     1       2.441   5.080 -20.200  0.00  0.00    +0.000 OA
BRANCH  15  16
ATOM     16  C   UNL     1       3.208   6.204 -19.756  0.00  0.00    +0.000 C 
ATOM     17  H   UNL     1       2.544   7.037 -19.502  0.00  0.00    +0.000 HD
ATOM     18  H   UNL     1       3.923   6.502 -20.528  0.00  0.00    +0.000 HD
ATOM     19  H   UNL     1       3.759   5.907 -18.860  0.00  0.00    +0.000 HD
ENDBRANCH  15  16
ENDBRANCH  14  15
ENDBRANCH   1  14
TORSDOF 4
ENDMDL
MODEL 6
REMARK VINA RESULT:    -4.455     16.166     17.401
REMARK INTER + INTRA:          -5.578
REMARK INTER:                  -5.232
REMARK INTRA:                  -0.346
REMARK UNBOUND:                -0.342
REMARK  Name = 4133
REMARK  4 active torsions:
REMARK  status: ('A' for Active; 'I' for Inactive)
REMARK    1  A    between atoms: O_1  and  C_10
REMARK    2  A    between atoms: O_1  and  C_11
REMARK    3  A    between atoms: O_2  and  C_5
REMARK    4  A    between atoms: C_4  and  C_10
REMARK                            x       y       z     vdW  Elec       q    Type
REMARK                         _______ _______ _______ _____ _____    ______ ____
ROOT
ATOM      1  C   UNL     1      12.402  18.359 -11.710  0.00  0.00    +0.000 A 
ATOM      2  C   UNL     1      13.492  19.100 -12.164  0.00  0.00    +0.000 A 
ATOM      3  C   UNL     1      12.455  16.965 -11.714  0.00  0.00    +0.000 A 
ATOM      4  C   UNL     1      14.635  18.449 -12.625  0.00  0.00    +0.000 A 
ATOM      5  C   UNL     1      13.599  16.313 -12.175  0.00  0.00    +0.000 A 
ATOM      6  C   UNL     1      14.688  17.054 -12.631  0.00  0.00    +0.000 A 
ATOM      7  H   UNL     1      11.629  16.359 -11.353  0.00  0.00    +0.000 HD
ATOM      8  H   UNL     1      15.492  19.013 -12.983  0.00  0.00    +0.000 HD
ATOM      9  H   UNL     1      13.642  15.228 -12.176  0.00  0.00    +0.000 HD
ATOM     10  H   UNL     1      15.580  16.546 -12.988  0.00  0.00    +0.000 HD
ENDROOT
BRANCH   2  11
ATOM     11  O   UNL     1      13.459  20.463 -12.169  0.00  0.00    +0.000 OA
ATOM     12  H   UNL     1      14.363  20.802 -12.279  0.00  0.00    +0.000 HD
ENDBRANCH   2  11
BRANCH   1  14
ATOM     13  O   UNL     1      10.100  18.977 -11.790  0.00  0.00    +0.000 OA
ATOM     14  C   UNL     1      11.199  19.020 -11.224  0.00  0.00    +0.000 C 
BRANCH  14  15
ATOM     15  O   UNL     1      11.434  19.698 -10.059  0.00  0.00    +0.000 OA
BRANCH  15  16
ATOM     16  C   UNL     1      10.744  20.938  -9.883  0.00  0.00    +0.000 C 
ATOM     17  H   UNL     1      11.453  21.733  -9.630  0.00  0.00    +0.000 HD
ATOM     18  H   UNL     1       9.982  20.839  -9.103  0.00  0.00    +0.000 HD
ATOM     19  H   UNL     1      10.253  21.192 -10.825  0.00  0.00    +0.000 HD
ENDBRANCH  15  16
ENDBRANCH  14  15
ENDBRANCH   1  14
TORSDOF 4
ENDMDL
MODEL 7
REMARK VINA RESULT:    -4.413     22.891     24.458
REMARK INTER + INTRA:          -5.529
REMARK INTER:                  -5.188
REMARK INTRA:                  -0.340
REMARK UNBOUND:                -0.342
REMARK  Name = 4133
REMARK  4 active torsions:
REMARK  status: ('A' for Active; 'I' for Inactive)
REMARK    1  A    between atoms: O_1  and  C_10
REMARK    2  A    between atoms: O_1  and  C_11
REMARK    3  A    between atoms: O_2  and  C_5
REMARK    4  A    between atoms: C_4  and  C_10
REMARK                            x       y       z     vdW  Elec       q    Type
REMARK                         _______ _______ _______ _____ _____    ______ ____
ROOT
ATOM      1  C   UNL     1       0.342   5.015 -20.645  0.00  0.00    +0.000 A 
ATOM      2  C   UNL     1      -0.252   5.107 -21.904  0.00  0.00    +0.000 A 
ATOM      3  C   UNL     1       0.485   3.771 -20.031  0.00  0.00    +0.000 A 
ATOM      4  C   UNL     1      -0.705   3.956 -22.548  0.00  0.00    +0.000 A 
ATOM      5  C   UNL     1       0.032   2.619 -20.674  0.00  0.00    +0.000 A 
ATOM      6  C   UNL     1      -0.563   2.711 -21.932  0.00  0.00    +0.000 A 
ATOM      7  H   UNL     1       0.956   3.664 -19.057  0.00  0.00    +0.000 HD
ATOM      8  H   UNL     1      -1.170   4.012 -23.527  0.00  0.00    +0.000 HD
ATOM      9  H   UNL     1       0.145   1.650 -20.197  0.00  0.00    +0.000 HD
ATOM     10  H   UNL     1      -0.914   1.814 -22.434  0.00  0.00    +0.000 HD
ENDROOT
BRANCH   2  11
ATOM     11  O   UNL     1      -0.402   6.313 -22.521  0.00  0.00    +0.000 OA
ATOM     12  H   UNL     1       0.183   6.963 -22.096  0.00  0.00    +0.000 HD
ENDBRANCH   2  11
BRANCH   1  14
ATOM     13  O   UNL     1       0.325   6.660 -18.919  0.00  0.00    +0.000 OA
ATOM     14  C   UNL     1       0.821   6.205 -19.956  0.00  0.00    +0.000 C 
BRANCH  14  15
ATOM     15  O   UNL     1       1.894   6.758 -20.600  0.00  0.00    +0.000 OA
BRANCH  15  16
ATOM     16  C   UNL     1       3.193   6.399 -20.116  0.00  0.00    +0.000 C 
ATOM     17  H   UNL     1       3.125   6.038 -19.085  0.00  0.00    +0.000 HD
ATOM     18  H   UNL     1       3.870   7.255 -20.182  0.00  0.00    +0.000 HD
ATOM     19  H   UNL     1       3.579   5.594 -20.746  0.00  0.00    +0.000 HD
ENDBRANCH  15  16
ENDBRANCH  14  15
ENDBRANCH   1  14
TORSDOF 4
ENDMDL
MODEL 8
REMARK VINA RESULT:    -4.360     22.305     23.787
REMARK INTER + INTRA:          -5.467
REMARK INTER:                  -5.134
REMARK INTRA:                  -0.333
REMARK UNBOUND:                -0.342
REMARK  Name = 4133
REMARK  4 active torsions:
REMARK  status: ('A' for Active; 'I' for Inactive)
REMARK    1  A    between atoms: O_1  and  C_10
REMARK    2  A    between atoms: O_1  and  C_11
REMARK    3  A    between atoms: O_2  and  C_5
REMARK    4  A    between atoms: C_4  and  C_10
REMARK                            x       y       z     vdW  Elec       q    Type
REMARK                         _______ _______ _______ _____ _____    ______ ____
ROOT
ATOM      1  C   UNL     1       1.527   4.157 -20.416  0.00  0.00    +0.000 A 
ATOM      2  C   UNL     1       2.569   3.245 -20.577  0.00  0.00    +0.000 A 
ATOM      3  C   UNL     1       1.802   5.469 -20.029  0.00  0.00    +0.000 A 
ATOM      4  C   UNL     1       3.887   3.643 -20.350  0.00  0.00    +0.000 A 
ATOM      5  C   UNL     1       3.119   5.868 -19.801  0.00  0.00    +0.000 A 
ATOM      6  C   UNL     1       4.161   4.955 -19.962  0.00  0.00    +0.000 A 
ATOM      7  H   UNL     1       1.013   6.207 -19.909  0.00  0.00    +0.000 HD
ATOM      8  H   UNL     1       4.708   2.943 -20.470  0.00  0.00    +0.000 HD
ATOM      9  H   UNL     1       3.333   6.890 -19.503  0.00  0.00    +0.000 HD
ATOM     10  H   UNL     1       5.187   5.266 -19.785  0.00  0.00    +0.000 HD
ENDROOT
BRANCH   2  11
ATOM     11  O   UNL     1       2.323   1.959 -20.954  0.00  0.00    +0.000 OA
ATOM     12  H   UNL     1       1.376   1.770 -20.842  0.00  0.00    +0.000 HD
ENDBRANCH   2  11
BRANCH   1  14
ATOM     13  O   UNL     1      -0.453   2.896 -20.000  0.00  0.00    +0.000 OA
ATOM     14  C   UNL     1       0.145   3.762 -20.649  0.00  0.00    +0.000 C 
BRANCH  14  15
ATOM     15  O   UNL     1      -0.413   4.470 -21.678  0.00  0.00    +0.000 OA
BRANCH  15  16
ATOM     16  C   UNL     1      -0.670   3.754 -22.890  0.00  0.00    +0.000 C 
ATOM     17  H   UNL     1      -1.390   4.302 -23.506  0.00  0.00    +0.000 HD
ATOM     18  H   UNL     1      -1.040   2.750 -22.664  0.00  0.00    +0.000 HD
ATOM     19  H   UNL     1       0.270   3.669 -23.441  0.00  0.00    +0.000 HD
ENDBRANCH  15  16
ENDBRANCH  14  15
ENDBRANCH   1  14
TORSDOF 4
ENDMDL
MODEL 9
REMARK VINA RESULT:    -4.306     17.234     19.169
REMARK INTER + INTRA:          -5.403
REMARK INTER:                  -5.061
REMARK INTRA:                  -0.342
REMARK UNBOUND:                -0.342
REMARK  Name = 4133
REMARK  4 active torsions:
REMARK  status: ('A' for Active; 'I' for Inactive)
REMARK    1  A    between atoms: O_1  and  C_10
REMARK    2  A    between atoms: O_1  and  C_11
REMARK    3  A    between atoms: O_2  and  C_5
REMARK    4  A    between atoms: C_4  and  C_10
REMARK                            x       y       z     vdW  Elec       q    Type
REMARK                         _______ _______ _______ _____ _____    ______ ____
ROOT
ATOM      1  C   UNL     1      10.618  21.681 -10.173  0.00  0.00    +0.000 A 
ATOM      2  C   UNL     1      10.451  20.371  -9.723  0.00  0.00    +0.000 A 
ATOM      3  C   UNL     1      11.672  21.995 -11.030  0.00  0.00    +0.000 A 
ATOM      4  C   UNL     1      11.339  19.375 -10.130  0.00  0.00    +0.000 A 
ATOM      5  C   UNL     1      12.560  20.999 -11.438  0.00  0.00    +0.000 A 
ATOM      6  C   UNL     1      12.394  19.690 -10.987  0.00  0.00    +0.000 A 
ATOM      7  H   UNL     1      11.820  23.002 -11.410  0.00  0.00    +0.000 HD
ATOM      8  H   UNL     1      11.222  18.351  -9.787  0.00  0.00    +0.000 HD
ATOM      9  H   UNL     1      13.379  21.243 -12.108  0.00  0.00    +0.000 HD
ATOM     10  H   UNL     1      13.085  18.914 -11.306  0.00  0.00    +0.000 HD
ENDROOT
BRANCH   2  11
ATOM     11  O   UNL     1       9.428  20.043  -8.884  0.00  0.00    +0.000 OA
ATOM     12  H   UNL     1       8.905  19.329  -9.284  0.00  0.00    +0.000 HD
ENDBRANCH   2  11
BRANCH   1  14
ATOM     13  O   UNL     1      10.039  23.752  -9.143  0.00  0.00    +0.000 OA
ATOM     14  C   UNL     1       9.702  22.735  -9.760  0.00  0.00    +0.000 C 
BRANCH  14  15
ATOM     15  O   UNL     1       8.417  22.460 -10.142  0.00  0.00    +0.000 OA
BRANCH  15  16
ATOM     16  C   UNL     1       7.890  23.223 -11.232  0.00  0.00    +0.000 C 
ATOM     17  H   UNL     1       7.434  22.558 -11.972  0.00  0.00    +0.000 HD
ATOM     18  H   UNL     1       8.682  23.824 -11.689  0.00  0.00    +0.000 HD
ATOM     19  H   UNL     1       7.122  23.893 -10.839  0.00  0.00    +0.000 HD
ENDBRANCH  15  16
ENDBRANCH  14  15
ENDBRANCH   1  14
TORSDOF 4
ENDMDL
MODEL 10
REMARK VINA RESULT:    -4.284     23.335     24.967
REMARK INTER + INTRA:          -5.377
REMARK INTER:                  -5.032
REMARK INTRA:                  -0.346
REMARK UNBOUND:                -0.342
REMARK  Name = 4133
REMARK  4 active torsions:
REMARK  status: ('A' for Active; 'I' for Inactive)
REMARK    1  A    between atoms: O_1  and  C_10
REMARK    2  A    between atoms: O_1  and  C_11
REMARK    3  A    between atoms: O_2  and  C_5
REMARK    4  A    between atoms: C_4  and  C_10
REMARK                            x       y       z     vdW  Elec       q    Type
REMARK                         _______ _______ _______ _____ _____    ______ ____
ROOT
ATOM      1  C   UNL     1       1.402   3.661 -22.033  0.00  0.00    +0.000 A 
ATOM      2  C   UNL     1       2.339   2.635 -21.915  0.00  0.00    +0.000 A 
ATOM      3  C   UNL     1       1.533   4.817 -21.264  0.00  0.00    +0.000 A 
ATOM      4  C   UNL     1       3.408   2.764 -21.027  0.00  0.00    +0.000 A 
ATOM      5  C   UNL     1       2.601   4.947 -20.375  0.00  0.00    +0.000 A 
ATOM      6  C   UNL     1       3.538   3.921 -20.257  0.00  0.00    +0.000 A 
ATOM      7  H   UNL     1       0.828   5.641 -21.343  0.00  0.00    +0.000 HD
ATOM      8  H   UNL     1       4.145   1.973 -20.925  0.00  0.00    +0.000 HD
ATOM      9  H   UNL     1       2.705   5.848 -19.778  0.00  0.00    +0.000 HD
ATOM     10  H   UNL     1       4.370   4.022 -19.566  0.00  0.00    +0.000 HD
ENDROOT
BRANCH   2  11
ATOM     11  O   UNL     1       2.229   1.497 -22.657  0.00  0.00    +0.000 OA
ATOM     12  H   UNL     1       3.022   0.951 -22.522  0.00  0.00    +0.000 HD
ENDBRANCH   2  11
BRANCH   1  14
ATOM     13  O   UNL     1       0.388   3.506 -24.185  0.00  0.00    +0.000 OA
ATOM     14  C   UNL     1       0.280   3.547 -22.954  0.00  0.00    +0.000 C 
BRANCH  14  15
ATOM     15  O   UNL     1      -0.913   3.488 -22.286  0.00  0.00    +0.000 OA
BRANCH  15  16
ATOM     16  C   UNL     1      -1.372   2.189 -21.899  0.00  0.00    +0.000 C 
ATOM     17  H   UNL     1      -2.407   2.245 -21.547  0.00  0.00    +0.000 HD
ATOM     18  H   UNL     1      -0.722   1.775 -21.122  0.00  0.00    +0.000 HD
ATOM     19  H   UNL     1      -1.333   1.539 -22.776  0.00  0.00    +0.000 HD
ENDBRANCH  15  16
ENDBRANCH  14  15
ENDBRANCH   1  14
TORSDOF 4
ENDMDL
