MODEL 1
REMARK VINA RESULT:    -5.273      0.000      0.000
REMARK INTER + INTRA:          -7.592
REMARK INTER:                  -7.151
REMARK INTRA:                  -0.441
REMARK UNBOUND:                -0.470
REMARK  Name = 605629
REMARK  8 active torsions:
REMARK  status: ('A' for Active; 'I' for Inactive)
REMARK    1  A    between atoms: O_1  and  C_14
REMARK    2  A    between atoms: O_1  and  C_15
REMARK    3  A    between atoms: C_3  and  C_4
REMARK    4  A    between atoms: C_3  and  C_5
REMARK    5  A    between atoms: C_3  and  C_6
REMARK    6  A    between atoms: C_3  and  C_7
REMARK    7  A    between atoms: C_10  and  C_13
REMARK    8  A    between atoms: C_13  and  C_14
REMARK                            x       y       z     vdW  Elec       q    Type
REMARK                         _______ _______ _______ _____ _____    ______ ____
ROOT
ATOM      1  C   UNL     1      -1.826   6.545  25.019  0.00  0.00    +0.000 A 
ATOM      2  C   UNL     1      -1.756   6.462  26.387  0.00  0.00    +0.000 A 
ATOM      3  C   UNL     1      -2.627   5.735  24.254  0.00  0.00    +0.000 A 
ATOM      4  C   UNL     1      -3.368   4.664  26.289  0.00  0.00    +0.000 A 
ATOM      5  C   UNL     1      -2.540   5.506  27.033  0.00  0.00    +0.000 A 
ATOM      6  C   UNL     1      -3.412   4.779  24.900  0.00  0.00    +0.000 A 
ATOM      7  H   UNL     1      -1.120   7.104  26.985  0.00  0.00    +0.000 HD
ATOM      8  H   UNL     1      -2.700   5.780  23.175  0.00  0.00    +0.000 HD
ATOM      9  H   UNL     1      -2.496   5.425  28.116  0.00  0.00    +0.000 HD
ATOM     10  H   UNL     1      -4.050   4.128  24.309  0.00  0.00    +0.000 HD
ENDROOT
BRANCH   4  11
ATOM     11  C   UNL     1      -4.205   3.642  26.980  0.00  0.00    +0.000 C 
ATOM     12  H   UNL     1      -4.374   2.788  26.313  0.00  0.00    +0.000 HD
ATOM     13  H   UNL     1      -3.673   3.266  27.862  0.00  0.00    +0.000 HD
BRANCH  11  15
ATOM     14  O   UNL     1      -6.114   5.151  26.959  0.00  0.00    +0.000 OA
ATOM     15  C   UNL     1      -5.555   4.168  27.427  0.00  0.00    +0.000 C 
BRANCH  15  16
ATOM     16  O   UNL     1      -6.043   3.372  28.426  0.00  0.00    +0.000 OA
BRANCH  16  17
ATOM     17  C   UNL     1      -5.125   2.404  28.947  0.00  0.00    +0.000 C 
ATOM     18  H   UNL     1      -4.348   2.900  29.537  0.00  0.00    +0.000 HD
ATOM     19  H   UNL     1      -4.681   1.826  28.131  0.00  0.00    +0.000 HD
ATOM     20  H   UNL     1      -5.681   1.724  29.598  0.00  0.00    +0.000 HD
ENDBRANCH  16  17
ENDBRANCH  15  16
ENDBRANCH  11  15
ENDBRANCH   4  11
BRANCH   1  21
ATOM     21  C   UNL     1      -0.962   7.598  24.307  0.00  0.00    +0.000 C 
BRANCH  21  22
ATOM     22  C   UNL     1      -1.457   9.013  24.676  0.00  0.00    +0.000 C 
ATOM     23  H   UNL     1      -2.166   8.977  25.512  0.00  0.00    +0.000 HD
ATOM     24  H   UNL     1      -0.641   9.676  24.981  0.00  0.00    +0.000 HD
ATOM     25  H   UNL     1      -1.966   9.487  23.828  0.00  0.00    +0.000 HD
ENDBRANCH  21  22
BRANCH  21  26
ATOM     26  C   UNL     1      -1.066   7.407  22.777  0.00  0.00    +0.000 C 
ATOM     27  H   UNL     1      -0.560   8.203  22.221  0.00  0.00    +0.000 HD
ATOM     28  H   UNL     1      -0.609   6.461  22.466  0.00  0.00    +0.000 HD
ATOM     29  H   UNL     1      -2.113   7.394  22.452  0.00  0.00    +0.000 HD
ENDBRANCH  21  26
BRANCH  21  30
ATOM     30  C   UNL     1       0.538   7.528  24.672  0.00  0.00    +0.000 C 
ATOM     31  H   UNL     1       1.073   6.852  23.994  0.00  0.00    +0.000 HD
ATOM     32  H   UNL     1       1.027   8.506  24.587  0.00  0.00    +0.000 HD
ATOM     33  H   UNL     1       0.697   7.143  25.685  0.00  0.00    +0.000 HD
ENDBRANCH  21  30
ENDBRANCH   1  21
TORSDOF 8
ENDMDL
MODEL 2
REMARK VINA RESULT:    -5.142     36.406     38.706
REMARK INTER + INTRA:          -7.415
REMARK INTER:                  -6.984
REMARK INTRA:                  -0.431
REMARK UNBOUND:                -0.470
REMARK  Name = 605629
REMARK  8 active torsions:
REMARK  status: ('A' for Active; 'I' for Inactive)
REMARK    1  A    between atoms: O_1  and  C_14
REMARK    2  A    between atoms: O_1  and  C_15
REMARK    3  A    between atoms: C_3  and  C_4
REMARK    4  A    between atoms: C_3  and  C_5
REMARK    5  A    between atoms: C_3  and  C_6
REMARK    6  A    between atoms: C_3  and  C_7
REMARK    7  A    between atoms: C_10  and  C_13
REMARK    8  A    between atoms: C_13  and  C_14
REMARK                            x       y       z     vdW  Elec       q    Type
REMARK                         _______ _______ _______ _____ _____    ______ ____
ROOT
ATOM      1  C   UNL     1      17.369  -6.268  -2.391  0.00  0.00    +0.000 A 
ATOM      2  C   UNL     1      18.378  -6.496  -1.490  0.00  0.00    +0.000 A 
ATOM      3  C   UNL     1      17.569  -6.204  -3.748  0.00  0.00    +0.000 A 
ATOM      4  C   UNL     1      19.916  -6.616  -3.350  0.00  0.00    +0.000 A 
ATOM      5  C   UNL     1      19.673  -6.674  -1.978  0.00  0.00    +0.000 A 
ATOM      6  C   UNL     1      18.864  -6.381  -4.235  0.00  0.00    +0.000 A 
ATOM      7  H   UNL     1      18.214  -6.545  -0.419  0.00  0.00    +0.000 HD
ATOM      8  H   UNL     1      16.791  -6.025  -4.478  0.00  0.00    +0.000 HD
ATOM      9  H   UNL     1      20.486  -6.854  -1.278  0.00  0.00    +0.000 HD
ATOM     10  H   UNL     1      19.040  -6.332  -5.306  0.00  0.00    +0.000 HD
ENDROOT
BRANCH   4  11
ATOM     11  C   UNL     1      21.300  -6.805  -3.871  0.00  0.00    +0.000 C 
ATOM     12  H   UNL     1      21.865  -7.461  -3.198  0.00  0.00    +0.000 HD
ATOM     13  H   UNL     1      21.261  -7.300  -4.850  0.00  0.00    +0.000 HD
BRANCH  11  15
ATOM     14  O   UNL     1      22.144  -4.632  -3.175  0.00  0.00    +0.000 OA
ATOM     15  C   UNL     1      22.070  -5.508  -4.025  0.00  0.00    +0.000 C 
BRANCH  15  16
ATOM     16  O   UNL     1      22.664  -5.478  -5.256  0.00  0.00    +0.000 OA
BRANCH  16  17
ATOM     17  C   UNL     1      23.452  -6.626  -5.589  0.00  0.00    +0.000 C 
ATOM     18  H   UNL     1      23.299  -6.898  -6.638  0.00  0.00    +0.000 HD
ATOM     19  H   UNL     1      23.198  -7.462  -4.931  0.00  0.00    +0.000 HD
ATOM     20  H   UNL     1      24.505  -6.371  -5.443  0.00  0.00    +0.000 HD
ENDBRANCH  16  17
ENDBRANCH  15  16
ENDBRANCH  11  15
ENDBRANCH   4  11
BRANCH   1  21
ATOM     21  C   UNL     1      15.942  -6.072  -1.854  0.00  0.00    +0.000 C 
BRANCH  21  22
ATOM     22  C   UNL     1      15.605  -4.566  -1.811  0.00  0.00    +0.000 C 
ATOM     23  H   UNL     1      14.532  -4.397  -1.964  0.00  0.00    +0.000 HD
ATOM     24  H   UNL     1      15.864  -4.106  -0.852  0.00  0.00    +0.000 HD
ATOM     25  H   UNL     1      16.143  -4.019  -2.595  0.00  0.00    +0.000 HD
ENDBRANCH  21  22
BRANCH  21  26
ATOM     26  C   UNL     1      15.840  -6.656  -0.427  0.00  0.00    +0.000 C 
ATOM     27  H   UNL     1      14.809  -6.901  -0.148  0.00  0.00    +0.000 HD
ATOM     28  H   UNL     1      16.421  -7.581  -0.337  0.00  0.00    +0.000 HD
ATOM     29  H   UNL     1      16.222  -5.948   0.317  0.00  0.00    +0.000 HD
ENDBRANCH  21  26
BRANCH  21  30
ATOM     30  C   UNL     1      14.852  -6.760  -2.706  0.00  0.00    +0.000 C 
ATOM     31  H   UNL     1      14.751  -6.267  -3.681  0.00  0.00    +0.000 HD
ATOM     32  H   UNL     1      15.095  -7.810  -2.912  0.00  0.00    +0.000 HD
ATOM     33  H   UNL     1      13.867  -6.714  -2.230  0.00  0.00    +0.000 HD
ENDBRANCH  21  30
ENDBRANCH   1  21
TORSDOF 8
ENDMDL
MODEL 3
REMARK VINA RESULT:    -5.127      2.917      5.888
REMARK INTER + INTRA:          -7.396
REMARK INTER:                  -6.892
REMARK INTRA:                  -0.503
REMARK UNBOUND:                -0.470
REMARK  Name = 605629
REMARK  8 active torsions:
REMARK  status: ('A' for Active; 'I' for Inactive)
REMARK    1  A    between atoms: O_1  and  C_14
REMARK    2  A    between atoms: O_1  and  C_15
REMARK    3  A    between atoms: C_3  and  C_4
REMARK    4  A    between atoms: C_3  and  C_5
REMARK    5  A    between atoms: C_3  and  C_6
REMARK    6  A    between atoms: C_3  and  C_7
REMARK    7  A    between atoms: C_10  and  C_13
REMARK    8  A    between atoms: C_13  and  C_14
REMARK                            x       y       z     vdW  Elec       q    Type
REMARK                         _______ _______ _______ _____ _____    ______ ____
ROOT
ATOM      1  C   UNL     1      -3.749   4.918  26.608  0.00  0.00    +0.000 A 
ATOM      2  C   UNL     1      -2.584   5.575  26.913  0.00  0.00    +0.000 A 
ATOM      3  C   UNL     1      -4.175   4.696  25.322  0.00  0.00    +0.000 A 
ATOM      4  C   UNL     1      -2.191   5.834  24.544  0.00  0.00    +0.000 A 
ATOM      5  C   UNL     1      -1.791   6.040  25.864  0.00  0.00    +0.000 A 
ATOM      6  C   UNL     1      -3.382   5.161  24.273  0.00  0.00    +0.000 A 
ATOM      7  H   UNL     1      -2.253   5.748  27.932  0.00  0.00    +0.000 HD
ATOM      8  H   UNL     1      -5.089   4.182  25.055  0.00  0.00    +0.000 HD
ATOM      9  H   UNL     1      -0.866   6.565  26.088  0.00  0.00    +0.000 HD
ATOM     10  H   UNL     1      -3.706   4.996  23.249  0.00  0.00    +0.000 HD
ENDROOT
BRANCH   4  11
ATOM     11  C   UNL     1      -1.344   6.332  23.422  0.00  0.00    +0.000 C 
ATOM     12  H   UNL     1      -0.298   6.051  23.592  0.00  0.00    +0.000 HD
ATOM     13  H   UNL     1      -1.659   5.858  22.484  0.00  0.00    +0.000 HD
BRANCH  11  15
ATOM     14  O   UNL     1      -2.359   8.445  22.769  0.00  0.00    +0.000 OA
ATOM     15  C   UNL     1      -1.407   7.835  23.238  0.00  0.00    +0.000 C 
BRANCH  15  16
ATOM     16  O   UNL     1      -0.241   8.395  23.681  0.00  0.00    +0.000 OA
BRANCH  16  17
ATOM     17  C   UNL     1       0.959   7.777  23.204  0.00  0.00    +0.000 C 
ATOM     18  H   UNL     1       0.811   6.699  23.093  0.00  0.00    +0.000 HD
ATOM     19  H   UNL     1       1.789   7.985  23.887  0.00  0.00    +0.000 HD
ATOM     20  H   UNL     1       1.195   8.202  22.225  0.00  0.00    +0.000 HD
ENDBRANCH  16  17
ENDBRANCH  15  16
ENDBRANCH  11  15
ENDBRANCH   4  11
BRANCH   1  21
ATOM     21  C   UNL     1      -4.622   4.405  27.765  0.00  0.00    +0.000 C 
BRANCH  21  22
ATOM     22  C   UNL     1      -4.377   5.267  29.022  0.00  0.00    +0.000 C 
ATOM     23  H   UNL     1      -4.386   6.335  28.776  0.00  0.00    +0.000 HD
ATOM     24  H   UNL     1      -5.141   5.111  29.791  0.00  0.00    +0.000 HD
ATOM     25  H   UNL     1      -3.404   5.037  29.474  0.00  0.00    +0.000 HD
ENDBRANCH  21  22
BRANCH  21  26
ATOM     26  C   UNL     1      -4.260   2.936  28.077  0.00  0.00    +0.000 C 
ATOM     27  H   UNL     1      -4.473   2.265  27.238  0.00  0.00    +0.000 HD
ATOM     28  H   UNL     1      -3.192   2.833  28.302  0.00  0.00    +0.000 HD
ATOM     29  H   UNL     1      -4.821   2.568  28.944  0.00  0.00    +0.000 HD
ENDBRANCH  21  26
BRANCH  21  30
ATOM     30  C   UNL     1      -6.139   4.447  27.470  0.00  0.00    +0.000 C 
ATOM     31  H   UNL     1      -6.414   3.677  26.738  0.00  0.00    +0.000 HD
ATOM     32  H   UNL     1      -6.737   4.251  28.368  0.00  0.00    +0.000 HD
ATOM     33  H   UNL     1      -6.448   5.408  27.043  0.00  0.00    +0.000 HD
ENDBRANCH  21  30
ENDBRANCH   1  21
TORSDOF 8
ENDMDL
MODEL 4
REMARK VINA RESULT:    -5.111     36.286     38.635
REMARK INTER + INTRA:          -7.374
REMARK INTER:                  -6.840
REMARK INTRA:                  -0.535
REMARK UNBOUND:                -0.470
REMARK  Name = 605629
REMARK  8 active torsions:
REMARK  status: ('A' for Active; 'I' for Inactive)
REMARK    1  A    between atoms: O_1  and  C_14
REMARK    2  A    between atoms: O_1  and  C_15
REMARK    3  A    between atoms: C_3  and  C_4
REMARK    4  A    between atoms: C_3  and  C_5
REMARK    5  A    between atoms: C_3  and  C_6
REMARK    6  A    between atoms: C_3  and  C_7
REMARK    7  A    between atoms: C_10  and  C_13
REMARK    8  A    between atoms: C_13  and  C_14
REMARK                            x       y       z     vdW  Elec       q    Type
REMARK                         _______ _______ _______ _____ _____    ______ ____
ROOT
ATOM      1  C   UNL     1      17.364  -5.777  -2.651  0.00  0.00    +0.000 A 
ATOM      2  C   UNL     1      17.465  -6.360  -3.889  0.00  0.00    +0.000 A 
ATOM      3  C   UNL     1      18.372  -5.044  -2.077  0.00  0.00    +0.000 A 
ATOM      4  C   UNL     1      19.702  -5.460  -4.051  0.00  0.00    +0.000 A 
ATOM      5  C   UNL     1      18.654  -6.198  -4.601  0.00  0.00    +0.000 A 
ATOM      6  C   UNL     1      19.561  -4.882  -2.789  0.00  0.00    +0.000 A 
ATOM      7  H   UNL     1      16.665  -6.939  -4.336  0.00  0.00    +0.000 HD
ATOM      8  H   UNL     1      18.317  -4.575  -1.103  0.00  0.00    +0.000 HD
ATOM      9  H   UNL     1      18.753  -6.655  -5.582  0.00  0.00    +0.000 HD
ATOM     10  H   UNL     1      20.370  -4.306  -2.349  0.00  0.00    +0.000 HD
ENDROOT
BRANCH   4  11
ATOM     11  C   UNL     1      20.972  -5.288  -4.812  0.00  0.00    +0.000 C 
ATOM     12  H   UNL     1      20.826  -5.596  -5.854  0.00  0.00    +0.000 HD
ATOM     13  H   UNL     1      21.254  -4.228  -4.823  0.00  0.00    +0.000 HD
BRANCH  11  15
ATOM     14  O   UNL     1      22.113  -7.283  -4.015  0.00  0.00    +0.000 OA
ATOM     15  C   UNL     1      22.131  -6.081  -4.241  0.00  0.00    +0.000 C 
BRANCH  15  16
ATOM     16  O   UNL     1      23.190  -5.244  -4.024  0.00  0.00    +0.000 OA
BRANCH  16  17
ATOM     17  C   UNL     1      23.333  -4.766  -2.682  0.00  0.00    +0.000 C 
ATOM     18  H   UNL     1      22.722  -3.871  -2.532  0.00  0.00    +0.000 HD
ATOM     19  H   UNL     1      24.385  -4.556  -2.466  0.00  0.00    +0.000 HD
ATOM     20  H   UNL     1      22.984  -5.548  -2.003  0.00  0.00    +0.000 HD
ENDBRANCH  16  17
ENDBRANCH  15  16
ENDBRANCH  11  15
ENDBRANCH   4  11
BRANCH   1  21
ATOM     21  C   UNL     1      16.054  -5.955  -1.865  0.00  0.00    +0.000 C 
BRANCH  21  22
ATOM     22  C   UNL     1      15.021  -6.700  -2.739  0.00  0.00    +0.000 C 
ATOM     23  H   UNL     1      14.634  -7.586  -2.223  0.00  0.00    +0.000 HD
ATOM     24  H   UNL     1      14.158  -6.076  -2.991  0.00  0.00    +0.000 HD
ATOM     25  H   UNL     1      15.471  -7.035  -3.682  0.00  0.00    +0.000 HD
ENDBRANCH  21  22
BRANCH  21  26
ATOM     26  C   UNL     1      15.487  -4.571  -1.480  0.00  0.00    +0.000 C 
ATOM     27  H   UNL     1      14.436  -4.455  -1.763  0.00  0.00    +0.000 HD
ATOM     28  H   UNL     1      15.544  -4.409  -0.397  0.00  0.00    +0.000 HD
ATOM     29  H   UNL     1      16.049  -3.766  -1.967  0.00  0.00    +0.000 HD
ENDBRANCH  21  26
BRANCH  21  30
ATOM     30  C   UNL     1      16.213  -6.762  -0.557  0.00  0.00    +0.000 C 
ATOM     31  H   UNL     1      16.875  -6.239   0.144  0.00  0.00    +0.000 HD
ATOM     32  H   UNL     1      15.256  -6.898  -0.039  0.00  0.00    +0.000 HD
ATOM     33  H   UNL     1      16.660  -7.747  -0.733  0.00  0.00    +0.000 HD
ENDBRANCH  21  30
ENDBRANCH   1  21
TORSDOF 8
ENDMDL
MODEL 5
REMARK VINA RESULT:    -5.099     45.257     46.287
REMARK INTER + INTRA:          -7.358
REMARK INTER:                  -6.931
REMARK INTRA:                  -0.428
REMARK UNBOUND:                -0.470
REMARK  Name = 605629
REMARK  8 active torsions:
REMARK  status: ('A' for Active; 'I' for Inactive)
REMARK    1  A    between atoms: O_1  and  C_14
REMARK    2  A    between atoms: O_1  and  C_15
REMARK    3  A    between atoms: C_3  and  C_4
REMARK    4  A    between atoms: C_3  and  C_5
REMARK    5  A    between atoms: C_3  and  C_6
REMARK    6  A    between atoms: C_3  and  C_7
REMARK    7  A    between atoms: C_10  and  C_13
REMARK    8  A    between atoms: C_13  and  C_14
REMARK                            x       y       z     vdW  Elec       q    Type
REMARK                         _______ _______ _______ _____ _____    ______ ____
ROOT
ATOM      1  C   UNL     1       2.531   5.231 -19.958  0.00  0.00    +0.000 A 
ATOM      2  C   UNL     1       3.210   6.331 -19.499  0.00  0.00    +0.000 A 
ATOM      3  C   UNL     1       3.149   4.063 -20.330  0.00  0.00    +0.000 A 
ATOM      4  C   UNL     1       5.264   5.089 -19.774  0.00  0.00    +0.000 A 
ATOM      5  C   UNL     1       4.600   6.259 -19.405  0.00  0.00    +0.000 A 
ATOM      6  C   UNL     1       4.539   3.991 -20.236  0.00  0.00    +0.000 A 
ATOM      7  H   UNL     1       2.715   7.251 -19.207  0.00  0.00    +0.000 HD
ATOM      8  H   UNL     1       2.636   3.183 -20.695  0.00  0.00    +0.000 HD
ATOM      9  H   UNL     1       5.155   7.123 -19.046  0.00  0.00    +0.000 HD
ATOM     10  H   UNL     1       5.044   3.076 -20.529  0.00  0.00    +0.000 HD
ENDROOT
BRANCH   4  11
ATOM     11  C   UNL     1       6.750   5.013 -19.675  0.00  0.00    +0.000 C 
ATOM     12  H   UNL     1       7.151   4.453 -20.528  0.00  0.00    +0.000 HD
ATOM     13  H   UNL     1       7.174   6.023 -19.721  0.00  0.00    +0.000 HD
BRANCH  11  15
ATOM     14  O   UNL     1       6.644   4.366 -17.332  0.00  0.00    +0.000 OA
ATOM     15  C   UNL     1       7.238   4.351 -18.402  0.00  0.00    +0.000 C 
BRANCH  15  16
ATOM     16  O   UNL     1       8.436   3.737 -18.641  0.00  0.00    +0.000 OA
BRANCH  16  17
ATOM     17  C   UNL     1       9.596   4.551 -18.444  0.00  0.00    +0.000 C 
ATOM     18  H   UNL     1       9.608   5.374 -19.166  0.00  0.00    +0.000 HD
ATOM     19  H   UNL     1      10.503   3.945 -18.534  0.00  0.00    +0.000 HD
ATOM     20  H   UNL     1       9.552   4.969 -17.435  0.00  0.00    +0.000 HD
ENDBRANCH  16  17
ENDBRANCH  15  16
ENDBRANCH  11  15
ENDBRANCH   4  11
BRANCH   1  21
ATOM     21  C   UNL     1       0.998   5.310 -20.061  0.00  0.00    +0.000 C 
BRANCH  21  22
ATOM     22  C   UNL     1       0.474   6.445 -19.155  0.00  0.00    +0.000 C 
ATOM     23  H   UNL     1       1.174   6.650 -18.335  0.00  0.00    +0.000 HD
ATOM     24  H   UNL     1       0.337   7.385 -19.698  0.00  0.00    +0.000 HD
ATOM     25  H   UNL     1      -0.492   6.178 -18.708  0.00  0.00    +0.000 HD
ENDBRANCH  21  22
BRANCH  21  26
ATOM     26  C   UNL     1       0.378   3.970 -19.608  0.00  0.00    +0.000 C 
ATOM     27  H   UNL     1       0.911   3.528 -18.760  0.00  0.00    +0.000 HD
ATOM     28  H   UNL     1      -0.664   4.105 -19.292  0.00  0.00    +0.000 HD
ATOM     29  H   UNL     1       0.387   3.236 -20.421  0.00  0.00    +0.000 HD
ENDBRANCH  21  26
BRANCH  21  30
ATOM     30  C   UNL     1       0.481   5.590 -21.490  0.00  0.00    +0.000 C 
ATOM     31  H   UNL     1       0.516   6.664 -21.713  0.00  0.00    +0.000 HD
ATOM     32  H   UNL     1       1.094   5.094 -22.253  0.00  0.00    +0.000 HD
ATOM     33  H   UNL     1      -0.561   5.279 -21.619  0.00  0.00    +0.000 HD
ENDBRANCH  21  30
ENDBRANCH   1  21
TORSDOF 8
ENDMDL
MODEL 6
REMARK VINA RESULT:    -5.018     44.954     46.518
REMARK INTER + INTRA:          -7.249
REMARK INTER:                  -6.790
REMARK INTRA:                  -0.459
REMARK UNBOUND:                -0.470
REMARK  Name = 605629
REMARK  8 active torsions:
REMARK  status: ('A' for Active; 'I' for Inactive)
REMARK    1  A    between atoms: O_1  and  C_14
REMARK    2  A    between atoms: O_1  and  C_15
REMARK    3  A    between atoms: C_3  and  C_4
REMARK    4  A    between atoms: C_3  and  C_5
REMARK    5  A    between atoms: C_3  and  C_6
REMARK    6  A    between atoms: C_3  and  C_7
REMARK    7  A    between atoms: C_10  and  C_13
REMARK    8  A    between atoms: C_13  and  C_14
REMARK                            x       y       z     vdW  Elec       q    Type
REMARK                         _______ _______ _______ _____ _____    ______ ____
ROOT
ATOM      1  C   UNL     1       2.124   4.106 -20.534  0.00  0.00    +0.000 A 
ATOM      2  C   UNL     1       3.193   3.252 -20.636  0.00  0.00    +0.000 A 
ATOM      3  C   UNL     1       2.224   5.385 -20.046  0.00  0.00    +0.000 A 
ATOM      4  C   UNL     1       4.587   5.002 -19.724  0.00  0.00    +0.000 A 
ATOM      5  C   UNL     1       4.446   3.708 -20.225  0.00  0.00    +0.000 A 
ATOM      6  C   UNL     1       3.476   5.841 -19.635  0.00  0.00    +0.000 A 
ATOM      7  H   UNL     1       3.107   2.242 -21.022  0.00  0.00    +0.000 HD
ATOM      8  H   UNL     1       1.397   6.077 -19.955  0.00  0.00    +0.000 HD
ATOM      9  H   UNL     1       5.304   3.044 -20.297  0.00  0.00    +0.000 HD
ATOM     10  H   UNL     1       3.573   6.850 -19.245  0.00  0.00    +0.000 HD
ENDROOT
BRANCH   4  11
ATOM     11  C   UNL     1       5.926   5.489 -19.284  0.00  0.00    +0.000 C 
ATOM     12  H   UNL     1       6.653   5.362 -20.095  0.00  0.00    +0.000 HD
ATOM     13  H   UNL     1       5.873   6.561 -19.060  0.00  0.00    +0.000 HD
BRANCH  11  15
ATOM     14  O   UNL     1       6.037   4.933 -16.918  0.00  0.00    +0.000 OA
ATOM     15  C   UNL     1       6.456   4.774 -18.056  0.00  0.00    +0.000 C 
BRANCH  15  16
ATOM     16  O   UNL     1       7.465   3.928 -18.425  0.00  0.00    +0.000 OA
BRANCH  16  17
ATOM     17  C   UNL     1       8.780   4.493 -18.407  0.00  0.00    +0.000 C 
ATOM     18  H   UNL     1       8.879   5.195 -17.574  0.00  0.00    +0.000 HD
ATOM     19  H   UNL     1       8.991   4.990 -19.359  0.00  0.00    +0.000 HD
ATOM     20  H   UNL     1       9.498   3.680 -18.269  0.00  0.00    +0.000 HD
ENDBRANCH  16  17
ENDBRANCH  15  16
ENDBRANCH  11  15
ENDBRANCH   4  11
BRANCH   1  21
ATOM     21  C   UNL     1       0.743   3.604 -20.987  0.00  0.00    +0.000 C 
BRANCH  21  22
ATOM     22  C   UNL     1       0.915   2.410 -21.952  0.00  0.00    +0.000 C 
ATOM     23  H   UNL     1       1.941   2.357 -22.334  0.00  0.00    +0.000 HD
ATOM     24  H   UNL     1       0.705   1.450 -21.470  0.00  0.00    +0.000 HD
ATOM     25  H   UNL     1       0.243   2.500 -22.814  0.00  0.00    +0.000 HD
ENDBRANCH  21  22
BRANCH  21  26
ATOM     26  C   UNL     1      -0.009   4.740 -21.715  0.00  0.00    +0.000 C 
ATOM     27  H   UNL     1      -0.939   4.396 -22.180  0.00  0.00    +0.000 HD
ATOM     28  H   UNL     1      -0.281   5.542 -21.019  0.00  0.00    +0.000 HD
ATOM     29  H   UNL     1       0.610   5.180 -22.505  0.00  0.00    +0.000 HD
ENDBRANCH  21  26
BRANCH  21  30
ATOM     30  C   UNL     1      -0.162   3.129 -19.828  0.00  0.00    +0.000 C 
ATOM     31  H   UNL     1      -0.611   3.985 -19.310  0.00  0.00    +0.000 HD
ATOM     32  H   UNL     1      -0.993   2.509 -20.184  0.00  0.00    +0.000 HD
ATOM     33  H   UNL     1       0.399   2.567 -19.073  0.00  0.00    +0.000 HD
ENDBRANCH  21  30
ENDBRANCH   1  21
TORSDOF 8
ENDMDL
MODEL 7
REMARK VINA RESULT:    -4.943     30.477     31.623
REMARK INTER + INTRA:          -7.147
REMARK INTER:                  -6.731
REMARK INTRA:                  -0.416
REMARK UNBOUND:                -0.470
REMARK  Name = 605629
REMARK  8 active torsions:
REMARK  status: ('A' for Active; 'I' for Inactive)
REMARK    1  A    between atoms: O_1  and  C_14
REMARK    2  A    between atoms: O_1  and  C_15
REMARK    3  A    between atoms: C_3  and  C_4
REMARK    4  A    between atoms: C_3  and  C_5
REMARK    5  A    between atoms: C_3  and  C_6
REMARK    6  A    between atoms: C_3  and  C_7
REMARK    7  A    between atoms: C_10  and  C_13
REMARK    8  A    between atoms: C_13  and  C_14
REMARK                            x       y       z     vdW  Elec       q    Type
REMARK                         _______ _______ _______ _____ _____    ______ ____
ROOT
ATOM      1  C   UNL     1      -3.958 -15.413   1.036  0.00  0.00    +0.000 A 
ATOM      2  C   UNL     1      -5.120 -15.534   0.316  0.00  0.00    +0.000 A 
ATOM      3  C   UNL     1      -3.872 -14.720   2.218  0.00  0.00    +0.000 A 
ATOM      4  C   UNL     1      -6.224 -14.210   2.009  0.00  0.00    +0.000 A 
ATOM      5  C   UNL     1      -6.272 -14.923   0.811  0.00  0.00    +0.000 A 
ATOM      6  C   UNL     1      -5.024 -14.109   2.713  0.00  0.00    +0.000 A 
ATOM      7  H   UNL     1      -5.182 -16.083  -0.617  0.00  0.00    +0.000 HD
ATOM      8  H   UNL     1      -2.969 -14.610   2.804  0.00  0.00    +0.000 HD
ATOM      9  H   UNL     1      -7.201 -15.007   0.252  0.00  0.00    +0.000 HD
ATOM     10  H   UNL     1      -4.973 -13.555   3.646  0.00  0.00    +0.000 HD
ENDROOT
BRANCH   4  11
ATOM     11  C   UNL     1      -7.455 -13.556   2.537  0.00  0.00    +0.000 C 
ATOM     12  H   UNL     1      -7.512 -12.522   2.175  0.00  0.00    +0.000 HD
ATOM     13  H   UNL     1      -8.342 -14.081   2.161  0.00  0.00    +0.000 HD
BRANCH  11  15
ATOM     14  O   UNL     1      -7.306 -12.548   4.747  0.00  0.00    +0.000 OA
ATOM     15  C   UNL     1      -7.525 -13.531   4.051  0.00  0.00    +0.000 C 
BRANCH  15  16
ATOM     16  O   UNL     1      -7.871 -14.772   4.509  0.00  0.00    +0.000 OA
BRANCH  16  17
ATOM     17  C   UNL     1      -8.483 -14.804   5.802  0.00  0.00    +0.000 C 
ATOM     18  H   UNL     1      -7.779 -15.189   6.545  0.00  0.00    +0.000 HD
ATOM     19  H   UNL     1      -9.390 -15.416   5.776  0.00  0.00    +0.000 HD
ATOM     20  H   UNL     1      -8.758 -13.782   6.075  0.00  0.00    +0.000 HD
ENDBRANCH  16  17
ENDBRANCH  15  16
ENDBRANCH  11  15
ENDBRANCH   4  11
BRANCH   1  21
ATOM     21  C   UNL     1      -2.688 -16.087   0.491  0.00  0.00    +0.000 C 
BRANCH  21  22
ATOM     22  C   UNL     1      -1.473 -15.677   1.351  0.00  0.00    +0.000 C 
ATOM     23  H   UNL     1      -0.981 -14.788   0.939  0.00  0.00    +0.000 HD
ATOM     24  H   UNL     1      -1.751 -15.438   2.382  0.00  0.00    +0.000 HD
ATOM     25  H   UNL     1      -0.728 -16.481   1.389  0.00  0.00    +0.000 HD
ENDBRANCH  21  22
BRANCH  21  26
ATOM     26  C   UNL     1      -2.451 -15.642  -0.969  0.00  0.00    +0.000 C 
ATOM     27  H   UNL     1      -1.920 -16.399  -1.556  0.00  0.00    +0.000 HD
ATOM     28  H   UNL     1      -3.400 -15.449  -1.482  0.00  0.00    +0.000 HD
ATOM     29  H   UNL     1      -1.858 -14.720  -1.009  0.00  0.00    +0.000 HD
ENDBRANCH  21  26
BRANCH  21  30
ATOM     30  C   UNL     1      -2.749 -17.631   0.491  0.00  0.00    +0.000 C 
ATOM     31  H   UNL     1      -2.515 -18.029   1.486  0.00  0.00    +0.000 HD
ATOM     32  H   UNL     1      -3.749 -18.002   0.234  0.00  0.00    +0.000 HD
ATOM     33  H   UNL     1      -2.022 -18.072  -0.200  0.00  0.00    +0.000 HD
ENDBRANCH  21  30
ENDBRANCH   1  21
TORSDOF 8
ENDMDL
MODEL 8
REMARK VINA RESULT:    -4.910     28.834     29.662
REMARK INTER + INTRA:          -7.102
REMARK INTER:                  -6.629
REMARK INTRA:                  -0.473
REMARK UNBOUND:                -0.470
REMARK  Name = 605629
REMARK  8 active torsions:
REMARK  status: ('A' for Active; 'I' for Inactive)
REMARK    1  A    between atoms: O_1  and  C_14
REMARK    2  A    between atoms: O_1  and  C_15
REMARK    3  A    between atoms: C_3  and  C_4
REMARK    4  A    between atoms: C_3  and  C_5
REMARK    5  A    between atoms: C_3  and  C_6
REMARK    6  A    between atoms: C_3  and  C_7
REMARK    7  A    between atoms: C_10  and  C_13
REMARK    8  A    between atoms: C_13  and  C_14
REMARK                            x       y       z     vdW  Elec       q    Type
REMARK                         _______ _______ _______ _____ _____    ______ ____
ROOT
ATOM      1  C   UNL     1      -6.555 -14.287   4.365  0.00  0.00    +0.000 A 
ATOM      2  C   UNL     1      -6.025 -15.457   4.849  0.00  0.00    +0.000 A 
ATOM      3  C   UNL     1      -7.678 -13.695   4.886  0.00  0.00    +0.000 A 
ATOM      4  C   UNL     1      -7.805 -15.503   6.483  0.00  0.00    +0.000 A 
ATOM      5  C   UNL     1      -6.660 -16.075   5.927  0.00  0.00    +0.000 A 
ATOM      6  C   UNL     1      -8.313 -14.313   5.963  0.00  0.00    +0.000 A 
ATOM      7  H   UNL     1      -5.138 -15.920   4.433  0.00  0.00    +0.000 HD
ATOM      8  H   UNL     1      -8.115 -12.774   4.522  0.00  0.00    +0.000 HD
ATOM      9  H   UNL     1      -6.256 -17.003   6.322  0.00  0.00    +0.000 HD
ATOM     10  H   UNL     1      -9.204 -13.858   6.386  0.00  0.00    +0.000 HD
ENDROOT
BRANCH   4  11
ATOM     11  C   UNL     1      -8.484 -16.164   7.634  0.00  0.00    +0.000 C 
ATOM     12  H   UNL     1      -7.817 -16.174   8.504  0.00  0.00    +0.000 HD
ATOM     13  H   UNL     1      -9.376 -15.590   7.915  0.00  0.00    +0.000 HD
BRANCH  11  15
ATOM     14  O   UNL     1      -9.763 -17.917   6.534  0.00  0.00    +0.000 OA
ATOM     15  C   UNL     1      -8.909 -17.591   7.347  0.00  0.00    +0.000 C 
BRANCH  15  16
ATOM     16  O   UNL     1      -8.189 -18.445   8.134  0.00  0.00    +0.000 OA
BRANCH  16  17
ATOM     17  C   UNL     1      -8.629 -18.552   9.492  0.00  0.00    +0.000 C 
ATOM     18  H   UNL     1      -8.570 -19.592   9.828  0.00  0.00    +0.000 HD
ATOM     19  H   UNL     1      -9.651 -18.172   9.589  0.00  0.00    +0.000 HD
ATOM     20  H   UNL     1      -7.967 -17.944  10.114  0.00  0.00    +0.000 HD
ENDBRANCH  16  17
ENDBRANCH  15  16
ENDBRANCH  11  15
ENDBRANCH   4  11
BRANCH   1  21
ATOM     21  C   UNL     1      -5.854 -13.606   3.178  0.00  0.00    +0.000 C 
BRANCH  21  22
ATOM     22  C   UNL     1      -5.369 -12.201   3.597  0.00  0.00    +0.000 C 
ATOM     23  H   UNL     1      -5.536 -11.471   2.796  0.00  0.00    +0.000 HD
ATOM     24  H   UNL     1      -5.890 -11.825   4.483  0.00  0.00    +0.000 HD
ATOM     25  H   UNL     1      -4.296 -12.206   3.824  0.00  0.00    +0.000 HD
ENDBRANCH  21  22
BRANCH  21  26
ATOM     26  C   UNL     1      -6.845 -13.470   2.000  0.00  0.00    +0.000 C 
ATOM     27  H   UNL     1      -6.416 -13.811   1.051  0.00  0.00    +0.000 HD
ATOM     28  H   UNL     1      -7.748 -14.067   2.173  0.00  0.00    +0.000 HD
ATOM     29  H   UNL     1      -7.156 -12.427   1.865  0.00  0.00    +0.000 HD
ENDBRANCH  21  26
BRANCH  21  30
ATOM     30  C   UNL     1      -4.624 -14.377   2.650  0.00  0.00    +0.000 C 
ATOM     31  H   UNL     1      -4.154 -14.956   3.455  0.00  0.00    +0.000 HD
ATOM     32  H   UNL     1      -4.894 -15.095   1.867  0.00  0.00    +0.000 HD
ATOM     33  H   UNL     1      -3.853 -13.703   2.260  0.00  0.00    +0.000 HD
ENDBRANCH  21  30
ENDBRANCH   1  21
TORSDOF 8
ENDMDL
MODEL 9
REMARK VINA RESULT:    -4.907     33.753     35.107
REMARK INTER + INTRA:          -7.099
REMARK INTER:                  -6.614
REMARK INTRA:                  -0.485
REMARK UNBOUND:                -0.470
REMARK  Name = 605629
REMARK  8 active torsions:
REMARK  status: ('A' for Active; 'I' for Inactive)
REMARK    1  A    between atoms: O_1  and  C_14
REMARK    2  A    between atoms: O_1  and  C_15
REMARK    3  A    between atoms: C_3  and  C_4
REMARK    4  A    between atoms: C_3  and  C_5
REMARK    5  A    between atoms: C_3  and  C_6
REMARK    6  A    between atoms: C_3  and  C_7
REMARK    7  A    between atoms: C_10  and  C_13
REMARK    8  A    between atoms: C_13  and  C_14
REMARK                            x       y       z     vdW  Elec       q    Type
REMARK                         _______ _______ _______ _____ _____    ______ ____
ROOT
ATOM      1  C   UNL     1     -15.505 -16.695   3.900  0.00  0.00    +0.000 A 
ATOM      2  C   UNL     1     -16.064 -15.584   3.320  0.00  0.00    +0.000 A 
ATOM      3  C   UNL     1     -15.964 -17.970   3.685  0.00  0.00    +0.000 A 
ATOM      4  C   UNL     1     -17.647 -17.041   2.222  0.00  0.00    +0.000 A 
ATOM      5  C   UNL     1     -17.153 -15.760   2.466  0.00  0.00    +0.000 A 
ATOM      6  C   UNL     1     -17.053 -18.146   2.831  0.00  0.00    +0.000 A 
ATOM      7  H   UNL     1     -15.696 -14.579   3.495  0.00  0.00    +0.000 HD
ATOM      8  H   UNL     1     -15.541 -18.862   4.130  0.00  0.00    +0.000 HD
ATOM      9  H   UNL     1     -17.609 -14.891   2.000  0.00  0.00    +0.000 HD
ATOM     10  H   UNL     1     -17.430 -19.149   2.651  0.00  0.00    +0.000 HD
ENDROOT
BRANCH   4  11
ATOM     11  C   UNL     1     -18.812 -17.229   1.311  0.00  0.00    +0.000 C 
ATOM     12  H   UNL     1     -18.636 -16.698   0.368  0.00  0.00    +0.000 HD
ATOM     13  H   UNL     1     -18.922 -18.294   1.069  0.00  0.00    +0.000 HD
BRANCH  11  15
ATOM     14  O   UNL     1     -20.522 -16.981   3.024  0.00  0.00    +0.000 OA
ATOM     15  C   UNL     1     -20.122 -16.737   1.894  0.00  0.00    +0.000 C 
BRANCH  15  16
ATOM     16  O   UNL     1     -20.777 -15.981   0.962  0.00  0.00    +0.000 OA
BRANCH  16  17
ATOM     17  C   UNL     1     -20.705 -16.463  -0.384  0.00  0.00    +0.000 C 
ATOM     18  H   UNL     1     -20.998 -15.674  -1.084  0.00  0.00    +0.000 HD
ATOM     19  H   UNL     1     -21.341 -17.344  -0.505  0.00  0.00    +0.000 HD
ATOM     20  H   UNL     1     -19.669 -16.746  -0.590  0.00  0.00    +0.000 HD
ENDBRANCH  16  17
ENDBRANCH  15  16
ENDBRANCH  11  15
ENDBRANCH   4  11
BRANCH   1  21
ATOM     21  C   UNL     1     -14.304 -16.501   4.842  0.00  0.00    +0.000 C 
BRANCH  21  22
ATOM     22  C   UNL     1     -14.115 -14.998   5.139  0.00  0.00    +0.000 C 
ATOM     23  H   UNL     1     -15.061 -14.534   5.443  0.00  0.00    +0.000 HD
ATOM     24  H   UNL     1     -13.400 -14.818   5.948  0.00  0.00    +0.000 HD
ATOM     25  H   UNL     1     -13.752 -14.463   4.253  0.00  0.00    +0.000 HD
ENDBRANCH  21  22
BRANCH  21  26
ATOM     26  C   UNL     1     -13.026 -17.050   4.171  0.00  0.00    +0.000 C 
ATOM     27  H   UNL     1     -12.368 -16.253   3.807  0.00  0.00    +0.000 HD
ATOM     28  H   UNL     1     -12.437 -17.650   4.876  0.00  0.00    +0.000 HD
ATOM     29  H   UNL     1     -13.272 -17.689   3.316  0.00  0.00    +0.000 HD
ENDBRANCH  21  26
BRANCH  21  30
ATOM     30  C   UNL     1     -14.452 -17.222   6.200  0.00  0.00    +0.000 C 
ATOM     31  H   UNL     1     -14.527 -18.307   6.059  0.00  0.00    +0.000 HD
ATOM     32  H   UNL     1     -13.585 -17.051   6.851  0.00  0.00    +0.000 HD
ATOM     33  H   UNL     1     -15.358 -16.913   6.733  0.00  0.00    +0.000 HD
ENDBRANCH  21  30
ENDBRANCH   1  21
TORSDOF 8
ENDMDL
MODEL 10
REMARK VINA RESULT:    -4.858     43.867     46.530
REMARK INTER + INTRA:          -7.033
REMARK INTER:                  -6.563
REMARK INTRA:                  -0.470
REMARK UNBOUND:                -0.470
REMARK  Name = 605629
REMARK  8 active torsions:
REMARK  status: ('A' for Active; 'I' for Inactive)
REMARK    1  A    between atoms: O_1  and  C_14
REMARK    2  A    between atoms: O_1  and  C_15
REMARK    3  A    between atoms: C_3  and  C_4
REMARK    4  A    between atoms: C_3  and  C_5
REMARK    5  A    between atoms: C_3  and  C_6
REMARK    6  A    between atoms: C_3  and  C_7
REMARK    7  A    between atoms: C_10  and  C_13
REMARK    8  A    between atoms: C_13  and  C_14
REMARK                            x       y       z     vdW  Elec       q    Type
REMARK                         _______ _______ _______ _____ _____    ______ ____
ROOT
ATOM      1  C   UNL     1       9.687   5.099 -19.561  0.00  0.00    +0.000 A 
ATOM      2  C   UNL     1       9.217   4.462 -18.441  0.00  0.00    +0.000 A 
ATOM      3  C   UNL     1       8.868   5.614 -20.535  0.00  0.00    +0.000 A 
ATOM      4  C   UNL     1       6.973   4.843 -19.250  0.00  0.00    +0.000 A 
ATOM      5  C   UNL     1       7.838   4.332 -18.282  0.00  0.00    +0.000 A 
ATOM      6  C   UNL     1       7.488   5.484 -20.376  0.00  0.00    +0.000 A 
ATOM      7  H   UNL     1       9.870   4.056 -17.675  0.00  0.00    +0.000 HD
ATOM      8  H   UNL     1       9.213   6.121 -21.427  0.00  0.00    +0.000 HD
ATOM      9  H   UNL     1       7.448   3.828 -17.401  0.00  0.00    +0.000 HD
ATOM     10  H   UNL     1       6.826   5.885 -21.139  0.00  0.00    +0.000 HD
ENDROOT
BRANCH   4  11
ATOM     11  C   UNL     1       5.498   4.703 -19.081  0.00  0.00    +0.000 C 
ATOM     12  H   UNL     1       5.056   4.293 -19.997  0.00  0.00    +0.000 HD
ATOM     13  H   UNL     1       5.286   3.993 -18.272  0.00  0.00    +0.000 HD
BRANCH  11  15
ATOM     14  O   UNL     1       4.052   6.609 -19.524  0.00  0.00    +0.000 OA
ATOM     15  C   UNL     1       4.799   6.010 -18.762  0.00  0.00    +0.000 C 
BRANCH  15  16
ATOM     16  O   UNL     1       5.134   6.405 -17.497  0.00  0.00    +0.000 OA
BRANCH  16  17
ATOM     17  C   UNL     1       4.511   7.610 -17.042  0.00  0.00    +0.000 C 
ATOM     18  H   UNL     1       3.441   7.592 -17.269  0.00  0.00    +0.000 HD
ATOM     19  H   UNL     1       4.989   8.480 -17.502  0.00  0.00    +0.000 HD
ATOM     20  H   UNL     1       4.639   7.672 -15.958  0.00  0.00    +0.000 HD
ENDBRANCH  16  17
ENDBRANCH  15  16
ENDBRANCH  11  15
ENDBRANCH   4  11
BRANCH   1  21
ATOM     21  C   UNL     1      11.208   5.243 -19.736  0.00  0.00    +0.000 C 
BRANCH  21  22
ATOM     22  C   UNL     1      11.683   4.348 -20.902  0.00  0.00    +0.000 C 
ATOM     23  H   UNL     1      12.598   4.747 -21.357  0.00  0.00    +0.000 HD
ATOM     24  H   UNL     1      11.908   3.326 -20.580  0.00  0.00    +0.000 HD
ATOM     25  H   UNL     1      10.920   4.285 -21.687  0.00  0.00    +0.000 HD
ENDBRANCH  21  22
BRANCH  21  26
ATOM     26  C   UNL     1      11.923   4.808 -18.438  0.00  0.00    +0.000 C 
ATOM     27  H   UNL     1      12.689   5.523 -18.122  0.00  0.00    +0.000 HD
ATOM     28  H   UNL     1      11.212   4.717 -17.608  0.00  0.00    +0.000 HD
ATOM     29  H   UNL     1      12.413   3.836 -18.565  0.00  0.00    +0.000 HD
ENDBRANCH  21  26
BRANCH  21  30
ATOM     30  C   UNL     1      11.669   6.684 -20.049  0.00  0.00    +0.000 C 
ATOM     31  H   UNL     1      12.391   7.032 -19.300  0.00  0.00    +0.000 HD
ATOM     32  H   UNL     1      12.170   6.753 -21.022  0.00  0.00    +0.000 HD
ATOM     33  H   UNL     1      10.835   7.395 -20.032  0.00  0.00    +0.000 HD
ENDBRANCH  21  30
ENDBRANCH   1  21
TORSDOF 8
ENDMDL
