MODEL 1
REMARK VINA RESULT:    -4.224      0.000      0.000
REMARK INTER + INTRA:          -6.579
REMARK INTER:                  -6.309
REMARK INTRA:                  -0.270
REMARK UNBOUND:                -0.380
REMARK  Name = 8091
REMARK  9 active torsions:
REMARK  status: ('A' for Active; 'I' for Inactive)
REMARK    1  A    between atoms: O_1  and  C_10
REMARK    2  A    between atoms: O_1  and  C_11
REMARK    3  A    between atoms: C_3  and  C_4
REMARK    4  A    between atoms: C_3  and  C_5
REMARK    5  A    between atoms: C_4  and  C_6
REMARK    6  A    between atoms: C_5  and  C_7
REMARK    7  A    between atoms: C_6  and  C_8
REMARK    8  A    between atoms: C_7  and  C_9
REMARK    9  A    between atoms: C_8  and  C_10
REMARK                            x       y       z     vdW  Elec       q    Type
REMARK                         _______ _______ _______ _____ _____    ______ ____
ROOT
ATOM      1  C   UNL     1      -4.647   4.802  24.782  0.00  0.00    +0.000 C 
ATOM      2  H   UNL     1      -5.073   5.755  24.445  0.00  0.00    +0.000 HD
ATOM      3  H   UNL     1      -5.074   4.014  24.147  0.00  0.00    +0.000 HD
ENDROOT
BRANCH   1   4
ATOM      4  C   UNL     1      -3.126   4.828  24.614  0.00  0.00    +0.000 C 
ATOM      5  H   UNL     1      -2.718   3.826  24.791  0.00  0.00    +0.000 HD
ATOM      6  H   UNL     1      -2.877   5.102  23.582  0.00  0.00    +0.000 HD
BRANCH   4   7
ATOM      7  C   UNL     1      -2.479   5.825  25.577  0.00  0.00    +0.000 C 
ATOM      8  H   UNL     1      -2.073   5.289  26.443  0.00  0.00    +0.000 HD
ATOM      9  H   UNL     1      -3.240   6.519  25.954  0.00  0.00    +0.000 HD
BRANCH   7  10
ATOM     10  C   UNL     1      -1.363   6.614  24.892  0.00  0.00    +0.000 C 
ATOM     11  H   UNL     1      -0.387   6.285  25.268  0.00  0.00    +0.000 HD
ATOM     12  H   UNL     1      -1.459   7.680  25.134  0.00  0.00    +0.000 HD
BRANCH  10  13
ATOM     13  C   UNL     1      -1.400   6.437  23.383  0.00  0.00    +0.000 C 
ATOM     14  H   UNL     1      -0.428   6.668  22.937  0.00  0.00    +0.000 HD
ATOM     15  H   UNL     1      -2.151   7.094  22.930  0.00  0.00    +0.000 HD
ATOM     16  H   UNL     1      -1.656   5.404  23.128  0.00  0.00    +0.000 HD
ENDBRANCH  10  13
ENDBRANCH   7  10
ENDBRANCH   4   7
ENDBRANCH   1   4
BRANCH   1  17
ATOM     17  C   UNL     1      -5.041   4.549  26.240  0.00  0.00    +0.000 C 
ATOM     18  H   UNL     1      -5.118   3.469  26.421  0.00  0.00    +0.000 HD
ATOM     19  H   UNL     1      -4.246   4.918  26.900  0.00  0.00    +0.000 HD
BRANCH  17  20
ATOM     20  C   UNL     1      -6.364   5.218  26.612  0.00  0.00    +0.000 C 
ATOM     21  H   UNL     1      -6.317   6.282  26.357  0.00  0.00    +0.000 HD
ATOM     22  H   UNL     1      -7.180   4.754  26.045  0.00  0.00    +0.000 HD
BRANCH  20  24
ATOM     23  O   UNL     1      -6.643   4.079  28.744  0.00  0.00    +0.000 OA
ATOM     24  C   UNL     1      -6.694   5.109  28.085  0.00  0.00    +0.000 C 
BRANCH  24  25
ATOM     25  O   UNL     1      -7.023   6.346  28.558  0.00  0.00    +0.000 OA
BRANCH  25  26
ATOM     26  C   UNL     1      -6.673   6.597  29.924  0.00  0.00    +0.000 C 
ATOM     27  H   UNL     1      -6.292   5.666  30.353  0.00  0.00    +0.000 HD
ATOM     28  H   UNL     1      -7.556   6.908  30.489  0.00  0.00    +0.000 HD
ATOM     29  H   UNL     1      -5.889   7.357  29.980  0.00  0.00    +0.000 HD
ENDBRANCH  25  26
ENDBRANCH  24  25
ENDBRANCH  20  24
ENDBRANCH  17  20
ENDBRANCH   1  17
TORSDOF 9
ENDMDL
MODEL 2
REMARK VINA RESULT:    -4.147     36.672     39.552
REMARK INTER + INTRA:          -6.466
REMARK INTER:                  -6.086
REMARK INTRA:                  -0.380
REMARK UNBOUND:                -0.380
REMARK  Name = 8091
REMARK  9 active torsions:
REMARK  status: ('A' for Active; 'I' for Inactive)
REMARK    1  A    between atoms: O_1  and  C_10
REMARK    2  A    between atoms: O_1  and  C_11
REMARK    3  A    between atoms: C_3  and  C_4
REMARK    4  A    between atoms: C_3  and  C_5
REMARK    5  A    between atoms: C_4  and  C_6
REMARK    6  A    between atoms: C_5  and  C_7
REMARK    7  A    between atoms: C_6  and  C_8
REMARK    8  A    between atoms: C_7  and  C_9
REMARK    9  A    between atoms: C_8  and  C_10
REMARK                            x       y       z     vdW  Elec       q    Type
REMARK                         _______ _______ _______ _____ _____    ______ ____
ROOT
ATOM      1  C   UNL     1      17.037  -6.244  -3.594  0.00  0.00    +0.000 C 
ATOM      2  H   UNL     1      17.288  -6.903  -2.754  0.00  0.00    +0.000 HD
ATOM      3  H   UNL     1      16.203  -6.710  -4.134  0.00  0.00    +0.000 HD
ENDROOT
BRANCH   1   4
ATOM      4  C   UNL     1      16.604  -4.875  -3.064  0.00  0.00    +0.000 C 
ATOM      5  H   UNL     1      17.487  -4.242  -2.913  0.00  0.00    +0.000 HD
ATOM      6  H   UNL     1      15.973  -4.378  -3.811  0.00  0.00    +0.000 HD
BRANCH   4   7
ATOM      7  C   UNL     1      15.834  -5.006  -1.749  0.00  0.00    +0.000 C 
ATOM      8  H   UNL     1      14.949  -4.361  -1.775  0.00  0.00    +0.000 HD
ATOM      9  H   UNL     1      16.462  -4.661  -0.920  0.00  0.00    +0.000 HD
BRANCH   7  10
ATOM     10  C   UNL     1      15.408  -6.453  -1.497  0.00  0.00    +0.000 C 
ATOM     11  H   UNL     1      16.088  -7.139  -2.015  0.00  0.00    +0.000 HD
ATOM     12  H   UNL     1      14.404  -6.622  -1.906  0.00  0.00    +0.000 HD
BRANCH  10  13
ATOM     13  C   UNL     1      15.405  -6.782  -0.013  0.00  0.00    +0.000 C 
ATOM     14  H   UNL     1      14.652  -7.542   0.219  0.00  0.00    +0.000 HD
ATOM     15  H   UNL     1      15.190  -5.891   0.586  0.00  0.00    +0.000 HD
ATOM     16  H   UNL     1      16.383  -7.168   0.292  0.00  0.00    +0.000 HD
ENDBRANCH  10  13
ENDBRANCH   7  10
ENDBRANCH   4   7
ENDBRANCH   1   4
BRANCH   1  17
ATOM     17  C   UNL     1      18.243  -6.121  -4.530  0.00  0.00    +0.000 C 
ATOM     18  H   UNL     1      18.214  -6.923  -5.278  0.00  0.00    +0.000 HD
ATOM     19  H   UNL     1      18.177  -5.177  -5.084  0.00  0.00    +0.000 HD
BRANCH  17  20
ATOM     20  C   UNL     1      19.573  -6.180  -3.779  0.00  0.00    +0.000 C 
ATOM     21  H   UNL     1      19.386  -6.415  -2.726  0.00  0.00    +0.000 HD
ATOM     22  H   UNL     1      20.201  -6.969  -4.211  0.00  0.00    +0.000 HD
BRANCH  20  24
ATOM     23  O   UNL     1      19.849  -3.769  -3.952  0.00  0.00    +0.000 OA
ATOM     24  C   UNL     1      20.347  -4.881  -3.834  0.00  0.00    +0.000 C 
BRANCH  24  25
ATOM     25  O   UNL     1      21.678  -5.152  -3.699  0.00  0.00    +0.000 OA
BRANCH  25  26
ATOM     26  C   UNL     1      22.314  -5.711  -4.853  0.00  0.00    +0.000 C 
ATOM     27  H   UNL     1      21.565  -6.281  -5.411  0.00  0.00    +0.000 HD
ATOM     28  H   UNL     1      23.118  -6.390  -4.551  0.00  0.00    +0.000 HD
ATOM     29  H   UNL     1      22.700  -4.915  -5.495  0.00  0.00    +0.000 HD
ENDBRANCH  25  26
ENDBRANCH  24  25
ENDBRANCH  20  24
ENDBRANCH  17  20
ENDBRANCH   1  17
TORSDOF 9
ENDMDL
MODEL 3
REMARK VINA RESULT:    -4.078     28.456     29.754
REMARK INTER + INTRA:          -6.366
REMARK INTER:                  -6.059
REMARK INTRA:                  -0.307
REMARK UNBOUND:                -0.380
REMARK  Name = 8091
REMARK  9 active torsions:
REMARK  status: ('A' for Active; 'I' for Inactive)
REMARK    1  A    between atoms: O_1  and  C_10
REMARK    2  A    between atoms: O_1  and  C_11
REMARK    3  A    between atoms: C_3  and  C_4
REMARK    4  A    between atoms: C_3  and  C_5
REMARK    5  A    between atoms: C_4  and  C_6
REMARK    6  A    between atoms: C_5  and  C_7
REMARK    7  A    between atoms: C_6  and  C_8
REMARK    8  A    between atoms: C_7  and  C_9
REMARK    9  A    between atoms: C_8  and  C_10
REMARK                            x       y       z     vdW  Elec       q    Type
REMARK                         _______ _______ _______ _____ _____    ______ ____
ROOT
ATOM      1  C   UNL     1      -7.774 -13.213   4.737  0.00  0.00    +0.000 C 
ATOM      2  H   UNL     1      -8.371 -12.333   4.469  0.00  0.00    +0.000 HD
ATOM      3  H   UNL     1      -8.136 -14.049   4.124  0.00  0.00    +0.000 HD
ENDROOT
BRANCH   1   4
ATOM      4  C   UNL     1      -6.299 -12.950   4.427  0.00  0.00    +0.000 C 
ATOM      5  H   UNL     1      -6.043 -11.919   4.701  0.00  0.00    +0.000 HD
ATOM      6  H   UNL     1      -5.674 -13.613   5.037  0.00  0.00    +0.000 HD
BRANCH   4   7
ATOM      7  C   UNL     1      -5.993 -13.179   2.946  0.00  0.00    +0.000 C 
ATOM      8  H   UNL     1      -5.181 -13.909   2.846  0.00  0.00    +0.000 HD
ATOM      9  H   UNL     1      -5.644 -12.243   2.493  0.00  0.00    +0.000 HD
BRANCH   7  10
ATOM     10  C   UNL     1      -7.227 -13.679   2.194  0.00  0.00    +0.000 C 
ATOM     11  H   UNL     1      -8.115 -13.128   2.527  0.00  0.00    +0.000 HD
ATOM     12  H   UNL     1      -7.399 -14.738   2.423  0.00  0.00    +0.000 HD
BRANCH  10  13
ATOM     13  C   UNL     1      -7.072 -13.511   0.692  0.00  0.00    +0.000 C 
ATOM     14  H   UNL     1      -7.934 -12.989   0.263  0.00  0.00    +0.000 HD
ATOM     15  H   UNL     1      -6.977 -14.483   0.197  0.00  0.00    +0.000 HD
ATOM     16  H   UNL     1      -6.174 -12.927   0.466  0.00  0.00    +0.000 HD
ENDBRANCH  10  13
ENDBRANCH   7  10
ENDBRANCH   4   7
ENDBRANCH   1   4
BRANCH   1  17
ATOM     17  C   UNL     1      -7.980 -13.543   6.219  0.00  0.00    +0.000 C 
ATOM     18  H   UNL     1      -7.417 -12.833   6.838  0.00  0.00    +0.000 HD
ATOM     19  H   UNL     1      -9.039 -13.409   6.476  0.00  0.00    +0.000 HD
BRANCH  17  20
ATOM     20  C   UNL     1      -7.548 -14.967   6.565  0.00  0.00    +0.000 C 
ATOM     21  H   UNL     1      -6.824 -15.318   5.821  0.00  0.00    +0.000 HD
ATOM     22  H   UNL     1      -7.071 -14.974   7.552  0.00  0.00    +0.000 HD
BRANCH  20  24
ATOM     23  O   UNL     1      -9.541 -16.072   5.713  0.00  0.00    +0.000 OA
ATOM     24  C   UNL     1      -8.698 -15.950   6.592  0.00  0.00    +0.000 C 
BRANCH  24  25
ATOM     25  O   UNL     1      -8.620 -16.692   7.735  0.00  0.00    +0.000 OA
BRANCH  25  26
ATOM     26  C   UNL     1      -9.185 -18.006   7.657  0.00  0.00    +0.000 C 
ATOM     27  H   UNL     1      -9.839 -18.146   8.523  0.00  0.00    +0.000 HD
ATOM     28  H   UNL     1      -8.394 -18.760   7.688  0.00  0.00    +0.000 HD
ATOM     29  H   UNL     1      -9.782 -18.107   6.746  0.00  0.00    +0.000 HD
ENDBRANCH  25  26
ENDBRANCH  24  25
ENDBRANCH  20  24
ENDBRANCH  17  20
ENDBRANCH   1  17
TORSDOF 9
ENDMDL
MODEL 4
REMARK VINA RESULT:    -3.981     45.780     46.647
REMARK INTER + INTRA:          -6.222
REMARK INTER:                  -5.967
REMARK INTRA:                  -0.256
REMARK UNBOUND:                -0.380
REMARK  Name = 8091
REMARK  9 active torsions:
REMARK  status: ('A' for Active; 'I' for Inactive)
REMARK    1  A    between atoms: O_1  and  C_10
REMARK    2  A    between atoms: O_1  and  C_11
REMARK    3  A    between atoms: C_3  and  C_4
REMARK    4  A    between atoms: C_3  and  C_5
REMARK    5  A    between atoms: C_4  and  C_6
REMARK    6  A    between atoms: C_5  and  C_7
REMARK    7  A    between atoms: C_6  and  C_8
REMARK    8  A    between atoms: C_7  and  C_9
REMARK    9  A    between atoms: C_8  and  C_10
REMARK                            x       y       z     vdW  Elec       q    Type
REMARK                         _______ _______ _______ _____ _____    ______ ____
ROOT
ATOM      1  C   UNL     1       4.250   6.726 -18.619  0.00  0.00    +0.000 C 
ATOM      2  H   UNL     1       3.583   7.086 -17.827  0.00  0.00    +0.000 HD
ATOM      3  H   UNL     1       4.646   7.610 -19.135  0.00  0.00    +0.000 HD
ENDROOT
BRANCH   1   4
ATOM      4  C   UNL     1       5.403   5.933 -18.001  0.00  0.00    +0.000 C 
ATOM      5  H   UNL     1       6.282   6.580 -17.897  0.00  0.00    +0.000 HD
ATOM      6  H   UNL     1       5.122   5.604 -16.993  0.00  0.00    +0.000 HD
BRANCH   4   7
ATOM      7  C   UNL     1       5.760   4.715 -18.854  0.00  0.00    +0.000 C 
ATOM      8  H   UNL     1       6.173   5.045 -19.814  0.00  0.00    +0.000 HD
ATOM      9  H   UNL     1       4.852   4.141 -19.073  0.00  0.00    +0.000 HD
BRANCH   7  10
ATOM     10  C   UNL     1       6.771   3.815 -18.143  0.00  0.00    +0.000 C 
ATOM     11  H   UNL     1       6.630   2.774 -18.456  0.00  0.00    +0.000 HD
ATOM     12  H   UNL     1       6.606   3.853 -17.060  0.00  0.00    +0.000 HD
BRANCH  10  13
ATOM     13  C   UNL     1       8.200   4.235 -18.446  0.00  0.00    +0.000 C 
ATOM     14  H   UNL     1       8.911   3.462 -18.135  0.00  0.00    +0.000 HD
ATOM     15  H   UNL     1       8.454   5.164 -17.924  0.00  0.00    +0.000 HD
ATOM     16  H   UNL     1       8.328   4.403 -19.520  0.00  0.00    +0.000 HD
ENDBRANCH  10  13
ENDBRANCH   7  10
ENDBRANCH   4   7
ENDBRANCH   1   4
BRANCH   1  17
ATOM     17  C   UNL     1       3.457   5.871 -19.612  0.00  0.00    +0.000 C 
ATOM     18  H   UNL     1       4.004   5.802 -20.561  0.00  0.00    +0.000 HD
ATOM     19  H   UNL     1       3.377   4.847 -19.225  0.00  0.00    +0.000 HD
BRANCH  17  20
ATOM     20  C   UNL     1       2.058   6.427 -19.875  0.00  0.00    +0.000 C 
ATOM     21  H   UNL     1       1.656   6.851 -18.949  0.00  0.00    +0.000 HD
ATOM     22  H   UNL     1       2.117   7.220 -20.630  0.00  0.00    +0.000 HD
BRANCH  20  24
ATOM     23  O   UNL     1       0.790   5.188 -21.541  0.00  0.00    +0.000 OA
ATOM     24  C   UNL     1       1.083   5.381 -20.369  0.00  0.00    +0.000 C 
BRANCH  24  25
ATOM     25  O   UNL     1       0.615   4.673 -19.300  0.00  0.00    +0.000 OA
BRANCH  25  26
ATOM     26  C   UNL     1       0.346   3.289 -19.547  0.00  0.00    +0.000 C 
ATOM     27  H   UNL     1      -0.739   3.152 -19.567  0.00  0.00    +0.000 HD
ATOM     28  H   UNL     1       0.762   2.673 -18.745  0.00  0.00    +0.000 HD
ATOM     29  H   UNL     1       0.755   2.991 -20.517  0.00  0.00    +0.000 HD
ENDBRANCH  25  26
ENDBRANCH  24  25
ENDBRANCH  20  24
ENDBRANCH  17  20
ENDBRANCH   1  17
TORSDOF 9
ENDMDL
MODEL 5
REMARK VINA RESULT:    -3.886     46.305     47.397
REMARK INTER + INTRA:          -6.084
REMARK INTER:                  -5.793
REMARK INTRA:                  -0.291
REMARK UNBOUND:                -0.380
REMARK  Name = 8091
REMARK  9 active torsions:
REMARK  status: ('A' for Active; 'I' for Inactive)
REMARK    1  A    between atoms: O_1  and  C_10
REMARK    2  A    between atoms: O_1  and  C_11
REMARK    3  A    between atoms: C_3  and  C_4
REMARK    4  A    between atoms: C_3  and  C_5
REMARK    5  A    between atoms: C_4  and  C_6
REMARK    6  A    between atoms: C_5  and  C_7
REMARK    7  A    between atoms: C_6  and  C_8
REMARK    8  A    between atoms: C_7  and  C_9
REMARK    9  A    between atoms: C_8  and  C_10
REMARK                            x       y       z     vdW  Elec       q    Type
REMARK                         _______ _______ _______ _____ _____    ______ ____
ROOT
ATOM      1  C   UNL     1       3.421   3.804 -20.785  0.00  0.00    +0.000 C 
ATOM      2  H   UNL     1       2.742   4.650 -20.626  0.00  0.00    +0.000 HD
ATOM      3  H   UNL     1       3.653   3.773 -21.858  0.00  0.00    +0.000 HD
ENDROOT
BRANCH   1   4
ATOM      4  C   UNL     1       4.708   4.019 -19.987  0.00  0.00    +0.000 C 
ATOM      5  H   UNL     1       4.816   3.223 -19.239  0.00  0.00    +0.000 HD
ATOM      6  H   UNL     1       5.572   3.950 -20.660  0.00  0.00    +0.000 HD
BRANCH   4   7
ATOM      7  C   UNL     1       4.710   5.381 -19.292  0.00  0.00    +0.000 C 
ATOM      8  H   UNL     1       3.722   5.576 -18.859  0.00  0.00    +0.000 HD
ATOM      9  H   UNL     1       4.902   6.170 -20.029  0.00  0.00    +0.000 HD
BRANCH   7  10
ATOM     10  C   UNL     1       5.772   5.443 -18.193  0.00  0.00    +0.000 C 
ATOM     11  H   UNL     1       5.299   5.662 -17.228  0.00  0.00    +0.000 HD
ATOM     12  H   UNL     1       6.476   6.259 -18.401  0.00  0.00    +0.000 HD
BRANCH  10  13
ATOM     13  C   UNL     1       6.540   4.136 -18.086  0.00  0.00    +0.000 C 
ATOM     14  H   UNL     1       5.858   3.279 -18.075  0.00  0.00    +0.000 HD
ATOM     15  H   UNL     1       7.140   4.108 -17.170  0.00  0.00    +0.000 HD
ATOM     16  H   UNL     1       7.216   4.021 -18.939  0.00  0.00    +0.000 HD
ENDBRANCH  10  13
ENDBRANCH   7  10
ENDBRANCH   4   7
ENDBRANCH   1   4
BRANCH   1  17
ATOM     17  C   UNL     1       2.725   2.501 -20.378  0.00  0.00    +0.000 C 
ATOM     18  H   UNL     1       2.648   1.836 -21.247  0.00  0.00    +0.000 HD
ATOM     19  H   UNL     1       3.343   1.976 -19.639  0.00  0.00    +0.000 HD
BRANCH  17  20
ATOM     20  C   UNL     1       1.331   2.740 -19.799  0.00  0.00    +0.000 C 
ATOM     21  H   UNL     1       1.105   1.960 -19.064  0.00  0.00    +0.000 HD
ATOM     22  H   UNL     1       1.306   3.715 -19.299  0.00  0.00    +0.000 HD
BRANCH  20  24
ATOM     23  O   UNL     1      -0.174   1.719 -21.415  0.00  0.00    +0.000 OA
ATOM     24  C   UNL     1       0.239   2.721 -20.847  0.00  0.00    +0.000 C 
BRANCH  24  25
ATOM     25  O   UNL     1      -0.225   3.992 -21.025  0.00  0.00    +0.000 OA
BRANCH  25  26
ATOM     26  C   UNL     1      -0.593   4.331 -22.367  0.00  0.00    +0.000 C 
ATOM     27  H   UNL     1       0.257   4.838 -22.834  0.00  0.00    +0.000 HD
ATOM     28  H   UNL     1      -1.449   5.012 -22.364  0.00  0.00    +0.000 HD
ATOM     29  H   UNL     1      -0.819   3.426 -22.938  0.00  0.00    +0.000 HD
ENDBRANCH  25  26
ENDBRANCH  24  25
ENDBRANCH  20  24
ENDBRANCH  17  20
ENDBRANCH   1  17
TORSDOF 9
ENDMDL
MODEL 6
REMARK VINA RESULT:    -3.874     46.425     47.573
REMARK INTER + INTRA:          -6.065
REMARK INTER:                  -5.658
REMARK INTRA:                  -0.407
REMARK UNBOUND:                -0.380
REMARK  Name = 8091
REMARK  9 active torsions:
REMARK  status: ('A' for Active; 'I' for Inactive)
REMARK    1  A    between atoms: O_1  and  C_10
REMARK    2  A    between atoms: O_1  and  C_11
REMARK    3  A    between atoms: C_3  and  C_4
REMARK    4  A    between atoms: C_3  and  C_5
REMARK    5  A    between atoms: C_4  and  C_6
REMARK    6  A    between atoms: C_5  and  C_7
REMARK    7  A    between atoms: C_6  and  C_8
REMARK    8  A    between atoms: C_7  and  C_9
REMARK    9  A    between atoms: C_8  and  C_10
REMARK                            x       y       z     vdW  Elec       q    Type
REMARK                         _______ _______ _______ _____ _____    ______ ____
ROOT
ATOM      1  C   UNL     1       4.192   4.970 -19.730  0.00  0.00    +0.000 C 
ATOM      2  H   UNL     1       3.627   4.675 -18.837  0.00  0.00    +0.000 HD
ATOM      3  H   UNL     1       3.602   5.738 -20.247  0.00  0.00    +0.000 HD
ENDROOT
BRANCH   1   4
ATOM      4  C   UNL     1       5.545   5.553 -19.316  0.00  0.00    +0.000 C 
ATOM      5  H   UNL     1       6.245   5.495 -20.158  0.00  0.00    +0.000 HD
ATOM      6  H   UNL     1       5.424   6.615 -19.067  0.00  0.00    +0.000 HD
BRANCH   4   7
ATOM      7  C   UNL     1       6.125   4.809 -18.111  0.00  0.00    +0.000 C 
ATOM      8  H   UNL     1       5.488   3.951 -17.867  0.00  0.00    +0.000 HD
ATOM      9  H   UNL     1       6.127   5.471 -17.237  0.00  0.00    +0.000 HD
BRANCH   7  10
ATOM     10  C   UNL     1       7.550   4.329 -18.389  0.00  0.00    +0.000 C 
ATOM     11  H   UNL     1       8.230   4.713 -17.620  0.00  0.00    +0.000 HD
ATOM     12  H   UNL     1       7.894   4.723 -19.353  0.00  0.00    +0.000 HD
BRANCH  10  13
ATOM     13  C   UNL     1       7.632   2.811 -18.412  0.00  0.00    +0.000 C 
ATOM     14  H   UNL     1       7.187   2.407 -19.327  0.00  0.00    +0.000 HD
ATOM     15  H   UNL     1       7.106   2.377 -17.554  0.00  0.00    +0.000 HD
ATOM     16  H   UNL     1       8.676   2.487 -18.369  0.00  0.00    +0.000 HD
ENDBRANCH  10  13
ENDBRANCH   7  10
ENDBRANCH   4   7
ENDBRANCH   1   4
BRANCH   1  17
ATOM     17  C   UNL     1       4.368   3.758 -20.651  0.00  0.00    +0.000 C 
ATOM     18  H   UNL     1       4.374   4.087 -21.697  0.00  0.00    +0.000 HD
ATOM     19  H   UNL     1       5.347   3.299 -20.463  0.00  0.00    +0.000 HD
BRANCH  17  20
ATOM     20  C   UNL     1       3.270   2.713 -20.457  0.00  0.00    +0.000 C 
ATOM     21  H   UNL     1       3.726   1.747 -20.214  0.00  0.00    +0.000 HD
ATOM     22  H   UNL     1       2.621   3.015 -19.626  0.00  0.00    +0.000 HD
BRANCH  20  24
ATOM     23  O   UNL     1       2.795   2.093 -22.761  0.00  0.00    +0.000 OA
ATOM     24  C   UNL     1       2.405   2.522 -21.683  0.00  0.00    +0.000 C 
BRANCH  24  25
ATOM     25  O   UNL     1       1.121   2.875 -21.380  0.00  0.00    +0.000 OA
BRANCH  25  26
ATOM     26  C   UNL     1       0.844   3.053 -19.987  0.00  0.00    +0.000 C 
ATOM     27  H   UNL     1      -0.078   3.635 -19.896  0.00  0.00    +0.000 HD
ATOM     28  H   UNL     1       1.657   3.605 -19.507  0.00  0.00    +0.000 HD
ATOM     29  H   UNL     1       0.696   2.083 -19.504  0.00  0.00    +0.000 HD
ENDBRANCH  25  26
ENDBRANCH  24  25
ENDBRANCH  20  24
ENDBRANCH  17  20
ENDBRANCH   1  17
TORSDOF 9
ENDMDL
MODEL 7
REMARK VINA RESULT:    -3.840     28.572     30.030
REMARK INTER + INTRA:          -6.015
REMARK INTER:                  -5.399
REMARK INTRA:                  -0.616
REMARK UNBOUND:                -0.380
REMARK  Name = 8091
REMARK  9 active torsions:
REMARK  status: ('A' for Active; 'I' for Inactive)
REMARK    1  A    between atoms: O_1  and  C_10
REMARK    2  A    between atoms: O_1  and  C_11
REMARK    3  A    between atoms: C_3  and  C_4
REMARK    4  A    between atoms: C_3  and  C_5
REMARK    5  A    between atoms: C_4  and  C_6
REMARK    6  A    between atoms: C_5  and  C_7
REMARK    7  A    between atoms: C_6  and  C_8
REMARK    8  A    between atoms: C_7  and  C_9
REMARK    9  A    between atoms: C_8  and  C_10
REMARK                            x       y       z     vdW  Elec       q    Type
REMARK                         _______ _______ _______ _____ _____    ______ ____
ROOT
ATOM      1  C   UNL     1      -8.248 -15.380   6.496  0.00  0.00    +0.000 C 
ATOM      2  H   UNL     1      -9.007 -15.652   7.240  0.00  0.00    +0.000 HD
ATOM      3  H   UNL     1      -8.700 -15.520   5.506  0.00  0.00    +0.000 HD
ENDROOT
BRANCH   1   4
ATOM      4  C   UNL     1      -7.853 -13.912   6.677  0.00  0.00    +0.000 C 
ATOM      5  H   UNL     1      -8.381 -13.491   7.541  0.00  0.00    +0.000 HD
ATOM      6  H   UNL     1      -6.779 -13.847   6.889  0.00  0.00    +0.000 HD
BRANCH   4   7
ATOM      7  C   UNL     1      -8.177 -13.092   5.427  0.00  0.00    +0.000 C 
ATOM      8  H   UNL     1      -8.473 -12.078   5.718  0.00  0.00    +0.000 HD
ATOM      9  H   UNL     1      -9.031 -13.541   4.904  0.00  0.00    +0.000 HD
BRANCH   7  10
ATOM     10  C   UNL     1      -6.979 -13.025   4.480  0.00  0.00    +0.000 C 
ATOM     11  H   UNL     1      -6.134 -13.579   4.907  0.00  0.00    +0.000 HD
ATOM     12  H   UNL     1      -6.656 -11.984   4.360  0.00  0.00    +0.000 HD
BRANCH  10  13
ATOM     13  C   UNL     1      -7.313 -13.605   3.115  0.00  0.00    +0.000 C 
ATOM     14  H   UNL     1      -7.416 -14.694   3.165  0.00  0.00    +0.000 HD
ATOM     15  H   UNL     1      -6.531 -13.367   2.386  0.00  0.00    +0.000 HD
ATOM     16  H   UNL     1      -8.257 -13.190   2.747  0.00  0.00    +0.000 HD
ENDBRANCH  10  13
ENDBRANCH   7  10
ENDBRANCH   4   7
ENDBRANCH   1   4
BRANCH   1  17
ATOM     17  C   UNL     1      -7.034 -16.303   6.637  0.00  0.00    +0.000 C 
ATOM     18  H   UNL     1      -6.332 -15.883   7.368  0.00  0.00    +0.000 HD
ATOM     19  H   UNL     1      -7.360 -17.271   7.039  0.00  0.00    +0.000 HD
BRANCH  17  20
ATOM     20  C   UNL     1      -6.309 -16.521   5.310  0.00  0.00    +0.000 C 
ATOM     21  H   UNL     1      -6.402 -17.572   5.013  0.00  0.00    +0.000 HD
ATOM     22  H   UNL     1      -6.768 -15.894   4.536  0.00  0.00    +0.000 HD
BRANCH  20  24
ATOM     23  O   UNL     1      -4.122 -16.326   6.357  0.00  0.00    +0.000 OA
ATOM     24  C   UNL     1      -4.835 -16.186   5.372  0.00  0.00    +0.000 C 
BRANCH  24  25
ATOM     25  O   UNL     1      -4.431 -15.736   4.149  0.00  0.00    +0.000 OA
BRANCH  25  26
ATOM     26  C   UNL     1      -4.993 -16.419   3.024  0.00  0.00    +0.000 C 
ATOM     27  H   UNL     1      -4.854 -17.493   3.174  0.00  0.00    +0.000 HD
ATOM     28  H   UNL     1      -4.477 -16.123   2.105  0.00  0.00    +0.000 HD
ATOM     29  H   UNL     1      -6.064 -16.209   2.951  0.00  0.00    +0.000 HD
ENDBRANCH  25  26
ENDBRANCH  24  25
ENDBRANCH  20  24
ENDBRANCH  17  20
ENDBRANCH   1  17
TORSDOF 9
ENDMDL
MODEL 8
REMARK VINA RESULT:    -3.838     45.970     47.354
REMARK INTER + INTRA:          -6.013
REMARK INTER:                  -5.556
REMARK INTRA:                  -0.457
REMARK UNBOUND:                -0.380
REMARK  Name = 8091
REMARK  9 active torsions:
REMARK  status: ('A' for Active; 'I' for Inactive)
REMARK    1  A    between atoms: O_1  and  C_10
REMARK    2  A    between atoms: O_1  and  C_11
REMARK    3  A    between atoms: C_3  and  C_4
REMARK    4  A    between atoms: C_3  and  C_5
REMARK    5  A    between atoms: C_4  and  C_6
REMARK    6  A    between atoms: C_5  and  C_7
REMARK    7  A    between atoms: C_6  and  C_8
REMARK    8  A    between atoms: C_7  and  C_9
REMARK    9  A    between atoms: C_8  and  C_10
REMARK                            x       y       z     vdW  Elec       q    Type
REMARK                         _______ _______ _______ _____ _____    ______ ____
ROOT
ATOM      1  C   UNL     1       5.517   5.262 -18.612  0.00  0.00    +0.000 C 
ATOM      2  H   UNL     1       5.964   6.153 -19.069  0.00  0.00    +0.000 HD
ATOM      3  H   UNL     1       4.659   5.599 -18.017  0.00  0.00    +0.000 HD
ENDROOT
BRANCH   1   4
ATOM      4  C   UNL     1       5.038   4.307 -19.708  0.00  0.00    +0.000 C 
ATOM      5  H   UNL     1       5.770   4.286 -20.524  0.00  0.00    +0.000 HD
ATOM      6  H   UNL     1       4.975   3.289 -19.303  0.00  0.00    +0.000 HD
BRANCH   4   7
ATOM      7  C   UNL     1       3.671   4.726 -20.252  0.00  0.00    +0.000 C 
ATOM      8  H   UNL     1       2.908   4.015 -19.917  0.00  0.00    +0.000 HD
ATOM      9  H   UNL     1       3.687   4.692 -21.348  0.00  0.00    +0.000 HD
BRANCH   7  10
ATOM     10  C   UNL     1       3.298   6.135 -19.791  0.00  0.00    +0.000 C 
ATOM     11  H   UNL     1       3.554   6.863 -20.570  0.00  0.00    +0.000 HD
ATOM     12  H   UNL     1       3.877   6.400 -18.898  0.00  0.00    +0.000 HD
BRANCH  10  13
ATOM     13  C   UNL     1       1.815   6.244 -19.476  0.00  0.00    +0.000 C 
ATOM     14  H   UNL     1       1.640   6.933 -18.644  0.00  0.00    +0.000 HD
ATOM     15  H   UNL     1       1.399   5.267 -19.206  0.00  0.00    +0.000 HD
ATOM     16  H   UNL     1       1.268   6.617 -20.348  0.00  0.00    +0.000 HD
ENDBRANCH  10  13
ENDBRANCH   7  10
ENDBRANCH   4   7
ENDBRANCH   1   4
BRANCH   1  17
ATOM     17  C   UNL     1       6.539   4.586 -17.693  0.00  0.00    +0.000 C 
ATOM     18  H   UNL     1       7.164   5.348 -17.210  0.00  0.00    +0.000 HD
ATOM     19  H   UNL     1       6.010   4.061 -16.888  0.00  0.00    +0.000 HD
BRANCH  17  20
ATOM     20  C   UNL     1       7.435   3.600 -18.442  0.00  0.00    +0.000 C 
ATOM     21  H   UNL     1       7.675   2.756 -17.785  0.00  0.00    +0.000 HD
ATOM     22  H   UNL     1       6.904   3.220 -19.323  0.00  0.00    +0.000 HD
BRANCH  20  24
ATOM     23  O   UNL     1       9.661   4.545 -18.174  0.00  0.00    +0.000 OA
ATOM     24  C   UNL     1       8.738   4.212 -18.906  0.00  0.00    +0.000 C 
BRANCH  24  25
ATOM     25  O   UNL     1       8.726   4.299 -20.268  0.00  0.00    +0.000 OA
BRANCH  25  26
ATOM     26  C   UNL     1       8.553   5.617 -20.801  0.00  0.00    +0.000 C 
ATOM     27  H   UNL     1       9.543   6.068 -20.920  0.00  0.00    +0.000 HD
ATOM     28  H   UNL     1       7.969   6.230 -20.108  0.00  0.00    +0.000 HD
ATOM     29  H   UNL     1       8.068   5.569 -21.779  0.00  0.00    +0.000 HD
ENDBRANCH  25  26
ENDBRANCH  24  25
ENDBRANCH  20  24
ENDBRANCH  17  20
ENDBRANCH   1  17
TORSDOF 9
ENDMDL
MODEL 9
REMARK VINA RESULT:    -3.831     45.021     47.003
REMARK INTER + INTRA:          -6.003
REMARK INTER:                  -5.699
REMARK INTRA:                  -0.304
REMARK UNBOUND:                -0.380
REMARK  Name = 8091
REMARK  9 active torsions:
REMARK  status: ('A' for Active; 'I' for Inactive)
REMARK    1  A    between atoms: O_1  and  C_10
REMARK    2  A    between atoms: O_1  and  C_11
REMARK    3  A    between atoms: C_3  and  C_4
REMARK    4  A    between atoms: C_3  and  C_5
REMARK    5  A    between atoms: C_4  and  C_6
REMARK    6  A    between atoms: C_5  and  C_7
REMARK    7  A    between atoms: C_6  and  C_8
REMARK    8  A    between atoms: C_7  and  C_9
REMARK    9  A    between atoms: C_8  and  C_10
REMARK                            x       y       z     vdW  Elec       q    Type
REMARK                         _______ _______ _______ _____ _____    ______ ____
ROOT
ATOM      1  C   UNL     1       2.731   6.387 -20.610  0.00  0.00    +0.000 C 
ATOM      2  H   UNL     1       2.960   7.336 -21.110  0.00  0.00    +0.000 HD
ATOM      3  H   UNL     1       3.285   5.600 -21.138  0.00  0.00    +0.000 HD
ENDROOT
BRANCH   1   4
ATOM      4  C   UNL     1       3.189   6.448 -19.152  0.00  0.00    +0.000 C 
ATOM      5  H   UNL     1       3.063   7.468 -18.768  0.00  0.00    +0.000 HD
ATOM      6  H   UNL     1       2.556   5.792 -18.542  0.00  0.00    +0.000 HD
BRANCH   4   7
ATOM      7  C   UNL     1       4.652   6.023 -19.011  0.00  0.00    +0.000 C 
ATOM      8  H   UNL     1       5.257   6.529 -19.771  0.00  0.00    +0.000 HD
ATOM      9  H   UNL     1       4.740   4.945 -19.191  0.00  0.00    +0.000 HD
BRANCH   7  10
ATOM     10  C   UNL     1       5.194   6.353 -17.620  0.00  0.00    +0.000 C 
ATOM     11  H   UNL     1       6.272   6.547 -17.675  0.00  0.00    +0.000 HD
ATOM     12  H   UNL     1       5.054   5.494 -16.952  0.00  0.00    +0.000 HD
BRANCH  10  13
ATOM     13  C   UNL     1       4.501   7.567 -17.024  0.00  0.00    +0.000 C 
ATOM     14  H   UNL     1       5.161   8.094 -16.327  0.00  0.00    +0.000 HD
ATOM     15  H   UNL     1       3.594   7.275 -16.483  0.00  0.00    +0.000 HD
ATOM     16  H   UNL     1       4.213   8.266 -17.816  0.00  0.00    +0.000 HD
ENDBRANCH  10  13
ENDBRANCH   7  10
ENDBRANCH   4   7
ENDBRANCH   1   4
BRANCH   1  17
ATOM     17  C   UNL     1       1.228   6.104 -20.709  0.00  0.00    +0.000 C 
ATOM     18  H   UNL     1       0.664   7.017 -20.481  0.00  0.00    +0.000 HD
ATOM     19  H   UNL     1       0.978   5.832 -21.742  0.00  0.00    +0.000 HD
BRANCH  17  20
ATOM     20  C   UNL     1       0.782   4.987 -19.766  0.00  0.00    +0.000 C 
ATOM     21  H   UNL     1       1.620   4.697 -19.123  0.00  0.00    +0.000 HD
ATOM     22  H   UNL     1      -0.039   5.348 -19.135  0.00  0.00    +0.000 HD
BRANCH  20  24
ATOM     23  O   UNL     1      -0.446   2.902 -20.024  0.00  0.00    +0.000 OA
ATOM     24  C   UNL     1       0.305   3.748 -20.492  0.00  0.00    +0.000 C 
BRANCH  24  25
ATOM     25  O   UNL     1       0.821   3.749 -21.756  0.00  0.00    +0.000 OA
BRANCH  25  26
ATOM     26  C   UNL     1       1.558   2.577 -22.121  0.00  0.00    +0.000 C 
ATOM     27  H   UNL     1       2.598   2.869 -22.292  0.00  0.00    +0.000 HD
ATOM     28  H   UNL     1       1.157   2.151 -23.046  0.00  0.00    +0.000 HD
ATOM     29  H   UNL     1       1.527   1.842 -21.312  0.00  0.00    +0.000 HD
ENDBRANCH  25  26
ENDBRANCH  24  25
ENDBRANCH  20  24
ENDBRANCH  17  20
ENDBRANCH   1  17
TORSDOF 9
ENDMDL
MODEL 10
REMARK VINA RESULT:    -3.768     46.967     47.993
REMARK INTER + INTRA:          -5.910
REMARK INTER:                  -5.530
REMARK INTRA:                  -0.380
REMARK UNBOUND:                -0.380
REMARK  Name = 8091
REMARK  9 active torsions:
REMARK  status: ('A' for Active; 'I' for Inactive)
REMARK    1  A    between atoms: O_1  and  C_10
REMARK    2  A    between atoms: O_1  and  C_11
REMARK    3  A    between atoms: C_3  and  C_4
REMARK    4  A    between atoms: C_3  and  C_5
REMARK    5  A    between atoms: C_4  and  C_6
REMARK    6  A    between atoms: C_5  and  C_7
REMARK    7  A    between atoms: C_6  and  C_8
REMARK    8  A    between atoms: C_7  and  C_9
REMARK    9  A    between atoms: C_8  and  C_10
REMARK                            x       y       z     vdW  Elec       q    Type
REMARK                         _______ _______ _______ _____ _____    ______ ____
ROOT
ATOM      1  C   UNL     1       0.657   4.683 -20.088  0.00  0.00    +0.000 C 
ATOM      2  H   UNL     1       0.267   5.314 -19.281  0.00  0.00    +0.000 HD
ATOM      3  H   UNL     1       0.166   5.003 -21.016  0.00  0.00    +0.000 HD
ENDROOT
BRANCH   1   4
ATOM      4  C   UNL     1       2.169   4.879 -20.213  0.00  0.00    +0.000 C 
ATOM      5  H   UNL     1       2.691   4.042 -19.732  0.00  0.00    +0.000 HD
ATOM      6  H   UNL     1       2.452   4.871 -21.273  0.00  0.00    +0.000 HD
BRANCH   4   7
ATOM      7  C   UNL     1       2.613   6.197 -19.576  0.00  0.00    +0.000 C 
ATOM      8  H   UNL     1       2.004   6.400 -18.687  0.00  0.00    +0.000 HD
ATOM      9  H   UNL     1       2.443   7.020 -20.280  0.00  0.00    +0.000 HD
BRANCH   7  10
ATOM     10  C   UNL     1       4.091   6.155 -19.186  0.00  0.00    +0.000 C 
ATOM     11  H   UNL     1       4.193   6.244 -18.098  0.00  0.00    +0.000 HD
ATOM     12  H   UNL     1       4.617   7.009 -19.631  0.00  0.00    +0.000 HD
BRANCH  10  13
ATOM     13  C   UNL     1       4.752   4.866 -19.644  0.00  0.00    +0.000 C 
ATOM     14  H   UNL     1       5.763   4.776 -19.234  0.00  0.00    +0.000 HD
ATOM     15  H   UNL     1       4.820   4.826 -20.736  0.00  0.00    +0.000 HD
ATOM     16  H   UNL     1       4.171   4.001 -19.309  0.00  0.00    +0.000 HD
ENDBRANCH  10  13
ENDBRANCH   7  10
ENDBRANCH   4   7
ENDBRANCH   1   4
BRANCH   1  17
ATOM     17  C   UNL     1       0.308   3.217 -19.809  0.00  0.00    +0.000 C 
ATOM     18  H   UNL     1       0.794   2.891 -18.881  0.00  0.00    +0.000 HD
ATOM     19  H   UNL     1      -0.773   3.127 -19.643  0.00  0.00    +0.000 HD
BRANCH  17  20
ATOM     20  C   UNL     1       0.726   2.290 -20.950  0.00  0.00    +0.000 C 
ATOM     21  H   UNL     1       1.668   2.647 -21.381  0.00  0.00    +0.000 HD
ATOM     22  H   UNL     1       0.879   1.277 -20.559  0.00  0.00    +0.000 HD
BRANCH  20  24
ATOM     23  O   UNL     1      -1.499   2.063 -21.905  0.00  0.00    +0.000 OA
ATOM     24  C   UNL     1      -0.295   2.215 -22.063  0.00  0.00    +0.000 C 
BRANCH  24  25
ATOM     25  O   UNL     1       0.341   2.376 -23.260  0.00  0.00    +0.000 OA
BRANCH  25  26
ATOM     26  C   UNL     1       0.348   3.711 -23.779  0.00  0.00    +0.000 C 
ATOM     27  H   UNL     1       0.344   4.404 -22.933  0.00  0.00    +0.000 HD
ATOM     28  H   UNL     1      -0.548   3.887 -24.382  0.00  0.00    +0.000 HD
ATOM     29  H   UNL     1       1.252   3.882 -24.370  0.00  0.00    +0.000 HD
ENDBRANCH  25  26
ENDBRANCH  24  25
ENDBRANCH  20  24
ENDBRANCH  17  20
ENDBRANCH   1  17
TORSDOF 9
ENDMDL
