MODEL 1
REMARK VINA RESULT:    -3.921      0.000      0.000
REMARK INTER + INTRA:          -5.500
REMARK INTER:                  -5.300
REMARK INTRA:                  -0.200
REMARK UNBOUND:                -0.204
REMARK  Name = 7824
REMARK  7 active torsions:
REMARK  status: ('A' for Active; 'I' for Inactive)
REMARK    1  A    between atoms: O_1  and  C_8
REMARK    2  A    between atoms: O_1  and  C_9
REMARK    3  A    between atoms: C_3  and  C_4
REMARK    4  A    between atoms: C_3  and  C_5
REMARK    5  A    between atoms: C_4  and  C_6
REMARK    6  A    between atoms: C_5  and  C_7
REMARK    7  A    between atoms: C_6  and  C_8
REMARK                            x       y       z     vdW  Elec       q    Type
REMARK                         _______ _______ _______ _____ _____    ______ ____
ROOT
ATOM      1  C   UNL     1      -5.695   4.562  25.418  0.00  0.00    +0.000 C 
ATOM      2  H   UNL     1      -6.370   5.284  24.941  0.00  0.00    +0.000 HD
ATOM      3  H   UNL     1      -6.222   3.599  25.420  0.00  0.00    +0.000 HD
ENDROOT
BRANCH   1   4
ATOM      4  C   UNL     1      -4.410   4.438  24.594  0.00  0.00    +0.000 C 
ATOM      5  H   UNL     1      -4.572   4.856  23.593  0.00  0.00    +0.000 HD
ATOM      6  H   UNL     1      -4.159   3.379  24.466  0.00  0.00    +0.000 HD
BRANCH   4   7
ATOM      7  C   UNL     1      -3.246   5.162  25.273  0.00  0.00    +0.000 C 
ATOM      8  H   UNL     1      -3.629   5.962  25.918  0.00  0.00    +0.000 HD
ATOM      9  H   UNL     1      -2.696   4.463  25.914  0.00  0.00    +0.000 HD
BRANCH   7  10
ATOM     10  C   UNL     1      -2.288   5.757  24.253  0.00  0.00    +0.000 C 
ATOM     11  H   UNL     1      -2.705   5.697  23.242  0.00  0.00    +0.000 HD
ATOM     12  H   UNL     1      -2.080   6.808  24.477  0.00  0.00    +0.000 HD
ATOM     13  H   UNL     1      -1.339   5.213  24.261  0.00  0.00    +0.000 HD
ENDBRANCH   7  10
ENDBRANCH   4   7
ENDBRANCH   1   4
BRANCH   1  14
ATOM     14  C   UNL     1      -5.426   4.998  26.857  0.00  0.00    +0.000 C 
ATOM     15  H   UNL     1      -4.373   5.278  26.966  0.00  0.00    +0.000 HD
ATOM     16  H   UNL     1      -6.050   5.868  27.095  0.00  0.00    +0.000 HD
BRANCH  14  18
ATOM     17  O   UNL     1      -6.717   3.881  28.591  0.00  0.00    +0.000 OA
ATOM     18  C   UNL     1      -5.725   3.918  27.874  0.00  0.00    +0.000 C 
BRANCH  18  19
ATOM     19  O   UNL     1      -4.700   3.016  27.880  0.00  0.00    +0.000 OA
BRANCH  19  20
ATOM     20  C   UNL     1      -4.749   2.033  28.919  0.00  0.00    +0.000 C 
ATOM     21  H   UNL     1      -4.633   1.048  28.460  0.00  0.00    +0.000 HD
ATOM     22  H   UNL     1      -5.716   2.071  29.429  0.00  0.00    +0.000 HD
ATOM     23  H   UNL     1      -3.930   2.189  29.628  0.00  0.00    +0.000 HD
ENDBRANCH  19  20
ENDBRANCH  18  19
ENDBRANCH  14  18
ENDBRANCH   1  14
TORSDOF 7
ENDMDL
MODEL 2
REMARK VINA RESULT:    -3.792      1.567      2.239
REMARK INTER + INTRA:          -5.326
REMARK INTER:                  -5.229
REMARK INTRA:                  -0.097
REMARK UNBOUND:                -0.204
REMARK  Name = 7824
REMARK  7 active torsions:
REMARK  status: ('A' for Active; 'I' for Inactive)
REMARK    1  A    between atoms: O_1  and  C_8
REMARK    2  A    between atoms: O_1  and  C_9
REMARK    3  A    between atoms: C_3  and  C_4
REMARK    4  A    between atoms: C_3  and  C_5
REMARK    5  A    between atoms: C_4  and  C_6
REMARK    6  A    between atoms: C_5  and  C_7
REMARK    7  A    between atoms: C_6  and  C_8
REMARK                            x       y       z     vdW  Elec       q    Type
REMARK                         _______ _______ _______ _____ _____    ______ ____
ROOT
ATOM      1  C   UNL     1      -5.876   4.304  25.934  0.00  0.00    +0.000 C 
ATOM      2  H   UNL     1      -6.730   3.702  25.597  0.00  0.00    +0.000 HD
ATOM      3  H   UNL     1      -5.212   3.622  26.481  0.00  0.00    +0.000 HD
ENDROOT
BRANCH   1   4
ATOM      4  C   UNL     1      -5.136   4.871  24.719  0.00  0.00    +0.000 C 
ATOM      5  H   UNL     1      -5.174   5.967  24.743  0.00  0.00    +0.000 HD
ATOM      6  H   UNL     1      -5.642   4.550  23.802  0.00  0.00    +0.000 HD
BRANCH   4   7
ATOM      7  C   UNL     1      -3.680   4.407  24.692  0.00  0.00    +0.000 C 
ATOM      8  H   UNL     1      -3.458   3.821  25.592  0.00  0.00    +0.000 HD
ATOM      9  H   UNL     1      -3.514   3.751  23.828  0.00  0.00    +0.000 HD
BRANCH   7  10
ATOM     10  C   UNL     1      -2.720   5.583  24.611  0.00  0.00    +0.000 C 
ATOM     11  H   UNL     1      -3.258   6.515  24.408  0.00  0.00    +0.000 HD
ATOM     12  H   UNL     1      -2.168   5.703  25.549  0.00  0.00    +0.000 HD
ATOM     13  H   UNL     1      -1.995   5.427  23.807  0.00  0.00    +0.000 HD
ENDBRANCH   7  10
ENDBRANCH   4   7
ENDBRANCH   1   4
BRANCH   1  14
ATOM     14  C   UNL     1      -6.372   5.398  26.879  0.00  0.00    +0.000 C 
ATOM     15  H   UNL     1      -5.603   6.171  26.982  0.00  0.00    +0.000 HD
ATOM     16  H   UNL     1      -7.278   5.854  26.460  0.00  0.00    +0.000 HD
BRANCH  14  18
ATOM     17  O   UNL     1      -6.426   3.773  28.687  0.00  0.00    +0.000 OA
ATOM     18  C   UNL     1      -6.704   4.886  28.263  0.00  0.00    +0.000 C 
BRANCH  18  19
ATOM     19  O   UNL     1      -7.387   5.854  28.943  0.00  0.00    +0.000 OA
BRANCH  19  20
ATOM     20  C   UNL     1      -7.695   5.549  30.307  0.00  0.00    +0.000 C 
ATOM     21  H   UNL     1      -8.664   5.044  30.332  0.00  0.00    +0.000 HD
ATOM     22  H   UNL     1      -7.764   6.469  30.895  0.00  0.00    +0.000 HD
ATOM     23  H   UNL     1      -6.938   4.878  30.725  0.00  0.00    +0.000 HD
ENDBRANCH  19  20
ENDBRANCH  18  19
ENDBRANCH  14  18
ENDBRANCH   1  14
TORSDOF 7
ENDMDL
MODEL 3
REMARK VINA RESULT:    -3.706     35.222     37.202
REMARK INTER + INTRA:          -5.211
REMARK INTER:                  -5.062
REMARK INTRA:                  -0.149
REMARK UNBOUND:                -0.204
REMARK  Name = 7824
REMARK  7 active torsions:
REMARK  status: ('A' for Active; 'I' for Inactive)
REMARK    1  A    between atoms: O_1  and  C_8
REMARK    2  A    between atoms: O_1  and  C_9
REMARK    3  A    between atoms: C_3  and  C_4
REMARK    4  A    between atoms: C_3  and  C_5
REMARK    5  A    between atoms: C_4  and  C_6
REMARK    6  A    between atoms: C_5  and  C_7
REMARK    7  A    between atoms: C_6  and  C_8
REMARK                            x       y       z     vdW  Elec       q    Type
REMARK                         _______ _______ _______ _____ _____    ______ ____
ROOT
ATOM      1  C   UNL     1      16.569  -5.380  -2.935  0.00  0.00    +0.000 C 
ATOM      2  H   UNL     1      16.682  -4.411  -2.433  0.00  0.00    +0.000 HD
ATOM      3  H   UNL     1      16.223  -5.164  -3.954  0.00  0.00    +0.000 HD
ENDROOT
BRANCH   1   4
ATOM      4  C   UNL     1      17.927  -6.087  -2.997  0.00  0.00    +0.000 C 
ATOM      5  H   UNL     1      17.827  -7.112  -2.620  0.00  0.00    +0.000 HD
ATOM      6  H   UNL     1      18.638  -5.569  -2.344  0.00  0.00    +0.000 HD
BRANCH   4   7
ATOM      7  C   UNL     1      18.471  -6.115  -4.426  0.00  0.00    +0.000 C 
ATOM      8  H   UNL     1      18.625  -5.092  -4.788  0.00  0.00    +0.000 HD
ATOM      9  H   UNL     1      19.447  -6.615  -4.443  0.00  0.00    +0.000 HD
BRANCH   7  10
ATOM     10  C   UNL     1      17.526  -6.843  -5.369  0.00  0.00    +0.000 C 
ATOM     11  H   UNL     1      17.779  -7.906  -5.434  0.00  0.00    +0.000 HD
ATOM     12  H   UNL     1      16.489  -6.757  -5.028  0.00  0.00    +0.000 HD
ATOM     13  H   UNL     1      17.590  -6.417  -6.374  0.00  0.00    +0.000 HD
ENDBRANCH   7  10
ENDBRANCH   4   7
ENDBRANCH   1   4
BRANCH   1  14
ATOM     14  C   UNL     1      15.514  -6.208  -2.204  0.00  0.00    +0.000 C 
ATOM     15  H   UNL     1      14.548  -5.692  -2.246  0.00  0.00    +0.000 HD
ATOM     16  H   UNL     1      15.416  -7.184  -2.694  0.00  0.00    +0.000 HD
BRANCH  14  18
ATOM     17  O   UNL     1      16.318  -7.483  -0.295  0.00  0.00    +0.000 OA
ATOM     18  C   UNL     1      15.848  -6.448  -0.748  0.00  0.00    +0.000 C 
BRANCH  18  19
ATOM     19  O   UNL     1      15.511  -5.339  -0.026  0.00  0.00    +0.000 OA
BRANCH  19  20
ATOM     20  C   UNL     1      15.513  -5.505   1.396  0.00  0.00    +0.000 C 
ATOM     21  H   UNL     1      14.571  -5.109   1.786  0.00  0.00    +0.000 HD
ATOM     22  H   UNL     1      16.340  -4.944   1.842  0.00  0.00    +0.000 HD
ATOM     23  H   UNL     1      15.581  -6.566   1.654  0.00  0.00    +0.000 HD
ENDBRANCH  19  20
ENDBRANCH  18  19
ENDBRANCH  14  18
ENDBRANCH   1  14
TORSDOF 7
ENDMDL
MODEL 4
REMARK VINA RESULT:    -3.671     35.378     37.472
REMARK INTER + INTRA:          -5.163
REMARK INTER:                  -4.982
REMARK INTRA:                  -0.181
REMARK UNBOUND:                -0.204
REMARK  Name = 7824
REMARK  7 active torsions:
REMARK  status: ('A' for Active; 'I' for Inactive)
REMARK    1  A    between atoms: O_1  and  C_8
REMARK    2  A    between atoms: O_1  and  C_9
REMARK    3  A    between atoms: C_3  and  C_4
REMARK    4  A    between atoms: C_3  and  C_5
REMARK    5  A    between atoms: C_4  and  C_6
REMARK    6  A    between atoms: C_5  and  C_7
REMARK    7  A    between atoms: C_6  and  C_8
REMARK                            x       y       z     vdW  Elec       q    Type
REMARK                         _______ _______ _______ _____ _____    ______ ____
ROOT
ATOM      1  C   UNL     1      15.846  -4.865  -2.367  0.00  0.00    +0.000 C 
ATOM      2  H   UNL     1      15.125  -4.284  -2.956  0.00  0.00    +0.000 HD
ATOM      3  H   UNL     1      15.914  -4.374  -1.388  0.00  0.00    +0.000 HD
ENDROOT
BRANCH   1   4
ATOM      4  C   UNL     1      15.326  -6.294  -2.186  0.00  0.00    +0.000 C 
ATOM      5  H   UNL     1      15.893  -6.977  -2.831  0.00  0.00    +0.000 HD
ATOM      6  H   UNL     1      14.279  -6.344  -2.503  0.00  0.00    +0.000 HD
BRANCH   4   7
ATOM      7  C   UNL     1      15.443  -6.746  -0.730  0.00  0.00    +0.000 C 
ATOM      8  H   UNL     1      14.539  -7.292  -0.435  0.00  0.00    +0.000 HD
ATOM      9  H   UNL     1      16.289  -7.435  -0.620  0.00  0.00    +0.000 HD
BRANCH   7  10
ATOM     10  C   UNL     1      15.643  -5.565   0.206  0.00  0.00    +0.000 C 
ATOM     11  H   UNL     1      16.643  -5.135   0.088  0.00  0.00    +0.000 HD
ATOM     12  H   UNL     1      14.907  -4.779   0.009  0.00  0.00    +0.000 HD
ATOM     13  H   UNL     1      15.532  -5.882   1.247  0.00  0.00    +0.000 HD
ENDBRANCH   7  10
ENDBRANCH   4   7
ENDBRANCH   1   4
BRANCH   1  14
ATOM     14  C   UNL     1      17.210  -4.823  -3.053  0.00  0.00    +0.000 C 
ATOM     15  H   UNL     1      17.685  -5.808  -2.990  0.00  0.00    +0.000 HD
ATOM     16  H   UNL     1      17.076  -4.562  -4.110  0.00  0.00    +0.000 HD
BRANCH  14  18
ATOM     17  O   UNL     1      18.042  -3.331  -1.322  0.00  0.00    +0.000 OA
ATOM     18  C   UNL     1      18.156  -3.813  -2.441  0.00  0.00    +0.000 C 
BRANCH  18  19
ATOM     19  O   UNL     1      19.131  -3.509  -3.348  0.00  0.00    +0.000 OA
BRANCH  19  20
ATOM     20  C   UNL     1      20.397  -4.137  -3.126  0.00  0.00    +0.000 C 
ATOM     21  H   UNL     1      20.909  -4.220  -4.088  0.00  0.00    +0.000 HD
ATOM     22  H   UNL     1      20.254  -5.142  -2.716  0.00  0.00    +0.000 HD
ATOM     23  H   UNL     1      21.009  -3.529  -2.453  0.00  0.00    +0.000 HD
ENDBRANCH  19  20
ENDBRANCH  18  19
ENDBRANCH  14  18
ENDBRANCH   1  14
TORSDOF 7
ENDMDL
MODEL 5
REMARK VINA RESULT:    -3.635     36.208     38.306
REMARK INTER + INTRA:          -5.114
REMARK INTER:                  -4.924
REMARK INTRA:                  -0.190
REMARK UNBOUND:                -0.204
REMARK  Name = 7824
REMARK  7 active torsions:
REMARK  status: ('A' for Active; 'I' for Inactive)
REMARK    1  A    between atoms: O_1  and  C_8
REMARK    2  A    between atoms: O_1  and  C_9
REMARK    3  A    between atoms: C_3  and  C_4
REMARK    4  A    between atoms: C_3  and  C_5
REMARK    5  A    between atoms: C_4  and  C_6
REMARK    6  A    between atoms: C_5  and  C_7
REMARK    7  A    between atoms: C_6  and  C_8
REMARK                            x       y       z     vdW  Elec       q    Type
REMARK                         _______ _______ _______ _____ _____    ______ ____
ROOT
ATOM      1  C   UNL     1      16.515  -4.798  -2.633  0.00  0.00    +0.000 C 
ATOM      2  H   UNL     1      16.092  -3.950  -3.186  0.00  0.00    +0.000 HD
ATOM      3  H   UNL     1      17.572  -4.562  -2.461  0.00  0.00    +0.000 HD
ENDROOT
BRANCH   1   4
ATOM      4  C   UNL     1      15.799  -4.940  -1.286  0.00  0.00    +0.000 C 
ATOM      5  H   UNL     1      14.894  -4.320  -1.283  0.00  0.00    +0.000 HD
ATOM      6  H   UNL     1      16.449  -4.569  -0.487  0.00  0.00    +0.000 HD
BRANCH   4   7
ATOM      7  C   UNL     1      15.426  -6.397  -1.008  0.00  0.00    +0.000 C 
ATOM      8  H   UNL     1      14.425  -6.608  -1.405  0.00  0.00    +0.000 HD
ATOM      9  H   UNL     1      16.126  -7.066  -1.523  0.00  0.00    +0.000 HD
BRANCH   7  10
ATOM     10  C   UNL     1      15.450  -6.705   0.480  0.00  0.00    +0.000 C 
ATOM     11  H   UNL     1      15.734  -5.820   1.059  0.00  0.00    +0.000 HD
ATOM     12  H   UNL     1      14.467  -7.041   0.827  0.00  0.00    +0.000 HD
ATOM     13  H   UNL     1      16.174  -7.497   0.692  0.00  0.00    +0.000 HD
ENDBRANCH   7  10
ENDBRANCH   4   7
ENDBRANCH   1   4
BRANCH   1  14
ATOM     14  C   UNL     1      16.407  -6.061  -3.486  0.00  0.00    +0.000 C 
ATOM     15  H   UNL     1      16.237  -6.928  -2.840  0.00  0.00    +0.000 HD
ATOM     16  H   UNL     1      15.559  -5.961  -4.175  0.00  0.00    +0.000 HD
BRANCH  14  18
ATOM     17  O   UNL     1      17.652  -6.780  -5.448  0.00  0.00    +0.000 OA
ATOM     18  C   UNL     1      17.647  -6.332  -4.310  0.00  0.00    +0.000 C 
BRANCH  18  19
ATOM     19  O   UNL     1      18.751  -6.024  -3.566  0.00  0.00    +0.000 OA
BRANCH  19  20
ATOM     20  C   UNL     1      19.903  -5.619  -4.312  0.00  0.00    +0.000 C 
ATOM     21  H   UNL     1      20.737  -5.506  -3.614  0.00  0.00    +0.000 HD
ATOM     22  H   UNL     1      19.721  -4.657  -4.799  0.00  0.00    +0.000 HD
ATOM     23  H   UNL     1      20.164  -6.384  -5.050  0.00  0.00    +0.000 HD
ENDBRANCH  19  20
ENDBRANCH  18  19
ENDBRANCH  14  18
ENDBRANCH   1  14
TORSDOF 7
ENDMDL
MODEL 6
REMARK VINA RESULT:    -3.577      2.693      4.814
REMARK INTER + INTRA:          -5.036
REMARK INTER:                  -4.795
REMARK INTRA:                  -0.241
REMARK UNBOUND:                -0.204
REMARK  Name = 7824
REMARK  7 active torsions:
REMARK  status: ('A' for Active; 'I' for Inactive)
REMARK    1  A    between atoms: O_1  and  C_8
REMARK    2  A    between atoms: O_1  and  C_9
REMARK    3  A    between atoms: C_3  and  C_4
REMARK    4  A    between atoms: C_3  and  C_5
REMARK    5  A    between atoms: C_4  and  C_6
REMARK    6  A    between atoms: C_5  and  C_7
REMARK    7  A    between atoms: C_6  and  C_8
REMARK                            x       y       z     vdW  Elec       q    Type
REMARK                         _______ _______ _______ _____ _____    ______ ____
ROOT
ATOM      1  C   UNL     1      -3.691   4.373  24.925  0.00  0.00    +0.000 C 
ATOM      2  H   UNL     1      -3.468   4.279  25.996  0.00  0.00    +0.000 HD
ATOM      3  H   UNL     1      -3.426   3.413  24.466  0.00  0.00    +0.000 HD
ENDROOT
BRANCH   1   4
ATOM      4  C   UNL     1      -5.189   4.632  24.735  0.00  0.00    +0.000 C 
ATOM      5  H   UNL     1      -5.626   3.835  24.122  0.00  0.00    +0.000 HD
ATOM      6  H   UNL     1      -5.330   5.573  24.191  0.00  0.00    +0.000 HD
BRANCH   4   7
ATOM      7  C   UNL     1      -5.914   4.704  26.080  0.00  0.00    +0.000 C 
ATOM      8  H   UNL     1      -6.156   5.746  26.318  0.00  0.00    +0.000 HD
ATOM      9  H   UNL     1      -6.862   4.156  26.021  0.00  0.00    +0.000 HD
BRANCH   7  10
ATOM     10  C   UNL     1      -5.071   4.116  27.200  0.00  0.00    +0.000 C 
ATOM     11  H   UNL     1      -5.088   3.021  27.171  0.00  0.00    +0.000 HD
ATOM     12  H   UNL     1      -4.030   4.445  27.121  0.00  0.00    +0.000 HD
ATOM     13  H   UNL     1      -5.456   4.436  28.173  0.00  0.00    +0.000 HD
ENDBRANCH   7  10
ENDBRANCH   4   7
ENDBRANCH   1   4
BRANCH   1  14
ATOM     14  C   UNL     1      -2.827   5.481  24.325  0.00  0.00    +0.000 C 
ATOM     15  H   UNL     1      -2.160   5.057  23.567  0.00  0.00    +0.000 HD
ATOM     16  H   UNL     1      -3.474   6.227  23.848  0.00  0.00    +0.000 HD
BRANCH  14  18
ATOM     17  O   UNL     1      -2.137   6.143  26.561  0.00  0.00    +0.000 OA
ATOM     18  C   UNL     1      -1.971   6.192  25.350  0.00  0.00    +0.000 C 
BRANCH  18  19
ATOM     19  O   UNL     1      -1.011   6.916  24.702  0.00  0.00    +0.000 OA
BRANCH  19  20
ATOM     20  C   UNL     1      -0.972   6.755  23.280  0.00  0.00    +0.000 C 
ATOM     21  H   UNL     1      -0.790   5.699  23.063  0.00  0.00    +0.000 HD
ATOM     22  H   UNL     1      -0.157   7.347  22.854  0.00  0.00    +0.000 HD
ATOM     23  H   UNL     1      -1.931   7.043  22.839  0.00  0.00    +0.000 HD
ENDBRANCH  19  20
ENDBRANCH  18  19
ENDBRANCH  14  18
ENDBRANCH   1  14
TORSDOF 7
ENDMDL
MODEL 7
REMARK VINA RESULT:    -3.569     27.894     29.009
REMARK INTER + INTRA:          -5.025
REMARK INTER:                  -4.728
REMARK INTRA:                  -0.297
REMARK UNBOUND:                -0.204
REMARK  Name = 7824
REMARK  7 active torsions:
REMARK  status: ('A' for Active; 'I' for Inactive)
REMARK    1  A    between atoms: O_1  and  C_8
REMARK    2  A    between atoms: O_1  and  C_9
REMARK    3  A    between atoms: C_3  and  C_4
REMARK    4  A    between atoms: C_3  and  C_5
REMARK    5  A    between atoms: C_4  and  C_6
REMARK    6  A    between atoms: C_5  and  C_7
REMARK    7  A    between atoms: C_6  and  C_8
REMARK                            x       y       z     vdW  Elec       q    Type
REMARK                         _______ _______ _______ _____ _____    ______ ____
ROOT
ATOM      1  C   UNL     1      -7.481 -13.633   3.996  0.00  0.00    +0.000 C 
ATOM      2  H   UNL     1      -7.438 -14.723   4.116  0.00  0.00    +0.000 HD
ATOM      3  H   UNL     1      -8.069 -13.443   3.089  0.00  0.00    +0.000 HD
ENDROOT
BRANCH   1   4
ATOM      4  C   UNL     1      -8.191 -13.012   5.203  0.00  0.00    +0.000 C 
ATOM      5  H   UNL     1      -9.277 -13.066   5.059  0.00  0.00    +0.000 HD
ATOM      6  H   UNL     1      -7.926 -11.952   5.276  0.00  0.00    +0.000 HD
BRANCH   4   7
ATOM      7  C   UNL     1      -7.808 -13.727   6.499  0.00  0.00    +0.000 C 
ATOM      8  H   UNL     1      -6.723 -13.675   6.647  0.00  0.00    +0.000 HD
ATOM      9  H   UNL     1      -8.277 -13.226   7.354  0.00  0.00    +0.000 HD
BRANCH   7  10
ATOM     10  C   UNL     1      -8.241 -15.184   6.481  0.00  0.00    +0.000 C 
ATOM     11  H   UNL     1      -9.088 -15.334   5.804  0.00  0.00    +0.000 HD
ATOM     12  H   UNL     1      -7.422 -15.833   6.155  0.00  0.00    +0.000 HD
ATOM     13  H   UNL     1      -8.548 -15.501   7.483  0.00  0.00    +0.000 HD
ENDBRANCH   7  10
ENDBRANCH   4   7
ENDBRANCH   1   4
BRANCH   1  14
ATOM     14  C   UNL     1      -6.066 -13.089   3.809  0.00  0.00    +0.000 C 
ATOM     15  H   UNL     1      -6.037 -12.432   2.933  0.00  0.00    +0.000 HD
ATOM     16  H   UNL     1      -5.781 -12.509   4.695  0.00  0.00    +0.000 HD
BRANCH  14  18
ATOM     17  O   UNL     1      -4.475 -14.430   2.549  0.00  0.00    +0.000 OA
ATOM     18  C   UNL     1      -5.031 -14.174   3.609  0.00  0.00    +0.000 C 
BRANCH  18  19
ATOM     19  O   UNL     1      -4.844 -14.833   4.790  0.00  0.00    +0.000 OA
BRANCH  19  20
ATOM     20  C   UNL     1      -4.916 -16.261   4.717  0.00  0.00    +0.000 C 
ATOM     21  H   UNL     1      -5.804 -16.528   4.138  0.00  0.00    +0.000 HD
ATOM     22  H   UNL     1      -5.010 -16.687   5.721  0.00  0.00    +0.000 HD
ATOM     23  H   UNL     1      -4.032 -16.660   4.209  0.00  0.00    +0.000 HD
ENDBRANCH  19  20
ENDBRANCH  18  19
ENDBRANCH  14  18
ENDBRANCH   1  14
TORSDOF 7
ENDMDL
MODEL 8
REMARK VINA RESULT:    -3.564     42.838     44.079
REMARK INTER + INTRA:          -5.019
REMARK INTER:                  -4.813
REMARK INTRA:                  -0.206
REMARK UNBOUND:                -0.204
REMARK  Name = 7824
REMARK  7 active torsions:
REMARK  status: ('A' for Active; 'I' for Inactive)
REMARK    1  A    between atoms: O_1  and  C_8
REMARK    2  A    between atoms: O_1  and  C_9
REMARK    3  A    between atoms: C_3  and  C_4
REMARK    4  A    between atoms: C_3  and  C_5
REMARK    5  A    between atoms: C_4  and  C_6
REMARK    6  A    between atoms: C_5  and  C_7
REMARK    7  A    between atoms: C_6  and  C_8
REMARK                            x       y       z     vdW  Elec       q    Type
REMARK                         _______ _______ _______ _____ _____    ______ ____
ROOT
ATOM      1  C   UNL     1      12.798  18.327 -10.947  0.00  0.00    +0.000 C 
ATOM      2  H   UNL     1      12.465  18.230  -9.906  0.00  0.00    +0.000 HD
ATOM      3  H   UNL     1      13.889  18.437 -10.915  0.00  0.00    +0.000 HD
ENDROOT
BRANCH   1   4
ATOM      4  C   UNL     1      12.436  17.055 -11.720  0.00  0.00    +0.000 C 
ATOM      5  H   UNL     1      11.921  17.323 -12.651  0.00  0.00    +0.000 HD
ATOM      6  H   UNL     1      11.740  16.453 -11.127  0.00  0.00    +0.000 HD
BRANCH   4   7
ATOM      7  C   UNL     1      13.683  16.229 -12.041  0.00  0.00    +0.000 C 
ATOM      8  H   UNL     1      14.056  15.747 -11.130  0.00  0.00    +0.000 HD
ATOM      9  H   UNL     1      13.429  15.431 -12.750  0.00  0.00    +0.000 HD
BRANCH   7  10
ATOM     10  C   UNL     1      14.784  17.089 -12.639  0.00  0.00    +0.000 C 
ATOM     11  H   UNL     1      14.831  16.967 -13.726  0.00  0.00    +0.000 HD
ATOM     12  H   UNL     1      14.616  18.149 -12.420  0.00  0.00    +0.000 HD
ATOM     13  H   UNL     1      15.755  16.806 -12.224  0.00  0.00    +0.000 HD
ENDBRANCH   7  10
ENDBRANCH   4   7
ENDBRANCH   1   4
BRANCH   1  14
ATOM     14  C   UNL     1      12.177  19.580 -11.562  0.00  0.00    +0.000 C 
ATOM     15  H   UNL     1      12.585  20.470 -11.072  0.00  0.00    +0.000 HD
ATOM     16  H   UNL     1      12.425  19.619 -12.630  0.00  0.00    +0.000 HD
BRANCH  14  18
ATOM     17  O   UNL     1       9.880  19.555 -12.361  0.00  0.00    +0.000 OA
ATOM     18  C   UNL     1      10.671  19.626 -11.430  0.00  0.00    +0.000 C 
BRANCH  18  19
ATOM     19  O   UNL     1      10.345  19.788 -10.113  0.00  0.00    +0.000 OA
BRANCH  19  20
ATOM     20  C   UNL     1      10.481  21.119  -9.605  0.00  0.00    +0.000 C 
ATOM     21  H   UNL     1      11.366  21.569 -10.062  0.00  0.00    +0.000 HD
ATOM     22  H   UNL     1      10.620  21.097  -8.519  0.00  0.00    +0.000 HD
ATOM     23  H   UNL     1       9.605  21.718  -9.871  0.00  0.00    +0.000 HD
ENDBRANCH  19  20
ENDBRANCH  18  19
ENDBRANCH  14  18
ENDBRANCH   1  14
TORSDOF 7
ENDMDL
MODEL 9
REMARK VINA RESULT:    -3.551     31.999     34.406
REMARK INTER + INTRA:          -5.001
REMARK INTER:                  -4.880
REMARK INTRA:                  -0.122
REMARK UNBOUND:                -0.204
REMARK  Name = 7824
REMARK  7 active torsions:
REMARK  status: ('A' for Active; 'I' for Inactive)
REMARK    1  A    between atoms: O_1  and  C_8
REMARK    2  A    between atoms: O_1  and  C_9
REMARK    3  A    between atoms: C_3  and  C_4
REMARK    4  A    between atoms: C_3  and  C_5
REMARK    5  A    between atoms: C_4  and  C_6
REMARK    6  A    between atoms: C_5  and  C_7
REMARK    7  A    between atoms: C_6  and  C_8
REMARK                            x       y       z     vdW  Elec       q    Type
REMARK                         _______ _______ _______ _____ _____    ______ ____
ROOT
ATOM      1  C   UNL     1      15.304   6.169  -2.346  0.00  0.00    +0.000 C 
ATOM      2  H   UNL     1      14.505   6.918  -2.418  0.00  0.00    +0.000 HD
ATOM      3  H   UNL     1      15.316   5.634  -3.304  0.00  0.00    +0.000 HD
ENDROOT
BRANCH   1   4
ATOM      4  C   UNL     1      16.648   6.873  -2.138  0.00  0.00    +0.000 C 
ATOM      5  H   UNL     1      17.460   6.234  -2.507  0.00  0.00    +0.000 HD
ATOM      6  H   UNL     1      16.818   7.027  -1.066  0.00  0.00    +0.000 HD
BRANCH   4   7
ATOM      7  C   UNL     1      16.685   8.221  -2.860  0.00  0.00    +0.000 C 
ATOM      8  H   UNL     1      16.027   8.192  -3.737  0.00  0.00    +0.000 HD
ATOM      9  H   UNL     1      16.308   9.009  -2.198  0.00  0.00    +0.000 HD
BRANCH   7  10
ATOM     10  C   UNL     1      18.095   8.579  -3.303  0.00  0.00    +0.000 C 
ATOM     11  H   UNL     1      18.080   9.138  -4.244  0.00  0.00    +0.000 HD
ATOM     12  H   UNL     1      18.599   9.190  -2.548  0.00  0.00    +0.000 HD
ATOM     13  H   UNL     1      18.686   7.671  -3.456  0.00  0.00    +0.000 HD
ENDBRANCH   7  10
ENDBRANCH   4   7
ENDBRANCH   1   4
BRANCH   1  14
ATOM     14  C   UNL     1      14.978   5.190  -1.220  0.00  0.00    +0.000 C 
ATOM     15  H   UNL     1      14.951   4.169  -1.617  0.00  0.00    +0.000 HD
ATOM     16  H   UNL     1      15.758   5.250  -0.451  0.00  0.00    +0.000 HD
BRANCH  14  18
ATOM     17  O   UNL     1      12.923   4.617  -0.051  0.00  0.00    +0.000 OA
ATOM     18  C   UNL     1      13.647   5.465  -0.556  0.00  0.00    +0.000 C 
BRANCH  18  19
ATOM     19  O   UNL     1      13.376   6.801  -0.641  0.00  0.00    +0.000 OA
BRANCH  19  20
ATOM     20  C   UNL     1      12.828   7.395   0.541  0.00  0.00    +0.000 C 
ATOM     21  H   UNL     1      13.167   8.433   0.588  0.00  0.00    +0.000 HD
ATOM     22  H   UNL     1      13.187   6.868   1.431  0.00  0.00    +0.000 HD
ATOM     23  H   UNL     1      11.735   7.384   0.499  0.00  0.00    +0.000 HD
ENDBRANCH  19  20
ENDBRANCH  18  19
ENDBRANCH  14  18
ENDBRANCH   1  14
TORSDOF 7
ENDMDL
MODEL 10
REMARK VINA RESULT:    -3.453     32.257     34.478
REMARK INTER + INTRA:          -4.868
REMARK INTER:                  -4.664
REMARK INTRA:                  -0.204
REMARK UNBOUND:                -0.204
REMARK  Name = 7824
REMARK  7 active torsions:
REMARK  status: ('A' for Active; 'I' for Inactive)
REMARK    1  A    between atoms: O_1  and  C_8
REMARK    2  A    between atoms: O_1  and  C_9
REMARK    3  A    between atoms: C_3  and  C_4
REMARK    4  A    between atoms: C_3  and  C_5
REMARK    5  A    between atoms: C_4  and  C_6
REMARK    6  A    between atoms: C_5  and  C_7
REMARK    7  A    between atoms: C_6  and  C_8
REMARK                            x       y       z     vdW  Elec       q    Type
REMARK                         _______ _______ _______ _____ _____    ______ ____
ROOT
ATOM      1  C   UNL     1      15.739   5.249  -1.199  0.00  0.00    +0.000 C 
ATOM      2  H   UNL     1      15.782   6.142  -0.563  0.00  0.00    +0.000 HD
ATOM      3  H   UNL     1      16.777   4.924  -1.349  0.00  0.00    +0.000 HD
ENDROOT
BRANCH   1   4
ATOM      4  C   UNL     1      14.958   4.144  -0.481  0.00  0.00    +0.000 C 
ATOM      5  H   UNL     1      15.527   3.798   0.391  0.00  0.00    +0.000 HD
ATOM      6  H   UNL     1      14.839   3.286  -1.152  0.00  0.00    +0.000 HD
BRANCH   4   7
ATOM      7  C   UNL     1      13.582   4.640  -0.034  0.00  0.00    +0.000 C 
ATOM      8  H   UNL     1      13.697   5.458   0.688  0.00  0.00    +0.000 HD
ATOM      9  H   UNL     1      13.033   5.042  -0.895  0.00  0.00    +0.000 HD
BRANCH   7  10
ATOM     10  C   UNL     1      12.765   3.525   0.598  0.00  0.00    +0.000 C 
ATOM     11  H   UNL     1      13.131   2.543   0.281  0.00  0.00    +0.000 HD
ATOM     12  H   UNL     1      12.815   3.573   1.691  0.00  0.00    +0.000 HD
ATOM     13  H   UNL     1      11.715   3.608   0.301  0.00  0.00    +0.000 HD
ENDBRANCH   7  10
ENDBRANCH   4   7
ENDBRANCH   1   4
BRANCH   1  14
ATOM     14  C   UNL     1      15.121   5.618  -2.547  0.00  0.00    +0.000 C 
ATOM     15  H   UNL     1      15.816   5.360  -3.353  0.00  0.00    +0.000 HD
ATOM     16  H   UNL     1      14.192   5.053  -2.686  0.00  0.00    +0.000 HD
BRANCH  14  18
ATOM     17  O   UNL     1      14.459   7.653  -3.704  0.00  0.00    +0.000 OA
ATOM     18  C   UNL     1      14.795   7.091  -2.670  0.00  0.00    +0.000 C 
BRANCH  18  19
ATOM     19  O   UNL     1      14.966   7.687  -1.453  0.00  0.00    +0.000 OA
BRANCH  19  20
ATOM     20  C   UNL     1      15.568   8.985  -1.483  0.00  0.00    +0.000 C 
ATOM     21  H   UNL     1      14.768   9.730  -1.514  0.00  0.00    +0.000 HD
ATOM     22  H   UNL     1      16.186   9.096  -2.379  0.00  0.00    +0.000 HD
ATOM     23  H   UNL     1      16.164   9.148  -0.580  0.00  0.00    +0.000 HD
ENDBRANCH  19  20
ENDBRANCH  18  19
ENDBRANCH  14  18
ENDBRANCH   1  14
TORSDOF 7
ENDMDL
