MODEL 1
REMARK VINA RESULT:    -4.266      0.000      0.000
REMARK INTER + INTRA:          -6.425
REMARK INTER:                  -6.066
REMARK INTRA:                  -0.359
REMARK UNBOUND:                -0.290
REMARK  Name = 31289
REMARK  8 active torsions:
REMARK  status: ('A' for Active; 'I' for Inactive)
REMARK    1  A    between atoms: C_2  and  C_3
REMARK    2  A    between atoms: C_2  and  C_4
REMARK    3  A    between atoms: C_3  and  C_5
REMARK    4  A    between atoms: C_4  and  C_6
REMARK    5  A    between atoms: C_5  and  C_7
REMARK    6  A    between atoms: C_6  and  C_8
REMARK    7  A    between atoms: C_7  and  C_9
REMARK    8  A    between atoms: C_8  and  C_10
REMARK                            x       y       z     vdW  Elec       q    Type
REMARK                         _______ _______ _______ _____ _____    ______ ____
ROOT
ATOM      1  C   UNL     1      16.956  -4.405  -1.849  0.00  0.00    +0.000 C 
ATOM      2  H   UNL     1      17.746  -4.701  -1.149  0.00  0.00    +0.000 HD
ATOM      3  H   UNL     1      17.009  -3.314  -1.954  0.00  0.00    +0.000 HD
ENDROOT
BRANCH   1   4
ATOM      4  C   UNL     1      17.205  -5.059  -3.209  0.00  0.00    +0.000 C 
ATOM      5  H   UNL     1      16.311  -5.619  -3.511  0.00  0.00    +0.000 HD
ATOM      6  H   UNL     1      17.359  -4.277  -3.963  0.00  0.00    +0.000 HD
BRANCH   4   7
ATOM      7  C   UNL     1      18.413  -6.001  -3.220  0.00  0.00    +0.000 C 
ATOM      8  H   UNL     1      19.293  -5.461  -2.850  0.00  0.00    +0.000 HD
ATOM      9  H   UNL     1      18.226  -6.823  -2.516  0.00  0.00    +0.000 HD
BRANCH   7  10
ATOM     10  C   UNL     1      18.721  -6.578  -4.602  0.00  0.00    +0.000 C 
ATOM     11  H   UNL     1      19.382  -5.898  -5.150  0.00  0.00    +0.000 HD
ATOM     12  H   UNL     1      19.251  -7.533  -4.496  0.00  0.00    +0.000 HD
BRANCH  10  13
ATOM     13  C   UNL     1      17.448  -6.794  -5.408  0.00  0.00    +0.000 C 
ATOM     14  H   UNL     1      17.631  -6.645  -6.477  0.00  0.00    +0.000 HD
ATOM     15  H   UNL     1      17.078  -7.813  -5.265  0.00  0.00    +0.000 HD
ATOM     16  H   UNL     1      16.663  -6.099  -5.092  0.00  0.00    +0.000 HD
ENDBRANCH  10  13
ENDBRANCH   7  10
ENDBRANCH   4   7
ENDBRANCH   1   4
BRANCH   1  17
ATOM     17  C   UNL     1      15.589  -4.801  -1.285  0.00  0.00    +0.000 C 
ATOM     18  H   UNL     1      15.482  -4.413  -0.265  0.00  0.00    +0.000 HD
ATOM     19  H   UNL     1      14.796  -4.347  -1.890  0.00  0.00    +0.000 HD
BRANCH  17  20
ATOM     20  C   UNL     1      15.415  -6.323  -1.269  0.00  0.00    +0.000 C 
ATOM     21  H   UNL     1      14.425  -6.583  -1.664  0.00  0.00    +0.000 HD
ATOM     22  H   UNL     1      16.149  -6.783  -1.944  0.00  0.00    +0.000 HD
BRANCH  20  23
ATOM     23  C   UNL     1      15.572  -6.914   0.129  0.00  0.00    +0.000 C 
ATOM     24  H   UNL     1      14.763  -7.623   0.335  0.00  0.00    +0.000 HD
ATOM     25  H   UNL     1      16.522  -7.455   0.203  0.00  0.00    +0.000 HD
BRANCH  23  27
ATOM     26  O   UNL     1      16.499  -5.639   1.981  0.00  0.00    +0.000 OA
ATOM     27  C   UNL     1      15.556  -5.884   1.235  0.00  0.00    +0.000 C 
ATOM     28  H   UNL     1      14.609  -5.326   1.335  0.00  0.00    +0.000 HD
ENDBRANCH  23  27
ENDBRANCH  20  23
ENDBRANCH  17  20
ENDBRANCH   1  17
TORSDOF 8
ENDMDL
MODEL 2
REMARK VINA RESULT:    -4.242     24.681     26.219
REMARK INTER + INTRA:          -6.392
REMARK INTER:                  -6.132
REMARK INTRA:                  -0.260
REMARK UNBOUND:                -0.290
REMARK  Name = 31289
REMARK  8 active torsions:
REMARK  status: ('A' for Active; 'I' for Inactive)
REMARK    1  A    between atoms: C_2  and  C_3
REMARK    2  A    between atoms: C_2  and  C_4
REMARK    3  A    between atoms: C_3  and  C_5
REMARK    4  A    between atoms: C_4  and  C_6
REMARK    5  A    between atoms: C_5  and  C_7
REMARK    6  A    between atoms: C_6  and  C_8
REMARK    7  A    between atoms: C_7  and  C_9
REMARK    8  A    between atoms: C_8  and  C_10
REMARK                            x       y       z     vdW  Elec       q    Type
REMARK                         _______ _______ _______ _____ _____    ______ ____
ROOT
ATOM      1  C   UNL     1      -7.428 -13.831   3.288  0.00  0.00    +0.000 C 
ATOM      2  H   UNL     1      -7.296 -14.886   3.557  0.00  0.00    +0.000 HD
ATOM      3  H   UNL     1      -8.457 -13.717   2.925  0.00  0.00    +0.000 HD
ENDROOT
BRANCH   1   4
ATOM      4  C   UNL     1      -7.226 -12.958   4.528  0.00  0.00    +0.000 C 
ATOM      5  H   UNL     1      -6.240 -13.166   4.960  0.00  0.00    +0.000 HD
ATOM      6  H   UNL     1      -7.224 -11.902   4.228  0.00  0.00    +0.000 HD
BRANCH   4   7
ATOM      7  C   UNL     1      -8.298 -13.166   5.601  0.00  0.00    +0.000 C 
ATOM      8  H   UNL     1      -8.585 -12.192   6.016  0.00  0.00    +0.000 HD
ATOM      9  H   UNL     1      -9.194 -13.586   5.128  0.00  0.00    +0.000 HD
BRANCH   7  10
ATOM     10  C   UNL     1      -7.847 -14.084   6.739  0.00  0.00    +0.000 C 
ATOM     11  H   UNL     1      -6.755 -14.165   6.740  0.00  0.00    +0.000 HD
ATOM     12  H   UNL     1      -8.144 -13.653   7.703  0.00  0.00    +0.000 HD
BRANCH  10  13
ATOM     13  C   UNL     1      -8.450 -15.474   6.600  0.00  0.00    +0.000 C 
ATOM     14  H   UNL     1      -8.016 -16.164   7.330  0.00  0.00    +0.000 HD
ATOM     15  H   UNL     1      -9.530 -15.437   6.768  0.00  0.00    +0.000 HD
ATOM     16  H   UNL     1      -8.277 -15.878   5.597  0.00  0.00    +0.000 HD
ENDBRANCH  10  13
ENDBRANCH   7  10
ENDBRANCH   4   7
ENDBRANCH   1   4
BRANCH   1  17
ATOM     17  C   UNL     1      -6.446 -13.453   2.177  0.00  0.00    +0.000 C 
ATOM     18  H   UNL     1      -6.003 -12.473   2.390  0.00  0.00    +0.000 HD
ATOM     19  H   UNL     1      -5.626 -14.180   2.148  0.00  0.00    +0.000 HD
BRANCH  17  20
ATOM     20  C   UNL     1      -7.141 -13.410   0.812  0.00  0.00    +0.000 C 
ATOM     21  H   UNL     1      -8.188 -13.110   0.943  0.00  0.00    +0.000 HD
ATOM     22  H   UNL     1      -6.674 -12.638   0.187  0.00  0.00    +0.000 HD
BRANCH  20  23
ATOM     23  C   UNL     1      -7.088 -14.752   0.087  0.00  0.00    +0.000 C 
ATOM     24  H   UNL     1      -7.927 -15.384   0.396  0.00  0.00    +0.000 HD
ATOM     25  H   UNL     1      -7.163 -14.596  -0.995  0.00  0.00    +0.000 HD
BRANCH  23  27
ATOM     26  O   UNL     1      -4.852 -15.567  -0.413  0.00  0.00    +0.000 OA
ATOM     27  C   UNL     1      -5.820 -15.535   0.340  0.00  0.00    +0.000 C 
ATOM     28  H   UNL     1      -5.804 -16.096   1.291  0.00  0.00    +0.000 HD
ENDBRANCH  23  27
ENDBRANCH  20  23
ENDBRANCH  17  20
ENDBRANCH   1  17
TORSDOF 8
ENDMDL
MODEL 3
REMARK VINA RESULT:    -4.207     25.574     27.494
REMARK INTER + INTRA:          -6.342
REMARK INTER:                  -5.965
REMARK INTRA:                  -0.377
REMARK UNBOUND:                -0.290
REMARK  Name = 31289
REMARK  8 active torsions:
REMARK  status: ('A' for Active; 'I' for Inactive)
REMARK    1  A    between atoms: C_2  and  C_3
REMARK    2  A    between atoms: C_2  and  C_4
REMARK    3  A    between atoms: C_3  and  C_5
REMARK    4  A    between atoms: C_4  and  C_6
REMARK    5  A    between atoms: C_5  and  C_7
REMARK    6  A    between atoms: C_6  and  C_8
REMARK    7  A    between atoms: C_7  and  C_9
REMARK    8  A    between atoms: C_8  and  C_10
REMARK                            x       y       z     vdW  Elec       q    Type
REMARK                         _______ _______ _______ _____ _____    ______ ____
ROOT
ATOM      1  C   UNL     1      -7.776 -13.409   6.548  0.00  0.00    +0.000 C 
ATOM      2  H   UNL     1      -8.389 -12.862   7.274  0.00  0.00    +0.000 HD
ATOM      3  H   UNL     1      -6.737 -13.088   6.696  0.00  0.00    +0.000 HD
ENDROOT
BRANCH   1   4
ATOM      4  C   UNL     1      -7.887 -14.912   6.812  0.00  0.00    +0.000 C 
ATOM      5  H   UNL     1      -6.940 -15.397   6.545  0.00  0.00    +0.000 HD
ATOM      6  H   UNL     1      -8.036 -15.079   7.886  0.00  0.00    +0.000 HD
BRANCH   4   7
ATOM      7  C   UNL     1      -9.028 -15.583   6.042  0.00  0.00    +0.000 C 
ATOM      8  H   UNL     1      -9.964 -15.051   6.251  0.00  0.00    +0.000 HD
ATOM      9  H   UNL     1      -8.837 -15.479   4.967  0.00  0.00    +0.000 HD
BRANCH   7  10
ATOM     10  C   UNL     1      -9.203 -17.063   6.385  0.00  0.00    +0.000 C 
ATOM     11  H   UNL     1     -10.264 -17.331   6.341  0.00  0.00    +0.000 HD
ATOM     12  H   UNL     1      -8.680 -17.680   5.644  0.00  0.00    +0.000 HD
BRANCH  10  13
ATOM     13  C   UNL     1      -8.667 -17.377   7.773  0.00  0.00    +0.000 C 
ATOM     14  H   UNL     1      -9.469 -17.357   8.518  0.00  0.00    +0.000 HD
ATOM     15  H   UNL     1      -8.214 -18.373   7.788  0.00  0.00    +0.000 HD
ATOM     16  H   UNL     1      -7.902 -16.652   8.071  0.00  0.00    +0.000 HD
ENDBRANCH  10  13
ENDBRANCH   7  10
ENDBRANCH   4   7
ENDBRANCH   1   4
BRANCH   1  17
ATOM     17  C   UNL     1      -8.223 -13.061   5.126  0.00  0.00    +0.000 C 
ATOM     18  H   UNL     1      -9.036 -13.730   4.819  0.00  0.00    +0.000 HD
ATOM     19  H   UNL     1      -8.619 -12.039   5.105  0.00  0.00    +0.000 HD
BRANCH  17  20
ATOM     20  C   UNL     1      -7.063 -13.183   4.133  0.00  0.00    +0.000 C 
ATOM     21  H   UNL     1      -6.834 -12.196   3.713  0.00  0.00    +0.000 HD
ATOM     22  H   UNL     1      -6.161 -13.512   4.662  0.00  0.00    +0.000 HD
BRANCH  20  23
ATOM     23  C   UNL     1      -7.369 -14.155   2.997  0.00  0.00    +0.000 C 
ATOM     24  H   UNL     1      -6.682 -15.008   3.031  0.00  0.00    +0.000 HD
ATOM     25  H   UNL     1      -8.390 -14.541   3.098  0.00  0.00    +0.000 HD
BRANCH  23  27
ATOM     26  O   UNL     1      -7.195 -14.178   0.572  0.00  0.00    +0.000 OA
ATOM     27  C   UNL     1      -7.257 -13.544   1.619  0.00  0.00    +0.000 C 
ATOM     28  H   UNL     1      -7.245 -12.440   1.602  0.00  0.00    +0.000 HD
ENDBRANCH  23  27
ENDBRANCH  20  23
ENDBRANCH  17  20
ENDBRANCH   1  17
TORSDOF 8
ENDMDL
MODEL 4
REMARK VINA RESULT:    -4.150      1.490      1.974
REMARK INTER + INTRA:          -6.259
REMARK INTER:                  -5.813
REMARK INTRA:                  -0.445
REMARK UNBOUND:                -0.290
REMARK  Name = 31289
REMARK  8 active torsions:
REMARK  status: ('A' for Active; 'I' for Inactive)
REMARK    1  A    between atoms: C_2  and  C_3
REMARK    2  A    between atoms: C_2  and  C_4
REMARK    3  A    between atoms: C_3  and  C_5
REMARK    4  A    between atoms: C_4  and  C_6
REMARK    5  A    between atoms: C_5  and  C_7
REMARK    6  A    between atoms: C_6  and  C_8
REMARK    7  A    between atoms: C_7  and  C_9
REMARK    8  A    between atoms: C_8  and  C_10
REMARK                            x       y       z     vdW  Elec       q    Type
REMARK                         _______ _______ _______ _____ _____    ______ ____
ROOT
ATOM      1  C   UNL     1      17.106  -5.098  -3.063  0.00  0.00    +0.000 C 
ATOM      2  H   UNL     1      17.828  -5.410  -2.299  0.00  0.00    +0.000 HD
ATOM      3  H   UNL     1      17.479  -4.162  -3.498  0.00  0.00    +0.000 HD
ENDROOT
BRANCH   1   4
ATOM      4  C   UNL     1      17.020  -6.167  -4.154  0.00  0.00    +0.000 C 
ATOM      5  H   UNL     1      16.409  -7.004  -3.792  0.00  0.00    +0.000 HD
ATOM      6  H   UNL     1      16.501  -5.751  -5.027  0.00  0.00    +0.000 HD
BRANCH   4   7
ATOM      7  C   UNL     1      18.386  -6.698  -4.596  0.00  0.00    +0.000 C 
ATOM      8  H   UNL     1      18.358  -7.795  -4.612  0.00  0.00    +0.000 HD
ATOM      9  H   UNL     1      18.576  -6.371  -5.626  0.00  0.00    +0.000 HD
BRANCH   7  10
ATOM     10  C   UNL     1      19.536  -6.238  -3.698  0.00  0.00    +0.000 C 
ATOM     11  H   UNL     1      19.145  -5.622  -2.881  0.00  0.00    +0.000 HD
ATOM     12  H   UNL     1      20.025  -7.109  -3.245  0.00  0.00    +0.000 HD
BRANCH  10  13
ATOM     13  C   UNL     1      20.562  -5.433  -4.482  0.00  0.00    +0.000 C 
ATOM     14  H   UNL     1      21.022  -4.665  -3.852  0.00  0.00    +0.000 HD
ATOM     15  H   UNL     1      21.355  -6.089  -4.852  0.00  0.00    +0.000 HD
ATOM     16  H   UNL     1      20.099  -4.940  -5.343  0.00  0.00    +0.000 HD
ENDBRANCH  10  13
ENDBRANCH   7  10
ENDBRANCH   4   7
ENDBRANCH   1   4
BRANCH   1  17
ATOM     17  C   UNL     1      15.740  -4.855  -2.416  0.00  0.00    +0.000 C 
ATOM     18  H   UNL     1      15.429  -3.817  -2.585  0.00  0.00    +0.000 HD
ATOM     19  H   UNL     1      14.990  -5.500  -2.887  0.00  0.00    +0.000 HD
BRANCH  17  20
ATOM     20  C   UNL     1      15.783  -5.132  -0.909  0.00  0.00    +0.000 C 
ATOM     21  H   UNL     1      16.762  -4.841  -0.510  0.00  0.00    +0.000 HD
ATOM     22  H   UNL     1      15.041  -4.505  -0.400  0.00  0.00    +0.000 HD
BRANCH  20  23
ATOM     23  C   UNL     1      15.520  -6.599  -0.579  0.00  0.00    +0.000 C 
ATOM     24  H   UNL     1      14.697  -6.685   0.139  0.00  0.00    +0.000 HD
ATOM     25  H   UNL     1      15.234  -7.141  -1.487  0.00  0.00    +0.000 HD
BRANCH  23  27
ATOM     26  O   UNL     1      17.863  -7.221  -0.392  0.00  0.00    +0.000 OA
ATOM     27  C   UNL     1      16.711  -7.317   0.014  0.00  0.00    +0.000 C 
ATOM     28  H   UNL     1      16.479  -7.955   0.884  0.00  0.00    +0.000 HD
ENDBRANCH  23  27
ENDBRANCH  20  23
ENDBRANCH  17  20
ENDBRANCH   1  17
TORSDOF 8
ENDMDL
MODEL 5
REMARK VINA RESULT:    -4.100     33.203     35.326
REMARK INTER + INTRA:          -6.186
REMARK INTER:                  -5.819
REMARK INTRA:                  -0.368
REMARK UNBOUND:                -0.290
REMARK  Name = 31289
REMARK  8 active torsions:
REMARK  status: ('A' for Active; 'I' for Inactive)
REMARK    1  A    between atoms: C_2  and  C_3
REMARK    2  A    between atoms: C_2  and  C_4
REMARK    3  A    between atoms: C_3  and  C_5
REMARK    4  A    between atoms: C_4  and  C_6
REMARK    5  A    between atoms: C_5  and  C_7
REMARK    6  A    between atoms: C_6  and  C_8
REMARK    7  A    between atoms: C_7  and  C_9
REMARK    8  A    between atoms: C_8  and  C_10
REMARK                            x       y       z     vdW  Elec       q    Type
REMARK                         _______ _______ _______ _____ _____    ______ ____
ROOT
ATOM      1  C   UNL     1      -2.931   5.158  24.361  0.00  0.00    +0.000 C 
ATOM      2  H   UNL     1      -2.204   4.558  23.801  0.00  0.00    +0.000 HD
ATOM      3  H   UNL     1      -3.457   5.790  23.634  0.00  0.00    +0.000 HD
ENDROOT
BRANCH   1   4
ATOM      4  C   UNL     1      -3.935   4.234  25.051  0.00  0.00    +0.000 C 
ATOM      5  H   UNL     1      -3.875   3.234  24.604  0.00  0.00    +0.000 HD
ATOM      6  H   UNL     1      -3.658   4.125  26.108  0.00  0.00    +0.000 HD
BRANCH   4   7
ATOM      7  C   UNL     1      -5.381   4.733  24.968  0.00  0.00    +0.000 C 
ATOM      8  H   UNL     1      -5.395   5.711  24.471  0.00  0.00    +0.000 HD
ATOM      9  H   UNL     1      -5.955   4.047  24.333  0.00  0.00    +0.000 HD
BRANCH   7  10
ATOM     10  C   UNL     1      -6.062   4.851  26.332  0.00  0.00    +0.000 C 
ATOM     11  H   UNL     1      -6.639   5.782  26.379  0.00  0.00    +0.000 HD
ATOM     12  H   UNL     1      -6.769   4.023  26.466  0.00  0.00    +0.000 HD
BRANCH  10  13
ATOM     13  C   UNL     1      -5.045   4.836  27.462  0.00  0.00    +0.000 C 
ATOM     14  H   UNL     1      -4.092   4.415  27.126  0.00  0.00    +0.000 HD
ATOM     15  H   UNL     1      -4.859   5.853  27.818  0.00  0.00    +0.000 HD
ATOM     16  H   UNL     1      -5.406   4.241  28.307  0.00  0.00    +0.000 HD
ENDBRANCH  10  13
ENDBRANCH   7  10
ENDBRANCH   4   7
ENDBRANCH   1   4
BRANCH   1  17
ATOM     17  C   UNL     1      -2.201   6.041  25.376  0.00  0.00    +0.000 C 
ATOM     18  H   UNL     1      -2.923   6.672  25.907  0.00  0.00    +0.000 HD
ATOM     19  H   UNL     1      -1.709   5.409  26.126  0.00  0.00    +0.000 HD
BRANCH  17  20
ATOM     20  C   UNL     1      -1.158   6.930  24.690  0.00  0.00    +0.000 C 
ATOM     21  H   UNL     1      -1.374   7.983  24.908  0.00  0.00    +0.000 HD
ATOM     22  H   UNL     1      -0.166   6.722  25.111  0.00  0.00    +0.000 HD
BRANCH  20  23
ATOM     23  C   UNL     1      -1.121   6.726  23.178  0.00  0.00    +0.000 C 
ATOM     24  H   UNL     1      -0.139   6.351  22.869  0.00  0.00    +0.000 HD
ATOM     25  H   UNL     1      -1.873   5.985  22.882  0.00  0.00    +0.000 HD
BRANCH  23  27
ATOM     26  O   UNL     1      -0.565   8.577  21.703  0.00  0.00    +0.000 OA
ATOM     27  C   UNL     1      -1.394   7.981  22.382  0.00  0.00    +0.000 C 
ATOM     28  H   UNL     1      -2.435   8.346  22.436  0.00  0.00    +0.000 HD
ENDBRANCH  23  27
ENDBRANCH  20  23
ENDBRANCH  17  20
ENDBRANCH   1  17
TORSDOF 8
ENDMDL
MODEL 6
REMARK VINA RESULT:    -4.080     24.231     26.181
REMARK INTER + INTRA:          -6.158
REMARK INTER:                  -5.532
REMARK INTRA:                  -0.626
REMARK UNBOUND:                -0.290
REMARK  Name = 31289
REMARK  8 active torsions:
REMARK  status: ('A' for Active; 'I' for Inactive)
REMARK    1  A    between atoms: C_2  and  C_3
REMARK    2  A    between atoms: C_2  and  C_4
REMARK    3  A    between atoms: C_3  and  C_5
REMARK    4  A    between atoms: C_4  and  C_6
REMARK    5  A    between atoms: C_5  and  C_7
REMARK    6  A    between atoms: C_6  and  C_8
REMARK    7  A    between atoms: C_7  and  C_9
REMARK    8  A    between atoms: C_8  and  C_10
REMARK                            x       y       z     vdW  Elec       q    Type
REMARK                         _______ _______ _______ _____ _____    ______ ____
ROOT
ATOM      1  C   UNL     1      -8.373 -15.445   6.602  0.00  0.00    +0.000 C 
ATOM      2  H   UNL     1      -8.382 -15.854   7.619  0.00  0.00    +0.000 HD
ATOM      3  H   UNL     1      -9.409 -15.445   6.243  0.00  0.00    +0.000 HD
ENDROOT
BRANCH   1   4
ATOM      4  C   UNL     1      -7.846 -14.008   6.633  0.00  0.00    +0.000 C 
ATOM      5  H   UNL     1      -8.210 -13.509   7.539  0.00  0.00    +0.000 HD
ATOM      6  H   UNL     1      -6.751 -14.027   6.699  0.00  0.00    +0.000 HD
BRANCH   4   7
ATOM      7  C   UNL     1      -8.254 -13.183   5.408  0.00  0.00    +0.000 C 
ATOM      8  H   UNL     1      -9.073 -13.694   4.887  0.00  0.00    +0.000 HD
ATOM      9  H   UNL     1      -8.649 -12.218   5.749  0.00  0.00    +0.000 HD
BRANCH   7  10
ATOM     10  C   UNL     1      -7.105 -12.944   4.428  0.00  0.00    +0.000 C 
ATOM     11  H   UNL     1      -6.990 -11.869   4.246  0.00  0.00    +0.000 HD
ATOM     12  H   UNL     1      -6.165 -13.303   4.863  0.00  0.00    +0.000 HD
BRANCH  10  13
ATOM     13  C   UNL     1      -7.352 -13.649   3.103  0.00  0.00    +0.000 C 
ATOM     14  H   UNL     1      -6.664 -14.490   2.973  0.00  0.00    +0.000 HD
ATOM     15  H   UNL     1      -8.374 -14.037   3.065  0.00  0.00    +0.000 HD
ATOM     16  H   UNL     1      -7.219 -12.961   2.262  0.00  0.00    +0.000 HD
ENDBRANCH  10  13
ENDBRANCH   7  10
ENDBRANCH   4   7
ENDBRANCH   1   4
BRANCH   1  17
ATOM     17  C   UNL     1      -7.514 -16.331   5.696  0.00  0.00    +0.000 C 
ATOM     18  H   UNL     1      -7.987 -17.313   5.582  0.00  0.00    +0.000 HD
ATOM     19  H   UNL     1      -7.452 -15.884   4.696  0.00  0.00    +0.000 HD
BRANCH  17  20
ATOM     20  C   UNL     1      -6.104 -16.508   6.267  0.00  0.00    +0.000 C 
ATOM     21  H   UNL     1      -6.012 -15.939   7.200  0.00  0.00    +0.000 HD
ATOM     22  H   UNL     1      -5.945 -17.561   6.530  0.00  0.00    +0.000 HD
BRANCH  20  23
ATOM     23  C   UNL     1      -5.019 -16.058   5.292  0.00  0.00    +0.000 C 
ATOM     24  H   UNL     1      -5.103 -16.609   4.350  0.00  0.00    +0.000 HD
ATOM     25  H   UNL     1      -5.135 -14.991   5.071  0.00  0.00    +0.000 HD
BRANCH  23  27
ATOM     26  O   UNL     1      -2.595 -16.151   5.128  0.00  0.00    +0.000 OA
ATOM     27  C   UNL     1      -3.611 -16.258   5.805  0.00  0.00    +0.000 C 
ATOM     28  H   UNL     1      -3.541 -16.506   6.879  0.00  0.00    +0.000 HD
ENDBRANCH  23  27
ENDBRANCH  20  23
ENDBRANCH  17  20
ENDBRANCH   1  17
TORSDOF 8
ENDMDL
MODEL 7
REMARK VINA RESULT:    -4.062     25.316     26.439
REMARK INTER + INTRA:          -6.132
REMARK INTER:                  -5.884
REMARK INTRA:                  -0.248
REMARK UNBOUND:                -0.290
REMARK  Name = 31289
REMARK  8 active torsions:
REMARK  status: ('A' for Active; 'I' for Inactive)
REMARK    1  A    between atoms: C_2  and  C_3
REMARK    2  A    between atoms: C_2  and  C_4
REMARK    3  A    between atoms: C_3  and  C_5
REMARK    4  A    between atoms: C_4  and  C_6
REMARK    5  A    between atoms: C_5  and  C_7
REMARK    6  A    between atoms: C_6  and  C_8
REMARK    7  A    between atoms: C_7  and  C_9
REMARK    8  A    between atoms: C_8  and  C_10
REMARK                            x       y       z     vdW  Elec       q    Type
REMARK                         _______ _______ _______ _____ _____    ______ ____
ROOT
ATOM      1  C   UNL     1      -7.485 -13.678   3.516  0.00  0.00    +0.000 C 
ATOM      2  H   UNL     1      -8.506 -13.447   3.191  0.00  0.00    +0.000 HD
ATOM      3  H   UNL     1      -7.454 -14.748   3.753  0.00  0.00    +0.000 HD
ENDROOT
BRANCH   1   4
ATOM      4  C   UNL     1      -6.506 -13.380   2.378  0.00  0.00    +0.000 C 
ATOM      5  H   UNL     1      -6.131 -12.355   2.481  0.00  0.00    +0.000 HD
ATOM      6  H   UNL     1      -5.638 -14.046   2.465  0.00  0.00    +0.000 HD
BRANCH   4   7
ATOM      7  C   UNL     1      -7.122 -13.550   0.985  0.00  0.00    +0.000 C 
ATOM      8  H   UNL     1      -8.210 -13.655   1.083  0.00  0.00    +0.000 HD
ATOM      9  H   UNL     1      -6.942 -12.635   0.406  0.00  0.00    +0.000 HD
BRANCH   7  10
ATOM     10  C   UNL     1      -6.568 -14.752   0.219  0.00  0.00    +0.000 C 
ATOM     11  H   UNL     1      -6.529 -14.523  -0.852  0.00  0.00    +0.000 HD
ATOM     12  H   UNL     1      -5.542 -14.959   0.546  0.00  0.00    +0.000 HD
BRANCH  10  13
ATOM     13  C   UNL     1      -7.426 -15.989   0.434  0.00  0.00    +0.000 C 
ATOM     14  H   UNL     1      -8.273 -16.005  -0.260  0.00  0.00    +0.000 HD
ATOM     15  H   UNL     1      -6.834 -16.894   0.269  0.00  0.00    +0.000 HD
ATOM     16  H   UNL     1      -7.817 -16.022   1.456  0.00  0.00    +0.000 HD
ENDBRANCH  10  13
ENDBRANCH   7  10
ENDBRANCH   4   7
ENDBRANCH   1   4
BRANCH   1  17
ATOM     17  C   UNL     1      -7.143 -12.864   4.767  0.00  0.00    +0.000 C 
ATOM     18  H   UNL     1      -6.074 -12.960   4.991  0.00  0.00    +0.000 HD
ATOM     19  H   UNL     1      -7.341 -11.802   4.580  0.00  0.00    +0.000 HD
BRANCH  17  20
ATOM     20  C   UNL     1      -7.960 -13.334   5.975  0.00  0.00    +0.000 C 
ATOM     21  H   UNL     1      -7.348 -13.260   6.882  0.00  0.00    +0.000 HD
ATOM     22  H   UNL     1      -8.816 -12.664   6.122  0.00  0.00    +0.000 HD
BRANCH  20  23
ATOM     23  C   UNL     1      -8.458 -14.768   5.819  0.00  0.00    +0.000 C 
ATOM     24  H   UNL     1      -9.542 -14.778   5.659  0.00  0.00    +0.000 HD
ATOM     25  H   UNL     1      -7.984 -15.237   4.949  0.00  0.00    +0.000 HD
BRANCH  23  27
ATOM     26  O   UNL     1      -8.853 -16.612   7.355  0.00  0.00    +0.000 OA
ATOM     27  C   UNL     1      -8.173 -15.650   7.013  0.00  0.00    +0.000 C 
ATOM     28  H   UNL     1      -7.267 -15.378   7.583  0.00  0.00    +0.000 HD
ENDBRANCH  23  27
ENDBRANCH  20  23
ENDBRANCH  17  20
ENDBRANCH   1  17
TORSDOF 8
ENDMDL
MODEL 8
REMARK VINA RESULT:    -4.002     34.153     35.432
REMARK INTER + INTRA:          -6.046
REMARK INTER:                  -5.825
REMARK INTRA:                  -0.221
REMARK UNBOUND:                -0.290
REMARK  Name = 31289
REMARK  8 active torsions:
REMARK  status: ('A' for Active; 'I' for Inactive)
REMARK    1  A    between atoms: C_2  and  C_3
REMARK    2  A    between atoms: C_2  and  C_4
REMARK    3  A    between atoms: C_3  and  C_5
REMARK    4  A    between atoms: C_4  and  C_6
REMARK    5  A    between atoms: C_5  and  C_7
REMARK    6  A    between atoms: C_6  and  C_8
REMARK    7  A    between atoms: C_7  and  C_9
REMARK    8  A    between atoms: C_8  and  C_10
REMARK                            x       y       z     vdW  Elec       q    Type
REMARK                         _______ _______ _______ _____ _____    ______ ____
ROOT
ATOM      1  C   UNL     1      -2.038   5.780  24.103  0.00  0.00    +0.000 C 
ATOM      2  H   UNL     1      -1.155   5.136  24.189  0.00  0.00    +0.000 HD
ATOM      3  H   UNL     1      -2.461   5.619  23.104  0.00  0.00    +0.000 HD
ENDROOT
BRANCH   1   4
ATOM      4  C   UNL     1      -3.068   5.381  25.162  0.00  0.00    +0.000 C 
ATOM      5  H   UNL     1      -2.546   5.032  26.061  0.00  0.00    +0.000 HD
ATOM      6  H   UNL     1      -3.646   6.267  25.455  0.00  0.00    +0.000 HD
BRANCH   4   7
ATOM      7  C   UNL     1      -4.037   4.293  24.690  0.00  0.00    +0.000 C 
ATOM      8  H   UNL     1      -3.864   4.096  23.625  0.00  0.00    +0.000 HD
ATOM      9  H   UNL     1      -3.810   3.362  25.225  0.00  0.00    +0.000 HD
BRANCH   7  10
ATOM     10  C   UNL     1      -5.507   4.654  24.904  0.00  0.00    +0.000 C 
ATOM     11  H   UNL     1      -5.767   5.529  24.296  0.00  0.00    +0.000 HD
ATOM     12  H   UNL     1      -6.145   3.826  24.572  0.00  0.00    +0.000 HD
BRANCH  10  13
ATOM     13  C   UNL     1      -5.795   4.960  26.366  0.00  0.00    +0.000 C 
ATOM     14  H   UNL     1      -4.983   4.605  27.008  0.00  0.00    +0.000 HD
ATOM     15  H   UNL     1      -5.900   6.038  26.514  0.00  0.00    +0.000 HD
ATOM     16  H   UNL     1      -6.725   4.481  26.690  0.00  0.00    +0.000 HD
ENDBRANCH  10  13
ENDBRANCH   7  10
ENDBRANCH   4   7
ENDBRANCH   1   4
BRANCH   1  17
ATOM     17  C   UNL     1      -1.625   7.246  24.256  0.00  0.00    +0.000 C 
ATOM     18  H   UNL     1      -2.172   7.701  25.090  0.00  0.00    +0.000 HD
ATOM     19  H   UNL     1      -0.557   7.304  24.499  0.00  0.00    +0.000 HD
BRANCH  17  20
ATOM     20  C   UNL     1      -1.903   8.038  22.975  0.00  0.00    +0.000 C 
ATOM     21  H   UNL     1      -1.113   7.838  22.241  0.00  0.00    +0.000 HD
ATOM     22  H   UNL     1      -2.841   7.689  22.525  0.00  0.00    +0.000 HD
BRANCH  20  23
ATOM     23  C   UNL     1      -1.989   9.541  23.225  0.00  0.00    +0.000 C 
ATOM     24  H   UNL     1      -1.511  10.091  22.407  0.00  0.00    +0.000 HD
ATOM     25  H   UNL     1      -3.038   9.854  23.273  0.00  0.00    +0.000 HD
BRANCH  23  27
ATOM     26  O   UNL     1      -0.225  10.513  24.588  0.00  0.00    +0.000 OA
ATOM     27  C   UNL     1      -1.330   9.988  24.510  0.00  0.00    +0.000 C 
ATOM     28  H   UNL     1      -1.931   9.819  25.421  0.00  0.00    +0.000 HD
ENDBRANCH  23  27
ENDBRANCH  20  23
ENDBRANCH  17  20
ENDBRANCH   1  17
TORSDOF 8
ENDMDL
MODEL 9
REMARK VINA RESULT:    -3.913     23.342     24.655
REMARK INTER + INTRA:          -5.918
REMARK INTER:                  -5.680
REMARK INTRA:                  -0.238
REMARK UNBOUND:                -0.290
REMARK  Name = 31289
REMARK  8 active torsions:
REMARK  status: ('A' for Active; 'I' for Inactive)
REMARK    1  A    between atoms: C_2  and  C_3
REMARK    2  A    between atoms: C_2  and  C_4
REMARK    3  A    between atoms: C_3  and  C_5
REMARK    4  A    between atoms: C_4  and  C_6
REMARK    5  A    between atoms: C_5  and  C_7
REMARK    6  A    between atoms: C_6  and  C_8
REMARK    7  A    between atoms: C_7  and  C_9
REMARK    8  A    between atoms: C_8  and  C_10
REMARK                            x       y       z     vdW  Elec       q    Type
REMARK                         _______ _______ _______ _____ _____    ______ ____
ROOT
ATOM      1  C   UNL     1       3.685   4.078 -20.283  0.00  0.00    +0.000 C 
ATOM      2  H   UNL     1       3.183   4.456 -19.384  0.00  0.00    +0.000 HD
ATOM      3  H   UNL     1       3.241   4.596 -21.143  0.00  0.00    +0.000 HD
ENDROOT
BRANCH   1   4
ATOM      4  C   UNL     1       5.179   4.401 -20.210  0.00  0.00    +0.000 C 
ATOM      5  H   UNL     1       5.756   3.507 -20.475  0.00  0.00    +0.000 HD
ATOM      6  H   UNL     1       5.419   5.166 -20.959  0.00  0.00    +0.000 HD
BRANCH   4   7
ATOM      7  C   UNL     1       5.628   4.898 -18.832  0.00  0.00    +0.000 C 
ATOM      8  H   UNL     1       6.063   5.900 -18.936  0.00  0.00    +0.000 HD
ATOM      9  H   UNL     1       4.745   5.001 -18.189  0.00  0.00    +0.000 HD
BRANCH   7  10
ATOM     10  C   UNL     1       6.643   3.975 -18.156  0.00  0.00    +0.000 C 
ATOM     11  H   UNL     1       6.373   3.836 -17.103  0.00  0.00    +0.000 HD
ATOM     12  H   UNL     1       6.621   2.988 -18.632  0.00  0.00    +0.000 HD
BRANCH  10  13
ATOM     13  C   UNL     1       8.051   4.545 -18.239  0.00  0.00    +0.000 C 
ATOM     14  H   UNL     1       8.027   5.621 -18.439  0.00  0.00    +0.000 HD
ATOM     15  H   UNL     1       8.580   4.386 -17.296  0.00  0.00    +0.000 HD
ATOM     16  H   UNL     1       8.623   4.059 -19.036  0.00  0.00    +0.000 HD
ENDBRANCH  10  13
ENDBRANCH   7  10
ENDBRANCH   4   7
ENDBRANCH   1   4
BRANCH   1  17
ATOM     17  C   UNL     1       3.449   2.571 -20.412  0.00  0.00    +0.000 C 
ATOM     18  H   UNL     1       3.627   2.255 -21.447  0.00  0.00    +0.000 HD
ATOM     19  H   UNL     1       4.165   2.032 -19.781  0.00  0.00    +0.000 HD
BRANCH  17  20
ATOM     20  C   UNL     1       2.021   2.195 -20.005  0.00  0.00    +0.000 C 
ATOM     21  H   UNL     1       1.646   1.406 -20.668  0.00  0.00    +0.000 HD
ATOM     22  H   UNL     1       2.027   1.773 -18.993  0.00  0.00    +0.000 HD
BRANCH  20  23
ATOM     23  C   UNL     1       1.069   3.387 -20.053  0.00  0.00    +0.000 C 
ATOM     24  H   UNL     1       1.105   3.940 -19.108  0.00  0.00    +0.000 HD
ATOM     25  H   UNL     1       1.366   4.072 -20.856  0.00  0.00    +0.000 HD
BRANCH  23  27
ATOM     26  O   UNL     1      -0.998   3.247 -21.327  0.00  0.00    +0.000 OA
ATOM     27  C   UNL     1      -0.375   3.010 -20.298  0.00  0.00    +0.000 C 
ATOM     28  H   UNL     1      -0.860   2.472 -19.465  0.00  0.00    +0.000 HD
ENDBRANCH  23  27
ENDBRANCH  20  23
ENDBRANCH  17  20
ENDBRANCH   1  17
TORSDOF 8
ENDMDL
MODEL 10
REMARK VINA RESULT:    -3.840     23.088     24.337
REMARK INTER + INTRA:          -5.813
REMARK INTER:                  -5.524
REMARK INTRA:                  -0.290
REMARK UNBOUND:                -0.290
REMARK  Name = 31289
REMARK  8 active torsions:
REMARK  status: ('A' for Active; 'I' for Inactive)
REMARK    1  A    between atoms: C_2  and  C_3
REMARK    2  A    between atoms: C_2  and  C_4
REMARK    3  A    between atoms: C_3  and  C_5
REMARK    4  A    between atoms: C_4  and  C_6
REMARK    5  A    between atoms: C_5  and  C_7
REMARK    6  A    between atoms: C_6  and  C_8
REMARK    7  A    between atoms: C_7  and  C_9
REMARK    8  A    between atoms: C_8  and  C_10
REMARK                            x       y       z     vdW  Elec       q    Type
REMARK                         _______ _______ _______ _____ _____    ______ ____
ROOT
ATOM      1  C   UNL     1       4.778   6.226 -18.719  0.00  0.00    +0.000 C 
ATOM      2  H   UNL     1       4.126   6.694 -17.971  0.00  0.00    +0.000 HD
ATOM      3  H   UNL     1       5.284   7.035 -19.259  0.00  0.00    +0.000 HD
ENDROOT
BRANCH   1   4
ATOM      4  C   UNL     1       5.820   5.354 -18.015  0.00  0.00    +0.000 C 
ATOM      5  H   UNL     1       6.762   5.911 -17.934  0.00  0.00    +0.000 HD
ATOM      6  H   UNL     1       5.485   5.148 -16.991  0.00  0.00    +0.000 HD
BRANCH   4   7
ATOM      7  C   UNL     1       6.083   4.025 -18.728  0.00  0.00    +0.000 C 
ATOM      8  H   UNL     1       5.328   3.293 -18.415  0.00  0.00    +0.000 HD
ATOM      9  H   UNL     1       5.954   4.171 -19.808  0.00  0.00    +0.000 HD
BRANCH   7  10
ATOM     10  C   UNL     1       7.477   3.457 -18.457  0.00  0.00    +0.000 C 
ATOM     11  H   UNL     1       7.472   2.893 -17.517  0.00  0.00    +0.000 HD
ATOM     12  H   UNL     1       7.754   2.757 -19.255  0.00  0.00    +0.000 HD
BRANCH  10  13
ATOM     13  C   UNL     1       8.518   4.562 -18.371  0.00  0.00    +0.000 C 
ATOM     14  H   UNL     1       8.374   5.300 -19.166  0.00  0.00    +0.000 HD
ATOM     15  H   UNL     1       8.443   5.079 -17.410  0.00  0.00    +0.000 HD
ATOM     16  H   UNL     1       9.531   4.154 -18.458  0.00  0.00    +0.000 HD
ENDBRANCH  10  13
ENDBRANCH   7  10
ENDBRANCH   4   7
ENDBRANCH   1   4
BRANCH   1  17
ATOM     17  C   UNL     1       3.935   5.403 -19.696  0.00  0.00    +0.000 C 
ATOM     18  H   UNL     1       4.380   5.447 -20.697  0.00  0.00    +0.000 HD
ATOM     19  H   UNL     1       3.936   4.351 -19.387  0.00  0.00    +0.000 HD
BRANCH  17  20
ATOM     20  C   UNL     1       2.494   5.919 -19.758  0.00  0.00    +0.000 C 
ATOM     21  H   UNL     1       1.988   5.710 -18.807  0.00  0.00    +0.000 HD
ATOM     22  H   UNL     1       2.499   7.010 -19.874  0.00  0.00    +0.000 HD
BRANCH  20  23
ATOM     23  C   UNL     1       1.699   5.291 -20.900  0.00  0.00    +0.000 C 
ATOM     24  H   UNL     1       1.332   6.068 -21.579  0.00  0.00    +0.000 HD
ATOM     25  H   UNL     1       2.341   4.615 -21.476  0.00  0.00    +0.000 HD
BRANCH  23  27
ATOM     26  O   UNL     1       0.445   3.834 -19.411  0.00  0.00    +0.000 OA
ATOM     27  C   UNL     1       0.500   4.490 -20.445  0.00  0.00    +0.000 C 
ATOM     28  H   UNL     1      -0.372   4.539 -21.120  0.00  0.00    +0.000 HD
ENDBRANCH  23  27
ENDBRANCH  20  23
ENDBRANCH  17  20
ENDBRANCH   1  17
TORSDOF 8
ENDMDL
