MODEL 1
REMARK VINA RESULT:    -3.383      0.000      0.000
REMARK INTER + INTRA:          -4.148
REMARK INTER:                  -4.096
REMARK INTRA:                  -0.051
REMARK UNBOUND:                -0.072
REMARK  Name = 8063
REMARK  4 active torsions:
REMARK  status: ('A' for Active; 'I' for Inactive)
REMARK    1  A    between atoms: C_2  and  C_3
REMARK    2  A    between atoms: C_2  and  C_4
REMARK    3  A    between atoms: C_3  and  C_5
REMARK    4  A    between atoms: C_4  and  C_6
REMARK                            x       y       z     vdW  Elec       q    Type
REMARK                         _______ _______ _______ _____ _____    ______ ____
ROOT
ATOM      1  C   UNL     1      16.640  -6.078  -3.159  0.00  0.00    +0.000 C 
ATOM      2  H   UNL     1      16.741  -6.812  -2.349  0.00  0.00    +0.000 HD
ATOM      3  H   UNL     1      15.744  -6.360  -3.728  0.00  0.00    +0.000 HD
ENDROOT
BRANCH   1   4
ATOM      4  C   UNL     1      17.865  -6.136  -4.069  0.00  0.00    +0.000 C 
ATOM      5  H   UNL     1      18.225  -5.122  -4.276  0.00  0.00    +0.000 HD
ATOM      6  H   UNL     1      18.677  -6.672  -3.564  0.00  0.00    +0.000 HD
BRANCH   4   7
ATOM      7  C   UNL     1      17.549  -6.829  -5.385  0.00  0.00    +0.000 C 
ATOM      8  H   UNL     1      16.965  -7.737  -5.206  0.00  0.00    +0.000 HD
ATOM      9  H   UNL     1      18.467  -7.113  -5.910  0.00  0.00    +0.000 HD
ATOM     10  H   UNL     1      16.966  -6.175  -6.043  0.00  0.00    +0.000 HD
ENDBRANCH   4   7
ENDBRANCH   1   4
BRANCH   1  11
ATOM     11  C   UNL     1      16.452  -4.684  -2.569  0.00  0.00    +0.000 C 
ATOM     12  H   UNL     1      15.960  -4.742  -1.593  0.00  0.00    +0.000 HD
ATOM     13  H   UNL     1      15.830  -4.071  -3.229  0.00  0.00    +0.000 HD
BRANCH  11  15
ATOM     14  O   UNL     1      18.090  -3.376  -1.342  0.00  0.00    +0.000 OA
ATOM     15  C   UNL     1      17.760  -3.955  -2.372  0.00  0.00    +0.000 C 
ATOM     16  H   UNL     1      18.433  -3.963  -3.247  0.00  0.00    +0.000 HD
ENDBRANCH  11  15
ENDBRANCH   1  11
TORSDOF 4
ENDMDL
MODEL 2
REMARK VINA RESULT:    -3.312     36.325     37.515
REMARK INTER + INTRA:          -4.062
REMARK INTER:                  -4.028
REMARK INTRA:                  -0.034
REMARK UNBOUND:                -0.072
REMARK  Name = 8063
REMARK  4 active torsions:
REMARK  status: ('A' for Active; 'I' for Inactive)
REMARK    1  A    between atoms: C_2  and  C_3
REMARK    2  A    between atoms: C_2  and  C_4
REMARK    3  A    between atoms: C_3  and  C_5
REMARK    4  A    between atoms: C_4  and  C_6
REMARK                            x       y       z     vdW  Elec       q    Type
REMARK                         _______ _______ _______ _____ _____    ______ ____
ROOT
ATOM      1  C   UNL     1      -4.117   4.322  24.639  0.00  0.00    +0.000 C 
ATOM      2  H   UNL     1      -3.919   3.332  25.070  0.00  0.00    +0.000 HD
ATOM      3  H   UNL     1      -3.958   4.230  23.556  0.00  0.00    +0.000 HD
ENDROOT
BRANCH   1   4
ATOM      4  C   UNL     1      -3.139   5.344  25.215  0.00  0.00    +0.000 C 
ATOM      5  H   UNL     1      -3.689   6.215  25.592  0.00  0.00    +0.000 HD
ATOM      6  H   UNL     1      -2.603   4.906  26.066  0.00  0.00    +0.000 HD
BRANCH   4   7
ATOM      7  C   UNL     1      -2.134   5.804  24.172  0.00  0.00    +0.000 C 
ATOM      8  H   UNL     1      -1.629   6.716  24.508  0.00  0.00    +0.000 HD
ATOM      9  H   UNL     1      -2.629   6.021  23.219  0.00  0.00    +0.000 HD
ATOM     10  H   UNL     1      -1.371   5.039  23.997  0.00  0.00    +0.000 HD
ENDBRANCH   4   7
ENDBRANCH   1   4
BRANCH   1  11
ATOM     11  C   UNL     1      -5.563   4.722  24.910  0.00  0.00    +0.000 C 
ATOM     12  H   UNL     1      -6.254   4.009  24.449  0.00  0.00    +0.000 HD
ATOM     13  H   UNL     1      -5.769   5.714  24.493  0.00  0.00    +0.000 HD
BRANCH  11  15
ATOM     14  O   UNL     1      -6.680   5.554  26.899  0.00  0.00    +0.000 OA
ATOM     15  C   UNL     1      -5.886   4.774  26.384  0.00  0.00    +0.000 C 
ATOM     16  H   UNL     1      -5.339   4.043  27.005  0.00  0.00    +0.000 HD
ENDBRANCH  11  15
ENDBRANCH   1  11
TORSDOF 4
ENDMDL
MODEL 3
REMARK VINA RESULT:    -3.166     37.321     38.493
REMARK INTER + INTRA:          -3.885
REMARK INTER:                  -3.843
REMARK INTRA:                  -0.043
REMARK UNBOUND:                -0.072
REMARK  Name = 8063
REMARK  4 active torsions:
REMARK  status: ('A' for Active; 'I' for Inactive)
REMARK    1  A    between atoms: C_2  and  C_3
REMARK    2  A    between atoms: C_2  and  C_4
REMARK    3  A    between atoms: C_3  and  C_5
REMARK    4  A    between atoms: C_4  and  C_6
REMARK                            x       y       z     vdW  Elec       q    Type
REMARK                         _______ _______ _______ _____ _____    ______ ____
ROOT
ATOM      1  C   UNL     1      -5.860   4.585  26.145  0.00  0.00    +0.000 C 
ATOM      2  H   UNL     1      -6.546   3.733  26.237  0.00  0.00    +0.000 HD
ATOM      3  H   UNL     1      -6.457   5.489  26.323  0.00  0.00    +0.000 HD
ENDROOT
BRANCH   1   4
ATOM      4  C   UNL     1      -5.273   4.628  24.736  0.00  0.00    +0.000 C 
ATOM      5  H   UNL     1      -5.642   3.778  24.151  0.00  0.00    +0.000 HD
ATOM      6  H   UNL     1      -5.602   5.541  24.225  0.00  0.00    +0.000 HD
BRANCH   4   7
ATOM      7  C   UNL     1      -3.753   4.589  24.764  0.00  0.00    +0.000 C 
ATOM      8  H   UNL     1      -3.392   4.629  25.796  0.00  0.00    +0.000 HD
ATOM      9  H   UNL     1      -3.328   5.440  24.221  0.00  0.00    +0.000 HD
ATOM     10  H   UNL     1      -3.376   3.668  24.308  0.00  0.00    +0.000 HD
ENDBRANCH   4   7
ENDBRANCH   1   4
BRANCH   1  11
ATOM     11  C   UNL     1      -4.764   4.480  27.201  0.00  0.00    +0.000 C 
ATOM     12  H   UNL     1      -4.762   5.367  27.843  0.00  0.00    +0.000 HD
ATOM     13  H   UNL     1      -3.782   4.402  26.724  0.00  0.00    +0.000 HD
BRANCH  11  15
ATOM     14  O   UNL     1      -5.958   2.996  28.706  0.00  0.00    +0.000 OA
ATOM     15  C   UNL     1      -4.932   3.276  28.095  0.00  0.00    +0.000 C 
ATOM     16  H   UNL     1      -4.039   2.633  28.182  0.00  0.00    +0.000 HD
ENDBRANCH  11  15
ENDBRANCH   1  11
TORSDOF 4
ENDMDL
MODEL 4
REMARK VINA RESULT:    -3.157     24.591     25.368
REMARK INTER + INTRA:          -3.875
REMARK INTER:                  -3.866
REMARK INTRA:                  -0.009
REMARK UNBOUND:                -0.072
REMARK  Name = 8063
REMARK  4 active torsions:
REMARK  status: ('A' for Active; 'I' for Inactive)
REMARK    1  A    between atoms: C_2  and  C_3
REMARK    2  A    between atoms: C_2  and  C_4
REMARK    3  A    between atoms: C_3  and  C_5
REMARK    4  A    between atoms: C_4  and  C_6
REMARK                            x       y       z     vdW  Elec       q    Type
REMARK                         _______ _______ _______ _____ _____    ______ ____
ROOT
ATOM      1  C   UNL     1      12.247  18.192 -11.347  0.00  0.00    +0.000 C 
ATOM      2  H   UNL     1      11.265  17.871 -11.715  0.00  0.00    +0.000 HD
ATOM      3  H   UNL     1      12.699  18.798 -12.144  0.00  0.00    +0.000 HD
ENDROOT
BRANCH   1   4
ATOM      4  C   UNL     1      13.124  16.972 -11.073  0.00  0.00    +0.000 C 
ATOM      5  H   UNL     1      14.174  17.277 -10.996  0.00  0.00    +0.000 HD
ATOM      6  H   UNL     1      12.846  16.523 -10.112  0.00  0.00    +0.000 HD
BRANCH   4   7
ATOM      7  C   UNL     1      12.988  15.930 -12.172  0.00  0.00    +0.000 C 
ATOM      8  H   UNL     1      12.325  15.122 -11.848  0.00  0.00    +0.000 HD
ATOM      9  H   UNL     1      13.961  15.492 -12.420  0.00  0.00    +0.000 HD
ATOM     10  H   UNL     1      12.568  16.371 -13.081  0.00  0.00    +0.000 HD
ENDBRANCH   4   7
ENDBRANCH   1   4
BRANCH   1  11
ATOM     11  C   UNL     1      12.073  19.044 -10.094  0.00  0.00    +0.000 C 
ATOM     12  H   UNL     1      12.963  19.658  -9.919  0.00  0.00    +0.000 HD
ATOM     13  H   UNL     1      11.922  18.406  -9.217  0.00  0.00    +0.000 HD
BRANCH  11  15
ATOM     14  O   UNL     1       9.889  19.909  -9.481  0.00  0.00    +0.000 OA
ATOM     15  C   UNL     1      10.891  19.978 -10.185  0.00  0.00    +0.000 C 
ATOM     16  H   UNL     1      10.974  20.760 -10.960  0.00  0.00    +0.000 HD
ENDBRANCH  11  15
ENDBRANCH   1  11
TORSDOF 4
ENDMDL
MODEL 5
REMARK VINA RESULT:    -3.122      2.423      3.466
REMARK INTER + INTRA:          -3.833
REMARK INTER:                  -3.762
REMARK INTRA:                  -0.071
REMARK UNBOUND:                -0.072
REMARK  Name = 8063
REMARK  4 active torsions:
REMARK  status: ('A' for Active; 'I' for Inactive)
REMARK    1  A    between atoms: C_2  and  C_3
REMARK    2  A    between atoms: C_2  and  C_4
REMARK    3  A    between atoms: C_3  and  C_5
REMARK    4  A    between atoms: C_4  and  C_6
REMARK                            x       y       z     vdW  Elec       q    Type
REMARK                         _______ _______ _______ _____ _____    ______ ____
ROOT
ATOM      1  C   UNL     1      15.737  -4.889  -1.819  0.00  0.00    +0.000 C 
ATOM      2  H   UNL     1      16.087  -4.474  -0.865  0.00  0.00    +0.000 HD
ATOM      3  H   UNL     1      14.834  -4.327  -2.094  0.00  0.00    +0.000 HD
ENDROOT
BRANCH   1   4
ATOM      4  C   UNL     1      15.388  -6.366  -1.646  0.00  0.00    +0.000 C 
ATOM      5  H   UNL     1      14.378  -6.558  -2.028  0.00  0.00    +0.000 HD
ATOM      6  H   UNL     1      16.079  -6.982  -2.233  0.00  0.00    +0.000 HD
BRANCH   4   7
ATOM      7  C   UNL     1      15.455  -6.788  -0.187  0.00  0.00    +0.000 C 
ATOM      8  H   UNL     1      14.854  -6.113   0.431  0.00  0.00    +0.000 HD
ATOM      9  H   UNL     1      16.486  -6.760   0.182  0.00  0.00    +0.000 HD
ATOM     10  H   UNL     1      15.070  -7.804  -0.054  0.00  0.00    +0.000 HD
ENDBRANCH   4   7
ENDBRANCH   1   4
BRANCH   1  11
ATOM     11  C   UNL     1      16.806  -4.692  -2.889  0.00  0.00    +0.000 C 
ATOM     12  H   UNL     1      17.688  -4.200  -2.466  0.00  0.00    +0.000 HD
ATOM     13  H   UNL     1      16.422  -4.066  -3.701  0.00  0.00    +0.000 HD
BRANCH  11  15
ATOM     14  O   UNL     1      17.665  -6.125  -4.652  0.00  0.00    +0.000 OA
ATOM     15  C   UNL     1      17.265  -5.995  -3.499  0.00  0.00    +0.000 C 
ATOM     16  H   UNL     1      17.212  -6.868  -2.826  0.00  0.00    +0.000 HD
ENDBRANCH  11  15
ENDBRANCH   1  11
TORSDOF 4
ENDMDL
MODEL 6
REMARK VINA RESULT:    -3.094     26.303     27.086
REMARK INTER + INTRA:          -3.799
REMARK INTER:                  -3.789
REMARK INTRA:                  -0.010
REMARK UNBOUND:                -0.072
REMARK  Name = 8063
REMARK  4 active torsions:
REMARK  status: ('A' for Active; 'I' for Inactive)
REMARK    1  A    between atoms: C_2  and  C_3
REMARK    2  A    between atoms: C_2  and  C_4
REMARK    3  A    between atoms: C_3  and  C_5
REMARK    4  A    between atoms: C_4  and  C_6
REMARK                            x       y       z     vdW  Elec       q    Type
REMARK                         _______ _______ _______ _____ _____    ______ ____
ROOT
ATOM      1  C   UNL     1      -7.295 -14.067   3.879  0.00  0.00    +0.000 C 
ATOM      2  H   UNL     1      -8.117 -14.700   3.522  0.00  0.00    +0.000 HD
ATOM      3  H   UNL     1      -6.606 -14.726   4.426  0.00  0.00    +0.000 HD
ENDROOT
BRANCH   1   4
ATOM      4  C   UNL     1      -7.836 -12.995   4.822  0.00  0.00    +0.000 C 
ATOM      5  H   UNL     1      -7.228 -12.086   4.742  0.00  0.00    +0.000 HD
ATOM      6  H   UNL     1      -8.859 -12.728   4.533  0.00  0.00    +0.000 HD
BRANCH   4   7
ATOM      7  C   UNL     1      -7.831 -13.470   6.267  0.00  0.00    +0.000 C 
ATOM      8  H   UNL     1      -6.842 -13.852   6.537  0.00  0.00    +0.000 HD
ATOM      9  H   UNL     1      -8.560 -14.273   6.418  0.00  0.00    +0.000 HD
ATOM     10  H   UNL     1      -8.077 -12.650   6.950  0.00  0.00    +0.000 HD
ENDBRANCH   4   7
ENDBRANCH   1   4
BRANCH   1  11
ATOM     11  C   UNL     1      -6.570 -13.446   2.689  0.00  0.00    +0.000 C 
ATOM     12  H   UNL     1      -5.512 -13.728   2.693  0.00  0.00    +0.000 HD
ATOM     13  H   UNL     1      -6.631 -12.353   2.734  0.00  0.00    +0.000 HD
BRANCH  11  15
ATOM     14  O   UNL     1      -7.182 -13.184   0.354  0.00  0.00    +0.000 OA
ATOM     15  C   UNL     1      -7.148 -13.880   1.364  0.00  0.00    +0.000 C 
ATOM     16  H   UNL     1      -7.567 -14.901   1.351  0.00  0.00    +0.000 HD
ENDBRANCH  11  15
ENDBRANCH   1  11
TORSDOF 4
ENDMDL
MODEL 7
REMARK VINA RESULT:    -3.036     26.274     26.790
REMARK INTER + INTRA:          -3.729
REMARK INTER:                  -3.701
REMARK INTRA:                  -0.028
REMARK UNBOUND:                -0.072
REMARK  Name = 8063
REMARK  4 active torsions:
REMARK  status: ('A' for Active; 'I' for Inactive)
REMARK    1  A    between atoms: C_2  and  C_3
REMARK    2  A    between atoms: C_2  and  C_4
REMARK    3  A    between atoms: C_3  and  C_5
REMARK    4  A    between atoms: C_4  and  C_6
REMARK                            x       y       z     vdW  Elec       q    Type
REMARK                         _______ _______ _______ _____ _____    ______ ____
ROOT
ATOM      1  C   UNL     1      -7.152 -14.879   1.952  0.00  0.00    +0.000 C 
ATOM      2  H   UNL     1      -6.226 -15.298   2.364  0.00  0.00    +0.000 HD
ATOM      3  H   UNL     1      -7.958 -15.578   2.215  0.00  0.00    +0.000 HD
ENDROOT
BRANCH   1   4
ATOM      4  C   UNL     1      -7.042 -14.772   0.432  0.00  0.00    +0.000 C 
ATOM      5  H   UNL     1      -6.094 -15.207   0.095  0.00  0.00    +0.000 HD
ATOM      6  H   UNL     1      -7.848 -15.347  -0.040  0.00  0.00    +0.000 HD
BRANCH   4   7
ATOM      7  C   UNL     1      -7.119 -13.327  -0.033  0.00  0.00    +0.000 C 
ATOM      8  H   UNL     1      -8.156 -12.977  -0.015  0.00  0.00    +0.000 HD
ATOM      9  H   UNL     1      -6.742 -13.223  -1.056  0.00  0.00    +0.000 HD
ATOM     10  H   UNL     1      -6.528 -12.674   0.618  0.00  0.00    +0.000 HD
ENDBRANCH   4   7
ENDBRANCH   1   4
BRANCH   1  11
ATOM     11  C   UNL     1      -7.429 -13.519   2.585  0.00  0.00    +0.000 C 
ATOM     12  H   UNL     1      -8.385 -13.117   2.233  0.00  0.00    +0.000 HD
ATOM     13  H   UNL     1      -6.640 -12.808   2.320  0.00  0.00    +0.000 HD
BRANCH  11  15
ATOM     14  O   UNL     1      -7.812 -12.646   4.818  0.00  0.00    +0.000 OA
ATOM     15  C   UNL     1      -7.494 -13.582   4.092  0.00  0.00    +0.000 C 
ATOM     16  H   UNL     1      -7.222 -14.559   4.529  0.00  0.00    +0.000 HD
ENDBRANCH  11  15
ENDBRANCH   1  11
TORSDOF 4
ENDMDL
MODEL 8
REMARK VINA RESULT:    -2.814     32.161     32.795
REMARK INTER + INTRA:          -3.462
REMARK INTER:                  -3.452
REMARK INTRA:                  -0.010
REMARK UNBOUND:                -0.072
REMARK  Name = 8063
REMARK  4 active torsions:
REMARK  status: ('A' for Active; 'I' for Inactive)
REMARK    1  A    between atoms: C_2  and  C_3
REMARK    2  A    between atoms: C_2  and  C_4
REMARK    3  A    between atoms: C_3  and  C_5
REMARK    4  A    between atoms: C_4  and  C_6
REMARK                            x       y       z     vdW  Elec       q    Type
REMARK                         _______ _______ _______ _____ _____    ______ ____
ROOT
ATOM      1  C   UNL     1     -14.866  -6.454  -3.858  0.00  0.00    +0.000 C 
ATOM      2  H   UNL     1     -14.424  -7.149  -3.134  0.00  0.00    +0.000 HD
ATOM      3  H   UNL     1     -15.423  -7.065  -4.581  0.00  0.00    +0.000 HD
ENDROOT
BRANCH   1   4
ATOM      4  C   UNL     1     -13.762  -5.685  -4.581  0.00  0.00    +0.000 C 
ATOM      5  H   UNL     1     -13.643  -6.073  -5.600  0.00  0.00    +0.000 HD
ATOM      6  H   UNL     1     -14.040  -4.628  -4.667  0.00  0.00    +0.000 HD
BRANCH   4   7
ATOM      7  C   UNL     1     -12.434  -5.797  -3.850  0.00  0.00    +0.000 C 
ATOM      8  H   UNL     1     -12.594  -6.144  -2.824  0.00  0.00    +0.000 HD
ATOM      9  H   UNL     1     -11.928  -4.827  -3.806  0.00  0.00    +0.000 HD
ATOM     10  H   UNL     1     -11.769  -6.509  -4.349  0.00  0.00    +0.000 HD
ENDBRANCH   4   7
ENDBRANCH   1   4
BRANCH   1  11
ATOM     11  C   UNL     1     -15.825  -5.507  -3.143  0.00  0.00    +0.000 C 
ATOM     12  H   UNL     1     -16.341  -4.865  -3.864  0.00  0.00    +0.000 HD
ATOM     13  H   UNL     1     -15.278  -4.866  -2.445  0.00  0.00    +0.000 HD
BRANCH  11  15
ATOM     14  O   UNL     1     -17.895  -6.739  -2.835  0.00  0.00    +0.000 OA
ATOM     15  C   UNL     1     -16.883  -6.239  -2.353  0.00  0.00    +0.000 C 
ATOM     16  H   UNL     1     -16.695  -6.299  -1.267  0.00  0.00    +0.000 HD
ENDBRANCH  11  15
ENDBRANCH   1  11
TORSDOF 4
ENDMDL
MODEL 9
REMARK VINA RESULT:    -2.793     26.386     26.916
REMARK INTER + INTRA:          -3.437
REMARK INTER:                  -3.409
REMARK INTRA:                  -0.027
REMARK UNBOUND:                -0.072
REMARK  Name = 8063
REMARK  4 active torsions:
REMARK  status: ('A' for Active; 'I' for Inactive)
REMARK    1  A    between atoms: C_2  and  C_3
REMARK    2  A    between atoms: C_2  and  C_4
REMARK    3  A    between atoms: C_3  and  C_5
REMARK    4  A    between atoms: C_4  and  C_6
REMARK                            x       y       z     vdW  Elec       q    Type
REMARK                         _______ _______ _______ _____ _____    ______ ____
ROOT
ATOM      1  C   UNL     1      -0.725   2.879 -20.607  0.00  0.00    +0.000 C 
ATOM      2  H   UNL     1      -1.199   3.810 -20.942  0.00  0.00    +0.000 HD
ATOM      3  H   UNL     1      -1.493   2.313 -20.064  0.00  0.00    +0.000 HD
ENDROOT
BRANCH   1   4
ATOM      4  C   UNL     1       0.437   3.197 -19.668  0.00  0.00    +0.000 C 
ATOM      5  H   UNL     1       0.128   3.046 -18.628  0.00  0.00    +0.000 HD
ATOM      6  H   UNL     1       1.270   2.511 -19.862  0.00  0.00    +0.000 HD
BRANCH   4   7
ATOM      7  C   UNL     1       0.916   4.630 -19.840  0.00  0.00    +0.000 C 
ATOM      8  H   UNL     1       0.185   5.209 -20.412  0.00  0.00    +0.000 HD
ATOM      9  H   UNL     1       1.871   4.663 -20.376  0.00  0.00    +0.000 HD
ATOM     10  H   UNL     1       1.051   5.118 -18.869  0.00  0.00    +0.000 HD
ENDBRANCH   4   7
ENDBRANCH   1   4
BRANCH   1  11
ATOM     11  C   UNL     1      -0.257   2.075 -21.816  0.00  0.00    +0.000 C 
ATOM     12  H   UNL     1      -0.632   1.047 -21.764  0.00  0.00    +0.000 HD
ATOM     13  H   UNL     1       0.836   2.038 -21.850  0.00  0.00    +0.000 HD
BRANCH  11  15
ATOM     14  O   UNL     1      -0.410   2.249 -24.233  0.00  0.00    +0.000 OA
ATOM     15  C   UNL     1      -0.732   2.663 -23.124  0.00  0.00    +0.000 C 
ATOM     16  H   UNL     1      -1.409   3.529 -23.026  0.00  0.00    +0.000 HD
ENDBRANCH  11  15
ENDBRANCH   1  11
TORSDOF 4
ENDMDL
MODEL 10
REMARK VINA RESULT:    -2.781     20.771     21.172
REMARK INTER + INTRA:          -3.422
REMARK INTER:                  -3.349
REMARK INTRA:                  -0.072
REMARK UNBOUND:                -0.072
REMARK  Name = 8063
REMARK  4 active torsions:
REMARK  status: ('A' for Active; 'I' for Inactive)
REMARK    1  A    between atoms: C_2  and  C_3
REMARK    2  A    between atoms: C_2  and  C_4
REMARK    3  A    between atoms: C_3  and  C_5
REMARK    4  A    between atoms: C_4  and  C_6
REMARK                            x       y       z     vdW  Elec       q    Type
REMARK                         _______ _______ _______ _____ _____    ______ ____
ROOT
ATOM      1  C   UNL     1       7.109   3.419 -18.344  0.00  0.00    +0.000 C 
ATOM      2  H   UNL     1       7.473   2.733 -17.569  0.00  0.00    +0.000 HD
ATOM      3  H   UNL     1       6.361   2.865 -18.928  0.00  0.00    +0.000 HD
ENDROOT
BRANCH   1   4
ATOM      4  C   UNL     1       8.263   3.836 -19.253  0.00  0.00    +0.000 C 
ATOM      5  H   UNL     1       8.659   2.959 -19.779  0.00  0.00    +0.000 HD
ATOM      6  H   UNL     1       7.901   4.534 -20.017  0.00  0.00    +0.000 HD
BRANCH   4   7
ATOM      7  C   UNL     1       9.385   4.492 -18.465  0.00  0.00    +0.000 C 
ATOM      8  H   UNL     1       8.985   4.984 -17.573  0.00  0.00    +0.000 HD
ATOM      9  H   UNL     1       9.899   5.247 -19.068  0.00  0.00    +0.000 HD
ATOM     10  H   UNL     1      10.123   3.750 -18.142  0.00  0.00    +0.000 HD
ENDBRANCH   4   7
ENDBRANCH   1   4
BRANCH   1  11
ATOM     11  C   UNL     1       6.451   4.630 -17.691  0.00  0.00    +0.000 C 
ATOM     12  H   UNL     1       7.207   5.286 -17.246  0.00  0.00    +0.000 HD
ATOM     13  H   UNL     1       5.767   4.311 -16.898  0.00  0.00    +0.000 HD
BRANCH  11  15
ATOM     14  O   UNL     1       4.734   5.033 -19.360  0.00  0.00    +0.000 OA
ATOM     15  C   UNL     1       5.655   5.459 -18.670  0.00  0.00    +0.000 C 
ATOM     16  H   UNL     1       5.963   6.516 -18.744  0.00  0.00    +0.000 HD
ENDBRANCH  11  15
ENDBRANCH   1  11
TORSDOF 4
ENDMDL
