MODEL 1
REMARK VINA RESULT:    -4.488      0.000      0.000
REMARK INTER + INTRA:          -4.895
REMARK INTER:                  -4.884
REMARK INTRA:                  -0.012
REMARK UNBOUND:                -0.014
REMARK  Name = 244
REMARK  2 active torsions:
REMARK  status: ('A' for Active; 'I' for Inactive)
REMARK    1  A    between atoms: O_1  and  C_3
REMARK    2  A    between atoms: C_2  and  C_3
REMARK                            x       y       z     vdW  Elec       q    Type
REMARK                         _______ _______ _______ _____ _____    ______ ____
ROOT
ATOM      1  C   UNL     1      -5.460   4.832  26.841  0.00  0.00    +0.000 A 
ATOM      2  C   UNL     1      -5.836   4.651  25.510  0.00  0.00    +0.000 A 
ATOM      3  C   UNL     1      -4.112   4.966  27.172  0.00  0.00    +0.000 A 
ATOM      4  C   UNL     1      -4.865   4.605  24.510  0.00  0.00    +0.000 A 
ATOM      5  C   UNL     1      -3.140   4.921  26.172  0.00  0.00    +0.000 A 
ATOM      6  C   UNL     1      -3.517   4.741  24.842  0.00  0.00    +0.000 A 
ATOM      7  H   UNL     1      -6.883   4.547  25.239  0.00  0.00    +0.000 HD
ATOM      8  H   UNL     1      -3.805   5.110  28.205  0.00  0.00    +0.000 HD
ATOM      9  H   UNL     1      -5.159   4.465  23.474  0.00  0.00    +0.000 HD
ATOM     10  H   UNL     1      -2.090   5.027  26.429  0.00  0.00    +0.000 HD
ATOM     11  H   UNL     1      -2.760   4.706  24.063  0.00  0.00    +0.000 HD
ENDROOT
BRANCH   1  12
ATOM     12  C   UNL     1      -6.499   4.880  27.910  0.00  0.00    +0.000 C 
ATOM     13  H   UNL     1      -7.145   3.996  27.882  0.00  0.00    +0.000 HD
ATOM     14  H   UNL     1      -6.046   4.918  28.907  0.00  0.00    +0.000 HD
BRANCH  12  15
ATOM     15  O   UNL     1      -7.303   6.040  27.734  0.00  0.00    +0.000 OA
ATOM     16  H   UNL     1      -7.223   6.330  26.809  0.00  0.00    +0.000 HD
ENDBRANCH  12  15
ENDBRANCH   1  12
TORSDOF 2
ENDMDL
MODEL 2
REMARK VINA RESULT:    -4.308     46.773     47.035
REMARK INTER + INTRA:          -4.700
REMARK INTER:                  -4.689
REMARK INTRA:                  -0.011
REMARK UNBOUND:                -0.014
REMARK  Name = 244
REMARK  2 active torsions:
REMARK  status: ('A' for Active; 'I' for Inactive)
REMARK    1  A    between atoms: O_1  and  C_3
REMARK    2  A    between atoms: C_2  and  C_3
REMARK                            x       y       z     vdW  Elec       q    Type
REMARK                         _______ _______ _______ _____ _____    ______ ____
ROOT
ATOM      1  C   UNL     1       1.319   3.256 -20.277  0.00  0.00    +0.000 A 
ATOM      2  C   UNL     1       1.746   4.584 -20.311  0.00  0.00    +0.000 A 
ATOM      3  C   UNL     1       2.256   2.223 -20.252  0.00  0.00    +0.000 A 
ATOM      4  C   UNL     1       3.109   4.878 -20.321  0.00  0.00    +0.000 A 
ATOM      5  C   UNL     1       3.619   2.518 -20.261  0.00  0.00    +0.000 A 
ATOM      6  C   UNL     1       4.045   3.845 -20.295  0.00  0.00    +0.000 A 
ATOM      7  H   UNL     1       1.026   5.397 -20.329  0.00  0.00    +0.000 HD
ATOM      8  H   UNL     1       1.936   1.185 -20.223  0.00  0.00    +0.000 HD
ATOM      9  H   UNL     1       3.441   5.912 -20.346  0.00  0.00    +0.000 HD
ATOM     10  H   UNL     1       4.349   1.714 -20.240  0.00  0.00    +0.000 HD
ATOM     11  H   UNL     1       5.108   4.074 -20.301  0.00  0.00    +0.000 HD
ENDROOT
BRANCH   1  12
ATOM     12  C   UNL     1      -0.139   2.942 -20.268  0.00  0.00    +0.000 C 
ATOM     13  H   UNL     1      -0.681   3.531 -21.016  0.00  0.00    +0.000 HD
ATOM     14  H   UNL     1      -0.322   1.886 -20.493  0.00  0.00    +0.000 HD
BRANCH  12  15
ATOM     15  O   UNL     1      -0.676   3.230 -18.983  0.00  0.00    +0.000 OA
ATOM     16  H   UNL     1      -0.600   2.430 -18.434  0.00  0.00    +0.000 HD
ENDBRANCH  12  15
ENDBRANCH   1  12
TORSDOF 2
ENDMDL
MODEL 3
REMARK VINA RESULT:    -4.293     31.759     32.821
REMARK INTER + INTRA:          -4.684
REMARK INTER:                  -4.663
REMARK INTRA:                  -0.021
REMARK UNBOUND:                -0.014
REMARK  Name = 244
REMARK  2 active torsions:
REMARK  status: ('A' for Active; 'I' for Inactive)
REMARK    1  A    between atoms: O_1  and  C_3
REMARK    2  A    between atoms: C_2  and  C_3
REMARK                            x       y       z     vdW  Elec       q    Type
REMARK                         _______ _______ _______ _____ _____    ______ ____
ROOT
ATOM      1  C   UNL     1      14.043   5.496  -0.521  0.00  0.00    +0.000 A 
ATOM      2  C   UNL     1      15.274   4.858  -0.680  0.00  0.00    +0.000 A 
ATOM      3  C   UNL     1      12.986   4.826   0.095  0.00  0.00    +0.000 A 
ATOM      4  C   UNL     1      15.447   3.551  -0.223  0.00  0.00    +0.000 A 
ATOM      5  C   UNL     1      13.159   3.519   0.553  0.00  0.00    +0.000 A 
ATOM      6  C   UNL     1      14.389   2.883   0.394  0.00  0.00    +0.000 A 
ATOM      7  H   UNL     1      16.106   5.370  -1.155  0.00  0.00    +0.000 HD
ATOM      8  H   UNL     1      12.022   5.312   0.227  0.00  0.00    +0.000 HD
ATOM      9  H   UNL     1      16.406   3.056  -0.346  0.00  0.00    +0.000 HD
ATOM     10  H   UNL     1      12.336   2.998   1.033  0.00  0.00    +0.000 HD
ATOM     11  H   UNL     1      14.524   1.865   0.750  0.00  0.00    +0.000 HD
ENDROOT
BRANCH   1  12
ATOM     12  C   UNL     1      13.858   6.893  -1.009  0.00  0.00    +0.000 C 
ATOM     13  H   UNL     1      14.557   7.582  -0.525  0.00  0.00    +0.000 HD
ATOM     14  H   UNL     1      14.029   6.964  -2.089  0.00  0.00    +0.000 HD
BRANCH  12  15
ATOM     15  O   UNL     1      12.530   7.318  -0.732  0.00  0.00    +0.000 OA
ATOM     16  H   UNL     1      12.162   7.717  -1.540  0.00  0.00    +0.000 HD
ENDBRANCH  12  15
ENDBRANCH   1  12
TORSDOF 2
ENDMDL
MODEL 4
REMARK VINA RESULT:    -4.284     36.070     36.918
REMARK INTER + INTRA:          -4.674
REMARK INTER:                  -4.653
REMARK INTRA:                  -0.021
REMARK UNBOUND:                -0.014
REMARK  Name = 244
REMARK  2 active torsions:
REMARK  status: ('A' for Active; 'I' for Inactive)
REMARK    1  A    between atoms: O_1  and  C_3
REMARK    2  A    between atoms: C_2  and  C_3
REMARK                            x       y       z     vdW  Elec       q    Type
REMARK                         _______ _______ _______ _____ _____    ______ ____
ROOT
ATOM      1  C   UNL     1      17.043  -4.593  -1.440  0.00  0.00    +0.000 A 
ATOM      2  C   UNL     1      16.468  -4.934  -2.665  0.00  0.00    +0.000 A 
ATOM      3  C   UNL     1      16.674  -5.277  -0.282  0.00  0.00    +0.000 A 
ATOM      4  C   UNL     1      15.524  -5.959  -2.731  0.00  0.00    +0.000 A 
ATOM      5  C   UNL     1      15.730  -6.302  -0.348  0.00  0.00    +0.000 A 
ATOM      6  C   UNL     1      15.156  -6.643  -1.572  0.00  0.00    +0.000 A 
ATOM      7  H   UNL     1      16.749  -4.411  -3.574  0.00  0.00    +0.000 HD
ATOM      8  H   UNL     1      17.116  -5.022   0.678  0.00  0.00    +0.000 HD
ATOM      9  H   UNL     1      15.077  -6.225  -3.684  0.00  0.00    +0.000 HD
ATOM     10  H   UNL     1      15.443  -6.835   0.553  0.00  0.00    +0.000 HD
ATOM     11  H   UNL     1      14.421  -7.441  -1.624  0.00  0.00    +0.000 HD
ENDROOT
BRANCH   1  12
ATOM     12  C   UNL     1      18.052  -3.497  -1.370  0.00  0.00    +0.000 C 
ATOM     13  H   UNL     1      17.644  -2.607  -0.880  0.00  0.00    +0.000 HD
ATOM     14  H   UNL     1      18.936  -3.803  -0.800  0.00  0.00    +0.000 HD
BRANCH  12  15
ATOM     15  O   UNL     1      18.462  -3.147  -2.686  0.00  0.00    +0.000 OA
ATOM     16  H   UNL     1      18.286  -3.903  -3.272  0.00  0.00    +0.000 HD
ENDBRANCH  12  15
ENDBRANCH   1  12
TORSDOF 2
ENDMDL
MODEL 5
REMARK VINA RESULT:    -4.268     37.285     38.783
REMARK INTER + INTRA:          -4.657
REMARK INTER:                  -4.637
REMARK INTRA:                  -0.020
REMARK UNBOUND:                -0.014
REMARK  Name = 244
REMARK  2 active torsions:
REMARK  status: ('A' for Active; 'I' for Inactive)
REMARK    1  A    between atoms: O_1  and  C_3
REMARK    2  A    between atoms: C_2  and  C_3
REMARK                            x       y       z     vdW  Elec       q    Type
REMARK                         _______ _______ _______ _____ _____    ______ ____
ROOT
ATOM      1  C   UNL     1      17.133  -5.053  -3.070  0.00  0.00    +0.000 A 
ATOM      2  C   UNL     1      17.501  -6.121  -3.888  0.00  0.00    +0.000 A 
ATOM      3  C   UNL     1      18.055  -4.047  -2.779  0.00  0.00    +0.000 A 
ATOM      4  C   UNL     1      18.790  -6.184  -4.416  0.00  0.00    +0.000 A 
ATOM      5  C   UNL     1      19.345  -4.110  -3.308  0.00  0.00    +0.000 A 
ATOM      6  C   UNL     1      19.712  -5.178  -4.126  0.00  0.00    +0.000 A 
ATOM      7  H   UNL     1      16.791  -6.909  -4.123  0.00  0.00    +0.000 HD
ATOM      8  H   UNL     1      17.781  -3.208  -2.145  0.00  0.00    +0.000 HD
ATOM      9  H   UNL     1      19.076  -7.016  -5.053  0.00  0.00    +0.000 HD
ATOM     10  H   UNL     1      20.063  -3.327  -3.083  0.00  0.00    +0.000 HD
ATOM     11  H   UNL     1      20.716  -5.227  -4.537  0.00  0.00    +0.000 HD
ENDROOT
BRANCH   1  12
ATOM     12  C   UNL     1      15.754  -4.986  -2.505  0.00  0.00    +0.000 C 
ATOM     13  H   UNL     1      15.760  -4.604  -1.478  0.00  0.00    +0.000 HD
ATOM     14  H   UNL     1      15.113  -4.321  -3.094  0.00  0.00    +0.000 HD
BRANCH  12  15
ATOM     15  O   UNL     1      15.179  -6.286  -2.506  0.00  0.00    +0.000 OA
ATOM     16  H   UNL     1      15.126  -6.598  -1.586  0.00  0.00    +0.000 HD
ENDBRANCH  12  15
ENDBRANCH   1  12
TORSDOF 2
ENDMDL
MODEL 6
REMARK VINA RESULT:    -4.243     28.167     29.371
REMARK INTER + INTRA:          -4.629
REMARK INTER:                  -4.608
REMARK INTRA:                  -0.021
REMARK UNBOUND:                -0.014
REMARK  Name = 244
REMARK  2 active torsions:
REMARK  status: ('A' for Active; 'I' for Inactive)
REMARK    1  A    between atoms: O_1  and  C_3
REMARK    2  A    between atoms: C_2  and  C_3
REMARK                            x       y       z     vdW  Elec       q    Type
REMARK                         _______ _______ _______ _____ _____    ______ ____
ROOT
ATOM      1  C   UNL     1      -7.498 -14.027   4.064  0.00  0.00    +0.000 A 
ATOM      2  C   UNL     1      -7.740 -15.365   4.373  0.00  0.00    +0.000 A 
ATOM      3  C   UNL     1      -7.574 -13.056   5.063  0.00  0.00    +0.000 A 
ATOM      4  C   UNL     1      -8.058 -15.733   5.681  0.00  0.00    +0.000 A 
ATOM      5  C   UNL     1      -7.891 -13.424   6.371  0.00  0.00    +0.000 A 
ATOM      6  C   UNL     1      -8.132 -14.762   6.679  0.00  0.00    +0.000 A 
ATOM      7  H   UNL     1      -7.682 -16.131   3.605  0.00  0.00    +0.000 HD
ATOM      8  H   UNL     1      -7.386 -12.010   4.836  0.00  0.00    +0.000 HD
ATOM      9  H   UNL     1      -8.245 -16.776   5.921  0.00  0.00    +0.000 HD
ATOM     10  H   UNL     1      -7.949 -12.669   7.149  0.00  0.00    +0.000 HD
ATOM     11  H   UNL     1      -8.379 -15.049   7.698  0.00  0.00    +0.000 HD
ENDROOT
BRANCH   1  12
ATOM     12  C   UNL     1      -7.159 -13.634   2.666  0.00  0.00    +0.000 C 
ATOM     13  H   UNL     1      -7.776 -12.796   2.324  0.00  0.00    +0.000 HD
ATOM     14  H   UNL     1      -6.113 -13.320   2.581  0.00  0.00    +0.000 HD
BRANCH  12  15
ATOM     15  O   UNL     1      -7.371 -14.741   1.799  0.00  0.00    +0.000 OA
ATOM     16  H   UNL     1      -8.308 -14.750   1.538  0.00  0.00    +0.000 HD
ENDBRANCH  12  15
ENDBRANCH   1  12
TORSDOF 2
ENDMDL
MODEL 7
REMARK VINA RESULT:    -4.159     46.273     46.736
REMARK INTER + INTRA:          -4.538
REMARK INTER:                  -4.524
REMARK INTRA:                  -0.014
REMARK UNBOUND:                -0.014
REMARK  Name = 244
REMARK  2 active torsions:
REMARK  status: ('A' for Active; 'I' for Inactive)
REMARK    1  A    between atoms: O_1  and  C_3
REMARK    2  A    between atoms: C_2  and  C_3
REMARK                            x       y       z     vdW  Elec       q    Type
REMARK                         _______ _______ _______ _____ _____    ______ ____
ROOT
ATOM      1  C   UNL     1       1.311   4.209 -20.047  0.00  0.00    +0.000 A 
ATOM      2  C   UNL     1       2.565   3.728 -20.424  0.00  0.00    +0.000 A 
ATOM      3  C   UNL     1       1.176   5.518 -19.585  0.00  0.00    +0.000 A 
ATOM      4  C   UNL     1       3.684   4.557 -20.340  0.00  0.00    +0.000 A 
ATOM      5  C   UNL     1       2.296   6.347 -19.502  0.00  0.00    +0.000 A 
ATOM      6  C   UNL     1       3.549   5.866 -19.880  0.00  0.00    +0.000 A 
ATOM      7  H   UNL     1       2.682   2.711 -20.787  0.00  0.00    +0.000 HD
ATOM      8  H   UNL     1       0.205   5.906 -19.290  0.00  0.00    +0.000 HD
ATOM      9  H   UNL     1       4.660   4.182 -20.635  0.00  0.00    +0.000 HD
ATOM     10  H   UNL     1       2.191   7.367 -19.144  0.00  0.00    +0.000 HD
ATOM     11  H   UNL     1       4.420   6.511 -19.815  0.00  0.00    +0.000 HD
ENDROOT
BRANCH   1  12
ATOM     12  C   UNL     1       0.114   3.323 -20.136  0.00  0.00    +0.000 C 
ATOM     13  H   UNL     1      -0.608   3.698 -20.869  0.00  0.00    +0.000 HD
ATOM     14  H   UNL     1       0.390   2.308 -20.444  0.00  0.00    +0.000 HD
BRANCH  12  15
ATOM     15  O   UNL     1      -0.518   3.253 -18.864  0.00  0.00    +0.000 OA
ATOM     16  H   UNL     1      -1.173   3.970 -18.810  0.00  0.00    +0.000 HD
ENDBRANCH  12  15
ENDBRANCH   1  12
TORSDOF 2
ENDMDL
MODEL 8
REMARK VINA RESULT:    -4.150     33.681     35.177
REMARK INTER + INTRA:          -4.528
REMARK INTER:                  -4.510
REMARK INTRA:                  -0.018
REMARK UNBOUND:                -0.014
REMARK  Name = 244
REMARK  2 active torsions:
REMARK  status: ('A' for Active; 'I' for Inactive)
REMARK    1  A    between atoms: O_1  and  C_3
REMARK    2  A    between atoms: C_2  and  C_3
REMARK                            x       y       z     vdW  Elec       q    Type
REMARK                         _______ _______ _______ _____ _____    ______ ____
ROOT
ATOM      1  C   UNL     1      15.190   6.574  -1.864  0.00  0.00    +0.000 A 
ATOM      2  C   UNL     1      16.569   6.584  -1.654  0.00  0.00    +0.000 A 
ATOM      3  C   UNL     1      14.594   7.574  -2.633  0.00  0.00    +0.000 A 
ATOM      4  C   UNL     1      17.352   7.594  -2.213  0.00  0.00    +0.000 A 
ATOM      5  C   UNL     1      15.378   8.584  -3.193  0.00  0.00    +0.000 A 
ATOM      6  C   UNL     1      16.757   8.593  -2.983  0.00  0.00    +0.000 A 
ATOM      7  H   UNL     1      17.045   5.810  -1.060  0.00  0.00    +0.000 HD
ATOM      8  H   UNL     1      13.521   7.576  -2.806  0.00  0.00    +0.000 HD
ATOM      9  H   UNL     1      18.426   7.601  -2.050  0.00  0.00    +0.000 HD
ATOM     10  H   UNL     1      14.915   9.362  -3.792  0.00  0.00    +0.000 HD
ATOM     11  H   UNL     1      17.367   9.380  -3.418  0.00  0.00    +0.000 HD
ENDROOT
BRANCH   1  12
ATOM     12  C   UNL     1      14.352   5.494  -1.267  0.00  0.00    +0.000 C 
ATOM     13  H   UNL     1      14.195   4.672  -1.973  0.00  0.00    +0.000 HD
ATOM     14  H   UNL     1      14.825   5.069  -0.375  0.00  0.00    +0.000 HD
BRANCH  12  15
ATOM     15  O   UNL     1      13.087   6.028  -0.897  0.00  0.00    +0.000 OA
ATOM     16  H   UNL     1      12.882   6.767  -1.494  0.00  0.00    +0.000 HD
ENDBRANCH  12  15
ENDBRANCH   1  12
TORSDOF 2
ENDMDL
MODEL 9
REMARK VINA RESULT:    -4.109      2.372      3.489
REMARK INTER + INTRA:          -4.484
REMARK INTER:                  -4.474
REMARK INTRA:                  -0.010
REMARK UNBOUND:                -0.014
REMARK  Name = 244
REMARK  2 active torsions:
REMARK  status: ('A' for Active; 'I' for Inactive)
REMARK    1  A    between atoms: O_1  and  C_3
REMARK    2  A    between atoms: C_2  and  C_3
REMARK                            x       y       z     vdW  Elec       q    Type
REMARK                         _______ _______ _______ _____ _____    ______ ____
ROOT
ATOM      1  C   UNL     1      -3.347   5.167  25.086  0.00  0.00    +0.000 A 
ATOM      2  C   UNL     1      -4.584   4.837  24.531  0.00  0.00    +0.000 A 
ATOM      3  C   UNL     1      -3.191   5.201  26.471  0.00  0.00    +0.000 A 
ATOM      4  C   UNL     1      -5.664   4.540  25.363  0.00  0.00    +0.000 A 
ATOM      5  C   UNL     1      -4.271   4.904  27.303  0.00  0.00    +0.000 A 
ATOM      6  C   UNL     1      -5.507   4.573  26.748  0.00  0.00    +0.000 A 
ATOM      7  H   UNL     1      -4.718   4.805  23.454  0.00  0.00    +0.000 HD
ATOM      8  H   UNL     1      -2.232   5.455  26.916  0.00  0.00    +0.000 HD
ATOM      9  H   UNL     1      -6.627   4.282  24.930  0.00  0.00    +0.000 HD
ATOM     10  H   UNL     1      -4.150   4.929  28.381  0.00  0.00    +0.000 HD
ATOM     11  H   UNL     1      -6.348   4.342  27.395  0.00  0.00    +0.000 HD
ENDROOT
BRANCH   1  12
ATOM     12  C   UNL     1      -2.192   5.485  24.197  0.00  0.00    +0.000 C 
ATOM     13  H   UNL     1      -1.246   5.147  24.633  0.00  0.00    +0.000 HD
ATOM     14  H   UNL     1      -2.292   4.995  23.222  0.00  0.00    +0.000 HD
BRANCH  12  15
ATOM     15  O   UNL     1      -2.125   6.891  23.993  0.00  0.00    +0.000 OA
ATOM     16  H   UNL     1      -1.375   7.078  23.403  0.00  0.00    +0.000 HD
ENDBRANCH  12  15
ENDBRANCH   1  12
TORSDOF 2
ENDMDL
MODEL 10
REMARK VINA RESULT:    -4.105     46.698     47.889
REMARK INTER + INTRA:          -4.480
REMARK INTER:                  -4.465
REMARK INTRA:                  -0.014
REMARK UNBOUND:                -0.014
REMARK  Name = 244
REMARK  2 active torsions:
REMARK  status: ('A' for Active; 'I' for Inactive)
REMARK    1  A    between atoms: O_1  and  C_3
REMARK    2  A    between atoms: C_2  and  C_3
REMARK                            x       y       z     vdW  Elec       q    Type
REMARK                         _______ _______ _______ _____ _____    ______ ____
ROOT
ATOM      1  C   UNL     1      -0.484   3.196 -21.431  0.00  0.00    +0.000 A 
ATOM      2  C   UNL     1       0.090   3.211 -20.160  0.00  0.00    +0.000 A 
ATOM      3  C   UNL     1      -0.496   4.356 -22.204  0.00  0.00    +0.000 A 
ATOM      4  C   UNL     1       0.652   4.386 -19.662  0.00  0.00    +0.000 A 
ATOM      5  C   UNL     1       0.067   5.532 -21.707  0.00  0.00    +0.000 A 
ATOM      6  C   UNL     1       0.641   5.546 -20.436  0.00  0.00    +0.000 A 
ATOM      7  H   UNL     1       0.108   2.313 -19.549  0.00  0.00    +0.000 HD
ATOM      8  H   UNL     1      -0.938   4.357 -23.197  0.00  0.00    +0.000 HD
ATOM      9  H   UNL     1       1.099   4.397 -18.672  0.00  0.00    +0.000 HD
ATOM     10  H   UNL     1       0.059   6.436 -22.308  0.00  0.00    +0.000 HD
ATOM     11  H   UNL     1       1.079   6.462 -20.048  0.00  0.00    +0.000 HD
ENDROOT
BRANCH   1  12
ATOM     12  C   UNL     1      -1.085   1.938 -21.963  0.00  0.00    +0.000 C 
ATOM     13  H   UNL     1      -1.989   1.662 -21.412  0.00  0.00    +0.000 HD
ATOM     14  H   UNL     1      -1.367   2.045 -23.016  0.00  0.00    +0.000 HD
BRANCH  12  15
ATOM     15  O   UNL     1      -0.141   0.880 -21.853  0.00  0.00    +0.000 OA
ATOM     16  H   UNL     1      -0.603   0.040 -22.017  0.00  0.00    +0.000 HD
ENDBRANCH  12  15
ENDBRANCH   1  12
TORSDOF 2
ENDMDL
