MODEL 1
REMARK VINA RESULT:    -4.993      0.000      0.000
REMARK INTER + INTRA:          -7.585
REMARK INTER:                  -7.112
REMARK INTRA:                  -0.473
REMARK UNBOUND:                -0.695
REMARK  Name = 125098
REMARK  8 active torsions:
REMARK  status: ('A' for Active; 'I' for Inactive)
REMARK    1  A    between atoms: O_1  and  C_11
REMARK    2  A    between atoms: O_1  and  C_13
REMARK    3  A    between atoms: O_2  and  C_12
REMARK    4  A    between atoms: C_5  and  C_10
REMARK    5  A    between atoms: C_10  and  C_12
REMARK    6  A    between atoms: C_13  and  C_14
REMARK    7  A    between atoms: C_13  and  C_15
REMARK    8  A    between atoms: C_14  and  C_16
REMARK                            x       y       z     vdW  Elec       q    Type
REMARK                         _______ _______ _______ _____ _____    ______ ____
ROOT
ATOM      1  O   UNL     1      12.431   7.813   0.354  0.00  0.00    +0.000 OA
ATOM      2  N   UNL     1      14.001   6.268  -0.402  0.00  0.00    +0.000 N 
ATOM      3  C   UNL     1      15.260   6.006  -1.132  0.00  0.00    +0.000 C 
ATOM      4  C   UNL     1      15.996   4.785  -0.562  0.00  0.00    +0.000 C 
ATOM      5  C   UNL     1      15.087   3.571  -0.392  0.00  0.00    +0.000 C 
ATOM      6  C   UNL     1      13.866   3.938   0.442  0.00  0.00    +0.000 C 
ATOM      7  C   UNL     1      13.120   5.121  -0.161  0.00  0.00    +0.000 C 
ATOM      8  C   UNL     1      13.544   7.560  -0.105  0.00  0.00    +0.000 C 
ATOM      9  H   UNL     1      15.930   6.863  -0.996  0.00  0.00    +0.000 HD
ATOM     10  H   UNL     1      16.401   5.053   0.423  0.00  0.00    +0.000 HD
ATOM     11  H   UNL     1      16.854   4.524  -1.192  0.00  0.00    +0.000 HD
ATOM     12  H   UNL     1      15.641   2.763   0.100  0.00  0.00    +0.000 HD
ATOM     13  H   UNL     1      14.772   3.192  -1.370  0.00  0.00    +0.000 HD
ATOM     14  H   UNL     1      13.195   3.076   0.521  0.00  0.00    +0.000 HD
ATOM     15  H   UNL     1      14.188   4.191   1.460  0.00  0.00    +0.000 HD
ATOM     16  H   UNL     1      12.676   4.843  -1.124  0.00  0.00    +0.000 HD
ATOM     17  H   UNL     1      12.296   5.408   0.499  0.00  0.00    +0.000 HD
ENDROOT
BRANCH   3  18
ATOM     18  C   UNL     1      14.996   5.877  -2.635  0.00  0.00    +0.000 C 
ATOM     19  H   UNL     1      14.000   5.463  -2.832  0.00  0.00    +0.000 HD
ATOM     20  H   UNL     1      15.703   5.164  -3.080  0.00  0.00    +0.000 HD
BRANCH  18  21
ATOM     21  C   UNL     1      15.119   7.216  -3.336  0.00  0.00    +0.000 C 
ATOM     22  H   UNL     1      15.205   8.048  -2.635  0.00  0.00    +0.000 HD
ATOM     23  H   UNL     1      15.968   7.241  -4.026  0.00  0.00    +0.000 HD
BRANCH  21  24
ATOM     24  O   UNL     1      13.930   7.444  -4.079  0.00  0.00    +0.000 OA
ATOM     25  H   UNL     1      13.312   6.723  -3.875  0.00  0.00    +0.000 HD
ENDBRANCH  21  24
ENDBRANCH  18  21
ENDBRANCH   3  18
BRANCH   8  26
ATOM     26  O   UNL     1      14.472   8.526  -0.386  0.00  0.00    +0.000 OA
BRANCH  26  27
ATOM     27  C   UNL     1      14.995   9.247   0.736  0.00  0.00    +0.000 C 
ATOM     28  H   UNL     1      14.259   9.205   1.550  0.00  0.00    +0.000 HD
BRANCH  27  29
ATOM     29  C   UNL     1      15.189  10.704   0.339  0.00  0.00    +0.000 C 
ATOM     30  H   UNL     1      15.815  11.229   1.069  0.00  0.00    +0.000 HD
ATOM     31  H   UNL     1      15.715  10.764  -0.620  0.00  0.00    +0.000 HD
ATOM     32  H   UNL     1      14.241  11.237   0.236  0.00  0.00    +0.000 HD
ENDBRANCH  27  29
BRANCH  27  33
ATOM     33  C   UNL     1      16.317   8.610   1.168  0.00  0.00    +0.000 C 
ATOM     34  H   UNL     1      16.687   9.051   2.100  0.00  0.00    +0.000 HD
ATOM     35  H   UNL     1      16.169   7.545   1.388  0.00  0.00    +0.000 HD
BRANCH  33  36
ATOM     36  C   UNL     1      17.407   8.773   0.117  0.00  0.00    +0.000 C 
ATOM     37  H   UNL     1      18.396   8.835   0.579  0.00  0.00    +0.000 HD
ATOM     38  H   UNL     1      17.249   9.664  -0.497  0.00  0.00    +0.000 HD
ATOM     39  H   UNL     1      17.404   7.911  -0.559  0.00  0.00    +0.000 HD
ENDBRANCH  33  36
ENDBRANCH  27  33
ENDBRANCH  26  27
ENDBRANCH   8  26
TORSDOF 8
ENDMDL
MODEL 2
REMARK VINA RESULT:    -4.945     22.946     25.070
REMARK INTER + INTRA:          -7.518
REMARK INTER:                  -6.680
REMARK INTRA:                  -0.838
REMARK UNBOUND:                -0.695
REMARK  Name = 125098
REMARK  8 active torsions:
REMARK  status: ('A' for Active; 'I' for Inactive)
REMARK    1  A    between atoms: O_1  and  C_11
REMARK    2  A    between atoms: O_1  and  C_13
REMARK    3  A    between atoms: O_2  and  C_12
REMARK    4  A    between atoms: C_5  and  C_10
REMARK    5  A    between atoms: C_10  and  C_12
REMARK    6  A    between atoms: C_13  and  C_14
REMARK    7  A    between atoms: C_13  and  C_15
REMARK    8  A    between atoms: C_14  and  C_16
REMARK                            x       y       z     vdW  Elec       q    Type
REMARK                         _______ _______ _______ _____ _____    ______ ____
ROOT
ATOM      1  O   UNL     1       3.094   2.508 -22.828  0.00  0.00    +0.000 OA
ATOM      2  N   UNL     1       2.842   4.494 -21.639  0.00  0.00    +0.000 N 
ATOM      3  C   UNL     1       1.961   5.602 -21.210  0.00  0.00    +0.000 C 
ATOM      4  C   UNL     1       2.372   6.144 -19.833  0.00  0.00    +0.000 C 
ATOM      5  C   UNL     1       3.866   6.435 -19.732  0.00  0.00    +0.000 C 
ATOM      6  C   UNL     1       4.671   5.201 -20.118  0.00  0.00    +0.000 C 
ATOM      7  C   UNL     1       4.286   4.702 -21.506  0.00  0.00    +0.000 C 
ATOM      8  C   UNL     1       2.370   3.363 -22.320  0.00  0.00    +0.000 C 
ATOM      9  H   UNL     1       0.940   5.217 -21.100  0.00  0.00    +0.000 HD
ATOM     10  H   UNL     1       2.114   5.394 -19.074  0.00  0.00    +0.000 HD
ATOM     11  H   UNL     1       1.798   7.046 -19.589  0.00  0.00    +0.000 HD
ATOM     12  H   UNL     1       4.114   6.732 -18.706  0.00  0.00    +0.000 HD
ATOM     13  H   UNL     1       4.134   7.276 -20.381  0.00  0.00    +0.000 HD
ATOM     14  H   UNL     1       5.743   5.429 -20.090  0.00  0.00    +0.000 HD
ATOM     15  H   UNL     1       4.490   4.407 -19.383  0.00  0.00    +0.000 HD
ATOM     16  H   UNL     1       4.583   5.430 -22.270  0.00  0.00    +0.000 HD
ATOM     17  H   UNL     1       4.825   3.774 -21.722  0.00  0.00    +0.000 HD
ENDROOT
BRANCH   3  18
ATOM     18  C   UNL     1       1.914   6.699 -22.277  0.00  0.00    +0.000 C 
ATOM     19  H   UNL     1       2.776   6.637 -22.952  0.00  0.00    +0.000 HD
ATOM     20  H   UNL     1       1.984   7.687 -21.803  0.00  0.00    +0.000 HD
BRANCH  18  21
ATOM     21  C   UNL     1       0.642   6.621 -23.097  0.00  0.00    +0.000 C 
ATOM     22  H   UNL     1       0.285   7.604 -23.411  0.00  0.00    +0.000 HD
ATOM     23  H   UNL     1       0.761   5.986 -23.980  0.00  0.00    +0.000 HD
BRANCH  21  24
ATOM     24  O   UNL     1      -0.384   6.070 -22.283  0.00  0.00    +0.000 OA
ATOM     25  H   UNL     1      -0.245   6.391 -21.376  0.00  0.00    +0.000 HD
ENDBRANCH  21  24
ENDBRANCH  18  21
ENDBRANCH   3  18
BRANCH   8  26
ATOM     26  O   UNL     1       1.003   3.306 -22.368  0.00  0.00    +0.000 OA
BRANCH  26  27
ATOM     27  C   UNL     1       0.386   2.260 -21.608  0.00  0.00    +0.000 C 
ATOM     28  H   UNL     1       1.174   1.681 -21.109  0.00  0.00    +0.000 HD
BRANCH  27  29
ATOM     29  C   UNL     1      -0.361   1.335 -22.558  0.00  0.00    +0.000 C 
ATOM     30  H   UNL     1      -0.135   1.578 -23.603  0.00  0.00    +0.000 HD
ATOM     31  H   UNL     1      -0.038   0.300 -22.405  0.00  0.00    +0.000 HD
ATOM     32  H   UNL     1      -1.444   1.374 -22.412  0.00  0.00    +0.000 HD
ENDBRANCH  27  29
BRANCH  27  33
ATOM     33  C   UNL     1      -0.563   2.881 -20.580  0.00  0.00    +0.000 C 
ATOM     34  H   UNL     1      -1.045   3.782 -20.975  0.00  0.00    +0.000 HD
ATOM     35  H   UNL     1      -1.382   2.187 -20.355  0.00  0.00    +0.000 HD
BRANCH  33  36
ATOM     36  C   UNL     1       0.155   3.268 -19.294  0.00  0.00    +0.000 C 
ATOM     37  H   UNL     1       1.212   2.990 -19.332  0.00  0.00    +0.000 HD
ATOM     38  H   UNL     1      -0.301   2.799 -18.418  0.00  0.00    +0.000 HD
ATOM     39  H   UNL     1       0.097   4.352 -19.147  0.00  0.00    +0.000 HD
ENDBRANCH  33  36
ENDBRANCH  27  33
ENDBRANCH  26  27
ENDBRANCH   8  26
TORSDOF 8
ENDMDL
MODEL 3
REMARK VINA RESULT:    -4.797     21.988     24.230
REMARK INTER + INTRA:          -7.315
REMARK INTER:                  -6.908
REMARK INTRA:                  -0.407
REMARK UNBOUND:                -0.695
REMARK  Name = 125098
REMARK  8 active torsions:
REMARK  status: ('A' for Active; 'I' for Inactive)
REMARK    1  A    between atoms: O_1  and  C_11
REMARK    2  A    between atoms: O_1  and  C_13
REMARK    3  A    between atoms: O_2  and  C_12
REMARK    4  A    between atoms: C_5  and  C_10
REMARK    5  A    between atoms: C_10  and  C_12
REMARK    6  A    between atoms: C_13  and  C_14
REMARK    7  A    between atoms: C_13  and  C_15
REMARK    8  A    between atoms: C_14  and  C_16
REMARK                            x       y       z     vdW  Elec       q    Type
REMARK                         _______ _______ _______ _____ _____    ______ ____
ROOT
ATOM      1  O   UNL     1       4.868   3.964 -22.280  0.00  0.00    +0.000 OA
ATOM      2  N   UNL     1       2.564   4.264 -22.120  0.00  0.00    +0.000 N 
ATOM      3  C   UNL     1       1.356   4.303 -21.268  0.00  0.00    +0.000 C 
ATOM      4  C   UNL     1       0.313   5.285 -21.821  0.00  0.00    +0.000 C 
ATOM      5  C   UNL     1       0.044   5.090 -23.310  0.00  0.00    +0.000 C 
ATOM      6  C   UNL     1       1.349   5.150 -24.094  0.00  0.00    +0.000 C 
ATOM      7  C   UNL     1       2.358   4.137 -23.565  0.00  0.00    +0.000 C 
ATOM      8  C   UNL     1       3.863   4.159 -21.600  0.00  0.00    +0.000 C 
ATOM      9  H   UNL     1       1.637   4.674 -20.276  0.00  0.00    +0.000 HD
ATOM     10  H   UNL     1       0.683   6.307 -21.668  0.00  0.00    +0.000 HD
ATOM     11  H   UNL     1      -0.625   5.206 -21.258  0.00  0.00    +0.000 HD
ATOM     12  H   UNL     1      -0.637   5.872 -23.666  0.00  0.00    +0.000 HD
ATOM     13  H   UNL     1      -0.454   4.130 -23.483  0.00  0.00    +0.000 HD
ATOM     14  H   UNL     1       1.156   4.962 -25.156  0.00  0.00    +0.000 HD
ATOM     15  H   UNL     1       1.771   6.159 -24.015  0.00  0.00    +0.000 HD
ATOM     16  H   UNL     1       2.011   3.115 -23.757  0.00  0.00    +0.000 HD
ATOM     17  H   UNL     1       3.307   4.257 -24.097  0.00  0.00    +0.000 HD
ENDROOT
BRANCH   3  18
ATOM     18  C   UNL     1       0.785   2.895 -21.076  0.00  0.00    +0.000 C 
ATOM     19  H   UNL     1       1.475   2.258 -20.510  0.00  0.00    +0.000 HD
ATOM     20  H   UNL     1       0.664   2.403 -22.050  0.00  0.00    +0.000 HD
BRANCH  18  21
ATOM     21  C   UNL     1      -0.549   2.932 -20.358  0.00  0.00    +0.000 C 
ATOM     22  H   UNL     1      -1.208   3.714 -20.741  0.00  0.00    +0.000 HD
ATOM     23  H   UNL     1      -1.070   1.971 -20.409  0.00  0.00    +0.000 HD
BRANCH  21  24
ATOM     24  O   UNL     1      -0.316   3.245 -18.992  0.00  0.00    +0.000 OA
ATOM     25  H   UNL     1       0.204   2.519 -18.608  0.00  0.00    +0.000 HD
ENDBRANCH  21  24
ENDBRANCH  18  21
ENDBRANCH   3  18
BRANCH   8  26
ATOM     26  O   UNL     1       3.899   4.293 -20.237  0.00  0.00    +0.000 OA
BRANCH  26  27
ATOM     27  C   UNL     1       4.760   5.316 -19.725  0.00  0.00    +0.000 C 
ATOM     28  H   UNL     1       5.341   5.732 -20.559  0.00  0.00    +0.000 HD
BRANCH  27  29
ATOM     29  C   UNL     1       5.728   4.694 -18.729  0.00  0.00    +0.000 C 
ATOM     30  H   UNL     1       6.767   4.844 -19.043  0.00  0.00    +0.000 HD
ATOM     31  H   UNL     1       5.627   5.182 -17.753  0.00  0.00    +0.000 HD
ATOM     32  H   UNL     1       5.550   3.624 -18.589  0.00  0.00    +0.000 HD
ENDBRANCH  27  29
BRANCH  27  33
ATOM     33  C   UNL     1       3.909   6.403 -19.065  0.00  0.00    +0.000 C 
ATOM     34  H   UNL     1       3.725   7.237 -19.750  0.00  0.00    +0.000 HD
ATOM     35  H   UNL     1       2.916   6.006 -18.816  0.00  0.00    +0.000 HD
BRANCH  33  36
ATOM     36  C   UNL     1       4.566   6.970 -17.813  0.00  0.00    +0.000 C 
ATOM     37  H   UNL     1       3.845   7.521 -17.203  0.00  0.00    +0.000 HD
ATOM     38  H   UNL     1       5.400   7.634 -18.058  0.00  0.00    +0.000 HD
ATOM     39  H   UNL     1       4.971   6.155 -17.204  0.00  0.00    +0.000 HD
ENDBRANCH  33  36
ENDBRANCH  27  33
ENDBRANCH  26  27
ENDBRANCH   8  26
TORSDOF 8
ENDMDL
MODEL 4
REMARK VINA RESULT:    -4.775     27.895     29.460
REMARK INTER + INTRA:          -7.284
REMARK INTER:                  -6.992
REMARK INTRA:                  -0.291
REMARK UNBOUND:                -0.695
REMARK  Name = 125098
REMARK  8 active torsions:
REMARK  status: ('A' for Active; 'I' for Inactive)
REMARK    1  A    between atoms: O_1  and  C_11
REMARK    2  A    between atoms: O_1  and  C_13
REMARK    3  A    between atoms: O_2  and  C_12
REMARK    4  A    between atoms: C_5  and  C_10
REMARK    5  A    between atoms: C_10  and  C_12
REMARK    6  A    between atoms: C_13  and  C_14
REMARK    7  A    between atoms: C_13  and  C_15
REMARK    8  A    between atoms: C_14  and  C_16
REMARK                            x       y       z     vdW  Elec       q    Type
REMARK                         _______ _______ _______ _____ _____    ______ ____
ROOT
ATOM      1  O   UNL     1      -5.132 -15.517   5.103  0.00  0.00    +0.000 OA
ATOM      2  N   UNL     1      -3.639 -15.361   3.322  0.00  0.00    +0.000 N 
ATOM      3  C   UNL     1      -3.331 -14.820   1.981  0.00  0.00    +0.000 C 
ATOM      4  C   UNL     1      -1.822 -14.599   1.799  0.00  0.00    +0.000 C 
ATOM      5  C   UNL     1      -0.991 -15.811   2.210  0.00  0.00    +0.000 C 
ATOM      6  C   UNL     1      -1.335 -16.229   3.634  0.00  0.00    +0.000 C 
ATOM      7  C   UNL     1      -2.828 -16.490   3.788  0.00  0.00    +0.000 C 
ATOM      8  C   UNL     1      -4.763 -14.971   4.064  0.00  0.00    +0.000 C 
ATOM      9  H   UNL     1      -3.803 -13.835   1.883  0.00  0.00    +0.000 HD
ATOM     10  H   UNL     1      -1.519 -13.746   2.422  0.00  0.00    +0.000 HD
ATOM     11  H   UNL     1      -1.596 -14.325   0.762  0.00  0.00    +0.000 HD
ATOM     12  H   UNL     1       0.075 -15.565   2.145  0.00  0.00    +0.000 HD
ATOM     13  H   UNL     1      -1.168 -16.644   1.522  0.00  0.00    +0.000 HD
ATOM     14  H   UNL     1      -0.770 -17.127   3.907  0.00  0.00    +0.000 HD
ATOM     15  H   UNL     1      -1.032 -15.434   4.327  0.00  0.00    +0.000 HD
ATOM     16  H   UNL     1      -3.125 -17.368   3.203  0.00  0.00    +0.000 HD
ATOM     17  H   UNL     1      -3.053 -16.713   4.835  0.00  0.00    +0.000 HD
ENDROOT
BRANCH   3  18
ATOM     18  C   UNL     1      -3.923 -15.713   0.888  0.00  0.00    +0.000 C 
ATOM     19  H   UNL     1      -4.957 -15.430   0.657  0.00  0.00    +0.000 HD
ATOM     20  H   UNL     1      -3.976 -16.752   1.240  0.00  0.00    +0.000 HD
BRANCH  18  21
ATOM     21  C   UNL     1      -3.101 -15.651  -0.384  0.00  0.00    +0.000 C 
ATOM     22  H   UNL     1      -2.762 -14.639  -0.614  0.00  0.00    +0.000 HD
ATOM     23  H   UNL     1      -2.234 -16.317  -0.346  0.00  0.00    +0.000 HD
BRANCH  21  24
ATOM     24  O   UNL     1      -3.925 -16.048  -1.471  0.00  0.00    +0.000 OA
ATOM     25  H   UNL     1      -3.349 -16.436  -2.152  0.00  0.00    +0.000 HD
ENDBRANCH  21  24
ENDBRANCH  18  21
ENDBRANCH   3  18
BRANCH   8  26
ATOM     26  O   UNL     1      -5.423 -13.909   3.505  0.00  0.00    +0.000 OA
BRANCH  26  27
ATOM     27  C   UNL     1      -6.852 -13.997   3.474  0.00  0.00    +0.000 C 
ATOM     28  H   UNL     1      -7.146 -15.003   3.799  0.00  0.00    +0.000 HD
BRANCH  27  29
ATOM     29  C   UNL     1      -7.328 -13.796   2.042  0.00  0.00    +0.000 C 
ATOM     30  H   UNL     1      -6.494 -13.874   1.336  0.00  0.00    +0.000 HD
ATOM     31  H   UNL     1      -8.038 -14.585   1.769  0.00  0.00    +0.000 HD
ATOM     32  H   UNL     1      -7.824 -12.833   1.900  0.00  0.00    +0.000 HD
ENDBRANCH  27  29
BRANCH  27  33
ATOM     33  C   UNL     1      -7.439 -12.935   4.406  0.00  0.00    +0.000 C 
ATOM     34  H   UNL     1      -6.671 -12.230   4.742  0.00  0.00    +0.000 HD
ATOM     35  H   UNL     1      -8.178 -12.327   3.869  0.00  0.00    +0.000 HD
BRANCH  33  36
ATOM     36  C   UNL     1      -8.077 -13.546   5.647  0.00  0.00    +0.000 C 
ATOM     37  H   UNL     1      -7.317 -13.893   6.353  0.00  0.00    +0.000 HD
ATOM     38  H   UNL     1      -8.732 -14.384   5.395  0.00  0.00    +0.000 HD
ATOM     39  H   UNL     1      -8.693 -12.797   6.156  0.00  0.00    +0.000 HD
ENDBRANCH  33  36
ENDBRANCH  27  33
ENDBRANCH  26  27
ENDBRANCH   8  26
TORSDOF 8
ENDMDL
MODEL 5
REMARK VINA RESULT:    -4.737     20.063     22.504
REMARK INTER + INTRA:          -7.232
REMARK INTER:                  -6.742
REMARK INTRA:                  -0.490
REMARK UNBOUND:                -0.695
REMARK  Name = 125098
REMARK  8 active torsions:
REMARK  status: ('A' for Active; 'I' for Inactive)
REMARK    1  A    between atoms: O_1  and  C_11
REMARK    2  A    between atoms: O_1  and  C_13
REMARK    3  A    between atoms: O_2  and  C_12
REMARK    4  A    between atoms: C_5  and  C_10
REMARK    5  A    between atoms: C_10  and  C_12
REMARK    6  A    between atoms: C_13  and  C_14
REMARK    7  A    between atoms: C_13  and  C_15
REMARK    8  A    between atoms: C_14  and  C_16
REMARK                            x       y       z     vdW  Elec       q    Type
REMARK                         _______ _______ _______ _____ _____    ______ ____
ROOT
ATOM      1  O   UNL     1       3.384   4.128 -22.032  0.00  0.00    +0.000 OA
ATOM      2  N   UNL     1       4.738   4.859 -20.283  0.00  0.00    +0.000 N 
ATOM      3  C   UNL     1       4.848   5.304 -18.877  0.00  0.00    +0.000 C 
ATOM      4  C   UNL     1       6.203   4.913 -18.270  0.00  0.00    +0.000 C 
ATOM      5  C   UNL     1       7.384   5.293 -19.159  0.00  0.00    +0.000 C 
ATOM      6  C   UNL     1       7.200   4.714 -20.556  0.00  0.00    +0.000 C 
ATOM      7  C   UNL     1       5.872   5.148 -21.165  0.00  0.00    +0.000 C 
ATOM      8  C   UNL     1       3.551   4.353 -20.834  0.00  0.00    +0.000 C 
ATOM      9  H   UNL     1       4.083   4.789 -18.285  0.00  0.00    +0.000 HD
ATOM     10  H   UNL     1       6.218   3.825 -18.125  0.00  0.00    +0.000 HD
ATOM     11  H   UNL     1       6.323   5.362 -17.278  0.00  0.00    +0.000 HD
ATOM     12  H   UNL     1       8.313   4.912 -18.720  0.00  0.00    +0.000 HD
ATOM     13  H   UNL     1       7.482   6.383 -19.215  0.00  0.00    +0.000 HD
ATOM     14  H   UNL     1       8.026   5.030 -21.203  0.00  0.00    +0.000 HD
ATOM     15  H   UNL     1       7.234   3.619 -20.500  0.00  0.00    +0.000 HD
ATOM     16  H   UNL     1       5.873   6.228 -21.352  0.00  0.00    +0.000 HD
ATOM     17  H   UNL     1       5.736   4.656 -22.133  0.00  0.00    +0.000 HD
ENDROOT
BRANCH   3  18
ATOM     18  C   UNL     1       4.571   6.806 -18.763  0.00  0.00    +0.000 C 
ATOM     19  H   UNL     1       3.701   7.098 -19.363  0.00  0.00    +0.000 HD
ATOM     20  H   UNL     1       5.415   7.375 -19.172  0.00  0.00    +0.000 HD
BRANCH  18  21
ATOM     21  C   UNL     1       4.334   7.217 -17.323  0.00  0.00    +0.000 C 
ATOM     22  H   UNL     1       3.363   7.694 -17.179  0.00  0.00    +0.000 HD
ATOM     23  H   UNL     1       4.421   6.370 -16.635  0.00  0.00    +0.000 HD
BRANCH  21  24
ATOM     24  O   UNL     1       5.309   8.187 -16.967  0.00  0.00    +0.000 OA
ATOM     25  H   UNL     1       5.583   8.008 -16.052  0.00  0.00    +0.000 HD
ENDBRANCH  21  24
ENDBRANCH  18  21
ENDBRANCH   3  18
BRANCH   8  26
ATOM     26  O   UNL     1       2.581   4.137 -19.892  0.00  0.00    +0.000 OA
BRANCH  26  27
ATOM     27  C   UNL     1       1.251   4.530 -20.252  0.00  0.00    +0.000 C 
ATOM     28  H   UNL     1       1.186   4.574 -21.347  0.00  0.00    +0.000 HD
BRANCH  27  29
ATOM     29  C   UNL     1       0.981   5.921 -19.698  0.00  0.00    +0.000 C 
ATOM     30  H   UNL     1       1.060   6.680 -20.485  0.00  0.00    +0.000 HD
ATOM     31  H   UNL     1      -0.044   5.979 -19.315  0.00  0.00    +0.000 HD
ATOM     32  H   UNL     1       1.659   6.184 -18.883  0.00  0.00    +0.000 HD
ENDBRANCH  27  29
BRANCH  27  33
ATOM     33  C   UNL     1       0.260   3.508 -19.691  0.00  0.00    +0.000 C 
ATOM     34  H   UNL     1       0.774   2.711 -19.143  0.00  0.00    +0.000 HD
ATOM     35  H   UNL     1      -0.401   3.987 -18.957  0.00  0.00    +0.000 HD
BRANCH  33  36
ATOM     36  C   UNL     1      -0.573   2.852 -20.785  0.00  0.00    +0.000 C 
ATOM     37  H   UNL     1      -0.180   1.864 -21.042  0.00  0.00    +0.000 HD
ATOM     38  H   UNL     1      -0.608   3.464 -21.690  0.00  0.00    +0.000 HD
ATOM     39  H   UNL     1      -1.605   2.725 -20.441  0.00  0.00    +0.000 HD
ENDBRANCH  33  36
ENDBRANCH  27  33
ENDBRANCH  26  27
ENDBRANCH   8  26
TORSDOF 8
ENDMDL
MODEL 6
REMARK VINA RESULT:    -4.660     20.627     22.651
REMARK INTER + INTRA:          -7.125
REMARK INTER:                  -6.494
REMARK INTRA:                  -0.631
REMARK UNBOUND:                -0.695
REMARK  Name = 125098
REMARK  8 active torsions:
REMARK  status: ('A' for Active; 'I' for Inactive)
REMARK    1  A    between atoms: O_1  and  C_11
REMARK    2  A    between atoms: O_1  and  C_13
REMARK    3  A    between atoms: O_2  and  C_12
REMARK    4  A    between atoms: C_5  and  C_10
REMARK    5  A    between atoms: C_10  and  C_12
REMARK    6  A    between atoms: C_13  and  C_14
REMARK    7  A    between atoms: C_13  and  C_15
REMARK    8  A    between atoms: C_14  and  C_16
REMARK                            x       y       z     vdW  Elec       q    Type
REMARK                         _______ _______ _______ _____ _____    ______ ____
ROOT
ATOM      1  O   UNL     1       1.555   6.922 -18.728  0.00  0.00    +0.000 OA
ATOM      2  N   UNL     1       2.041   5.016 -19.976  0.00  0.00    +0.000 N 
ATOM      3  C   UNL     1       2.995   4.284 -20.836  0.00  0.00    +0.000 C 
ATOM      4  C   UNL     1       2.854   2.765 -20.663  0.00  0.00    +0.000 C 
ATOM      5  C   UNL     1       1.407   2.289 -20.758  0.00  0.00    +0.000 C 
ATOM      6  C   UNL     1       0.534   3.055 -19.772  0.00  0.00    +0.000 C 
ATOM      7  C   UNL     1       0.649   4.559 -19.986  0.00  0.00    +0.000 C 
ATOM      8  C   UNL     1       2.367   6.209 -19.316  0.00  0.00    +0.000 C 
ATOM      9  H   UNL     1       4.015   4.538 -20.525  0.00  0.00    +0.000 HD
ATOM     10  H   UNL     1       3.243   2.490 -19.674  0.00  0.00    +0.000 HD
ATOM     11  H   UNL     1       3.470   2.235 -21.399  0.00  0.00    +0.000 HD
ATOM     12  H   UNL     1       1.358   1.216 -20.538  0.00  0.00    +0.000 HD
ATOM     13  H   UNL     1       1.029   2.423 -21.777  0.00  0.00    +0.000 HD
ATOM     14  H   UNL     1      -0.511   2.743 -19.878  0.00  0.00    +0.000 HD
ATOM     15  H   UNL     1       0.844   2.809 -18.749  0.00  0.00    +0.000 HD
ATOM     16  H   UNL     1       0.220   4.842 -20.955  0.00  0.00    +0.000 HD
ATOM     17  H   UNL     1       0.071   5.082 -19.217  0.00  0.00    +0.000 HD
ENDROOT
BRANCH   3  18
ATOM     18  C   UNL     1       2.850   4.719 -22.297  0.00  0.00    +0.000 C 
ATOM     19  H   UNL     1       1.993   5.391 -22.431  0.00  0.00    +0.000 HD
ATOM     20  H   UNL     1       2.640   3.847 -22.929  0.00  0.00    +0.000 HD
BRANCH  18  21
ATOM     21  C   UNL     1       4.101   5.415 -22.795  0.00  0.00    +0.000 C 
ATOM     22  H   UNL     1       5.014   4.971 -22.393  0.00  0.00    +0.000 HD
ATOM     23  H   UNL     1       4.160   5.423 -23.888  0.00  0.00    +0.000 HD
BRANCH  21  24
ATOM     24  O   UNL     1       4.081   6.759 -22.336  0.00  0.00    +0.000 OA
ATOM     25  H   UNL     1       3.276   6.876 -21.803  0.00  0.00    +0.000 HD
ENDBRANCH  21  24
ENDBRANCH  18  21
ENDBRANCH   3  18
BRANCH   8  26
ATOM     26  O   UNL     1       3.701   6.510 -19.395  0.00  0.00    +0.000 OA
BRANCH  26  27
ATOM     27  C   UNL     1       4.493   6.183 -18.247  0.00  0.00    +0.000 C 
ATOM     28  H   UNL     1       3.966   5.414 -17.668  0.00  0.00    +0.000 HD
BRANCH  27  29
ATOM     29  C   UNL     1       4.638   7.423 -17.378  0.00  0.00    +0.000 C 
ATOM     30  H   UNL     1       4.599   8.335 -17.984  0.00  0.00    +0.000 HD
ATOM     31  H   UNL     1       3.801   7.486 -16.673  0.00  0.00    +0.000 HD
ATOM     32  H   UNL     1       5.565   7.420 -16.800  0.00  0.00    +0.000 HD
ENDBRANCH  27  29
BRANCH  27  33
ATOM     33  C   UNL     1       5.858   5.669 -18.711  0.00  0.00    +0.000 C 
ATOM     34  H   UNL     1       5.809   5.268 -19.729  0.00  0.00    +0.000 HD
ATOM     35  H   UNL     1       6.577   6.497 -18.758  0.00  0.00    +0.000 HD
BRANCH  33  36
ATOM     36  C   UNL     1       6.397   4.568 -17.808  0.00  0.00    +0.000 C 
ATOM     37  H   UNL     1       7.266   4.077 -18.258  0.00  0.00    +0.000 HD
ATOM     38  H   UNL     1       5.638   3.811 -17.593  0.00  0.00    +0.000 HD
ATOM     39  H   UNL     1       6.710   4.993 -16.848  0.00  0.00    +0.000 HD
ENDBRANCH  33  36
ENDBRANCH  27  33
ENDBRANCH  26  27
ENDBRANCH   8  26
TORSDOF 8
ENDMDL
MODEL 7
REMARK VINA RESULT:    -4.588     21.306     23.413
REMARK INTER + INTRA:          -7.026
REMARK INTER:                  -6.582
REMARK INTRA:                  -0.444
REMARK UNBOUND:                -0.695
REMARK  Name = 125098
REMARK  8 active torsions:
REMARK  status: ('A' for Active; 'I' for Inactive)
REMARK    1  A    between atoms: O_1  and  C_11
REMARK    2  A    between atoms: O_1  and  C_13
REMARK    3  A    between atoms: O_2  and  C_12
REMARK    4  A    between atoms: C_5  and  C_10
REMARK    5  A    between atoms: C_10  and  C_12
REMARK    6  A    between atoms: C_13  and  C_14
REMARK    7  A    between atoms: C_13  and  C_15
REMARK    8  A    between atoms: C_14  and  C_16
REMARK                            x       y       z     vdW  Elec       q    Type
REMARK                         _______ _______ _______ _____ _____    ______ ____
ROOT
ATOM      1  O   UNL     1       3.433   6.235 -19.351  0.00  0.00    +0.000 OA
ATOM      2  N   UNL     1       2.238   4.515 -20.369  0.00  0.00    +0.000 N 
ATOM      3  C   UNL     1       2.191   3.449 -21.393  0.00  0.00    +0.000 C 
ATOM      4  C   UNL     1       1.308   2.277 -20.940  0.00  0.00    +0.000 C 
ATOM      5  C   UNL     1      -0.053   2.726 -20.418  0.00  0.00    +0.000 C 
ATOM      6  C   UNL     1       0.121   3.763 -19.315  0.00  0.00    +0.000 C 
ATOM      7  C   UNL     1       0.960   4.942 -19.793  0.00  0.00    +0.000 C 
ATOM      8  C   UNL     1       3.401   5.242 -20.075  0.00  0.00    +0.000 C 
ATOM      9  H   UNL     1       3.201   3.044 -21.524  0.00  0.00    +0.000 HD
ATOM     10  H   UNL     1       1.827   1.742 -20.134  0.00  0.00    +0.000 HD
ATOM     11  H   UNL     1       1.176   1.558 -21.757  0.00  0.00    +0.000 HD
ATOM     12  H   UNL     1      -0.602   1.861 -20.028  0.00  0.00    +0.000 HD
ATOM     13  H   UNL     1      -0.654   3.144 -21.233  0.00  0.00    +0.000 HD
ATOM     14  H   UNL     1      -0.859   4.117 -18.977  0.00  0.00    +0.000 HD
ATOM     15  H   UNL     1       0.610   3.294 -18.453  0.00  0.00    +0.000 HD
ATOM     16  H   UNL     1       0.424   5.504 -20.566  0.00  0.00    +0.000 HD
ATOM     17  H   UNL     1       1.130   5.630 -18.958  0.00  0.00    +0.000 HD
ENDROOT
BRANCH   3  18
ATOM     18  C   UNL     1       1.755   4.017 -22.746  0.00  0.00    +0.000 C 
ATOM     19  H   UNL     1       1.406   5.052 -22.651  0.00  0.00    +0.000 HD
ATOM     20  H   UNL     1       0.896   3.452 -23.131  0.00  0.00    +0.000 HD
BRANCH  18  21
ATOM     21  C   UNL     1       2.885   3.971 -23.756  0.00  0.00    +0.000 C 
ATOM     22  H   UNL     1       2.528   4.029 -24.786  0.00  0.00    +0.000 HD
ATOM     23  H   UNL     1       3.619   4.764 -23.587  0.00  0.00    +0.000 HD
BRANCH  21  24
ATOM     24  O   UNL     1       3.543   2.717 -23.636  0.00  0.00    +0.000 OA
ATOM     25  H   UNL     1       3.525   2.290 -24.509  0.00  0.00    +0.000 HD
ENDBRANCH  21  24
ENDBRANCH  18  21
ENDBRANCH   3  18
BRANCH   8  26
ATOM     26  O   UNL     1       4.513   4.729 -20.687  0.00  0.00    +0.000 OA
BRANCH  26  27
ATOM     27  C   UNL     1       5.770   5.024 -20.067  0.00  0.00    +0.000 C 
ATOM     28  H   UNL     1       5.727   6.044 -19.661  0.00  0.00    +0.000 HD
BRANCH  27  29
ATOM     29  C   UNL     1       6.865   4.973 -21.122  0.00  0.00    +0.000 C 
ATOM     30  H   UNL     1       6.462   5.185 -22.118  0.00  0.00    +0.000 HD
ATOM     31  H   UNL     1       7.615   5.747 -20.922  0.00  0.00    +0.000 HD
ATOM     32  H   UNL     1       7.377   4.008 -21.144  0.00  0.00    +0.000 HD
ENDBRANCH  27  29
BRANCH  27  33
ATOM     33  C   UNL     1       6.028   4.009 -18.951  0.00  0.00    +0.000 C 
ATOM     34  H   UNL     1       5.159   3.362 -18.791  0.00  0.00    +0.000 HD
ATOM     35  H   UNL     1       6.845   3.335 -19.236  0.00  0.00    +0.000 HD
BRANCH  33  36
ATOM     36  C   UNL     1       6.351   4.682 -17.623  0.00  0.00    +0.000 C 
ATOM     37  H   UNL     1       5.573   4.485 -16.880  0.00  0.00    +0.000 HD
ATOM     38  H   UNL     1       6.467   5.763 -17.733  0.00  0.00    +0.000 HD
ATOM     39  H   UNL     1       7.297   4.294 -17.231  0.00  0.00    +0.000 HD
ENDBRANCH  33  36
ENDBRANCH  27  33
ENDBRANCH  26  27
ENDBRANCH   8  26
TORSDOF 8
ENDMDL
MODEL 8
REMARK VINA RESULT:    -4.511     15.864     17.889
REMARK INTER + INTRA:          -6.920
REMARK INTER:                  -6.077
REMARK INTRA:                  -0.843
REMARK UNBOUND:                -0.695
REMARK  Name = 125098
REMARK  8 active torsions:
REMARK  status: ('A' for Active; 'I' for Inactive)
REMARK    1  A    between atoms: O_1  and  C_11
REMARK    2  A    between atoms: O_1  and  C_13
REMARK    3  A    between atoms: O_2  and  C_12
REMARK    4  A    between atoms: C_5  and  C_10
REMARK    5  A    between atoms: C_10  and  C_12
REMARK    6  A    between atoms: C_13  and  C_14
REMARK    7  A    between atoms: C_13  and  C_15
REMARK    8  A    between atoms: C_14  and  C_16
REMARK                            x       y       z     vdW  Elec       q    Type
REMARK                         _______ _______ _______ _____ _____    ______ ____
ROOT
ATOM      1  O   UNL     1      13.893  20.969 -13.825  0.00  0.00    +0.000 OA
ATOM      2  N   UNL     1      13.300  19.125 -12.532  0.00  0.00    +0.000 N 
ATOM      3  C   UNL     1      12.276  18.435 -11.717  0.00  0.00    +0.000 C 
ATOM      4  C   UNL     1      12.424  16.909 -11.807  0.00  0.00    +0.000 C 
ATOM      5  C   UNL     1      13.856  16.436 -11.575  0.00  0.00    +0.000 C 
ATOM      6  C   UNL     1      14.809  17.154 -12.523  0.00  0.00    +0.000 C 
ATOM      7  C   UNL     1      14.685  18.667 -12.389  0.00  0.00    +0.000 C 
ATOM      8  C   UNL     1      13.033  20.286 -13.271  0.00  0.00    +0.000 C 
ATOM      9  H   UNL     1      11.286  18.675 -12.120  0.00  0.00    +0.000 HD
ATOM     10  H   UNL     1      12.114  16.589 -12.810  0.00  0.00    +0.000 HD
ATOM     11  H   UNL     1      11.748  16.415 -11.098  0.00  0.00    +0.000 HD
ATOM     12  H   UNL     1      13.918  15.354 -11.740  0.00  0.00    +0.000 HD
ATOM     13  H   UNL     1      14.153  16.618 -10.537  0.00  0.00    +0.000 HD
ATOM     14  H   UNL     1      15.840  16.846 -12.320  0.00  0.00    +0.000 HD
ATOM     15  H   UNL     1      14.580  16.860 -13.555  0.00  0.00    +0.000 HD
ATOM     16  H   UNL     1      15.037  18.994 -11.404  0.00  0.00    +0.000 HD
ATOM     17  H   UNL     1      15.324  19.152 -13.134  0.00  0.00    +0.000 HD
ENDROOT
BRANCH   3  18
ATOM     18  C   UNL     1      12.308  18.938 -10.271  0.00  0.00    +0.000 C 
ATOM     19  H   UNL     1      13.185  19.568 -10.086  0.00  0.00    +0.000 HD
ATOM     20  H   UNL     1      12.404  18.090  -9.581  0.00  0.00    +0.000 HD
BRANCH  18  21
ATOM     21  C   UNL     1      11.057  19.726  -9.932  0.00  0.00    +0.000 C 
ATOM     22  H   UNL     1      10.553  19.347  -9.042  0.00  0.00    +0.000 HD
ATOM     23  H   UNL     1      11.268  20.791  -9.797  0.00  0.00    +0.000 HD
BRANCH  21  24
ATOM     24  O   UNL     1      10.133  19.583 -11.001  0.00  0.00    +0.000 OA
ATOM     25  H   UNL     1      10.499  20.050 -11.772  0.00  0.00    +0.000 HD
ENDBRANCH  21  24
ENDBRANCH  18  21
ENDBRANCH   3  18
BRANCH   8  26
ATOM     26  O   UNL     1      11.698  20.591 -13.313  0.00  0.00    +0.000 OA
BRANCH  26  27
ATOM     27  C   UNL     1      11.370  21.969 -13.524  0.00  0.00    +0.000 C 
ATOM     28  H   UNL     1      12.165  22.427 -14.127  0.00  0.00    +0.000 HD
BRANCH  27  29
ATOM     29  C   UNL     1      11.321  22.676 -12.177  0.00  0.00    +0.000 C 
ATOM     30  H   UNL     1      11.559  23.741 -12.283  0.00  0.00    +0.000 HD
ATOM     31  H   UNL     1      10.307  22.626 -11.764  0.00  0.00    +0.000 HD
ATOM     32  H   UNL     1      12.003  22.231 -11.448  0.00  0.00    +0.000 HD
ENDBRANCH  27  29
BRANCH  27  33
ATOM     33  C   UNL     1      10.024  22.058 -14.246  0.00  0.00    +0.000 C 
ATOM     34  H   UNL     1       9.951  22.973 -14.843  0.00  0.00    +0.000 HD
ATOM     35  H   UNL     1       9.924  21.233 -14.962  0.00  0.00    +0.000 HD
BRANCH  33  36
ATOM     36  C   UNL     1       8.848  22.045 -13.278  0.00  0.00    +0.000 C 
ATOM     37  H   UNL     1       9.020  21.344 -12.456  0.00  0.00    +0.000 HD
ATOM     38  H   UNL     1       7.913  21.779 -13.778  0.00  0.00    +0.000 HD
ATOM     39  H   UNL     1       8.711  23.042 -12.846  0.00  0.00    +0.000 HD
ENDBRANCH  33  36
ENDBRANCH  27  33
ENDBRANCH  26  27
ENDBRANCH   8  26
TORSDOF 8
ENDMDL
MODEL 9
REMARK VINA RESULT:    -4.505     14.801     16.743
REMARK INTER + INTRA:          -6.912
REMARK INTER:                  -6.218
REMARK INTRA:                  -0.695
REMARK UNBOUND:                -0.695
REMARK  Name = 125098
REMARK  8 active torsions:
REMARK  status: ('A' for Active; 'I' for Inactive)
REMARK    1  A    between atoms: O_1  and  C_11
REMARK    2  A    between atoms: O_1  and  C_13
REMARK    3  A    between atoms: O_2  and  C_12
REMARK    4  A    between atoms: C_5  and  C_10
REMARK    5  A    between atoms: C_10  and  C_12
REMARK    6  A    between atoms: C_13  and  C_14
REMARK    7  A    between atoms: C_13  and  C_15
REMARK    8  A    between atoms: C_14  and  C_16
REMARK                            x       y       z     vdW  Elec       q    Type
REMARK                         _______ _______ _______ _____ _____    ______ ____
ROOT
ATOM      1  O   UNL     1      14.676  20.138 -13.846  0.00  0.00    +0.000 OA
ATOM      2  N   UNL     1      13.292  19.312 -12.165  0.00  0.00    +0.000 N 
ATOM      3  C   UNL     1      13.024  18.264 -11.157  0.00  0.00    +0.000 C 
ATOM      4  C   UNL     1      12.270  18.832  -9.946  0.00  0.00    +0.000 C 
ATOM      5  C   UNL     1      11.057  19.670 -10.340  0.00  0.00    +0.000 C 
ATOM      6  C   UNL     1      11.468  20.765 -11.316  0.00  0.00    +0.000 C 
ATOM      7  C   UNL     1      12.173  20.183 -12.536  0.00  0.00    +0.000 C 
ATOM      8  C   UNL     1      14.488  19.382 -12.894  0.00  0.00    +0.000 C 
ATOM      9  H   UNL     1      13.981  17.887 -10.778  0.00  0.00    +0.000 HD
ATOM     10  H   UNL     1      12.959  19.469  -9.376  0.00  0.00    +0.000 HD
ATOM     11  H   UNL     1      11.962  18.024  -9.271  0.00  0.00    +0.000 HD
ATOM     12  H   UNL     1      10.614  20.120  -9.445  0.00  0.00    +0.000 HD
ATOM     13  H   UNL     1      10.288  19.035 -10.792  0.00  0.00    +0.000 HD
ATOM     14  H   UNL     1      10.587  21.333 -11.633  0.00  0.00    +0.000 HD
ATOM     15  H   UNL     1      12.141  21.467 -10.808  0.00  0.00    +0.000 HD
ATOM     16  H   UNL     1      11.476  19.582 -13.130  0.00  0.00    +0.000 HD
ATOM     17  H   UNL     1      12.522  20.997 -13.178  0.00  0.00    +0.000 HD
ENDROOT
BRANCH   3  18
ATOM     18  C   UNL     1      12.294  17.077 -11.793  0.00  0.00    +0.000 C 
ATOM     19  H   UNL     1      12.098  17.252 -12.857  0.00  0.00    +0.000 HD
ATOM     20  H   UNL     1      11.306  16.952 -11.329  0.00  0.00    +0.000 HD
BRANCH  18  21
ATOM     21  C   UNL     1      13.088  15.794 -11.644  0.00  0.00    +0.000 C 
ATOM     22  H   UNL     1      13.672  15.769 -10.722  0.00  0.00    +0.000 HD
ATOM     23  H   UNL     1      12.448  14.908 -11.685  0.00  0.00    +0.000 HD
BRANCH  21  24
ATOM     24  O   UNL     1      14.026  15.721 -12.709  0.00  0.00    +0.000 OA
ATOM     25  H   UNL     1      14.905  15.915 -12.341  0.00  0.00    +0.000 HD
ENDBRANCH  21  24
ENDBRANCH  18  21
ENDBRANCH   3  18
BRANCH   8  26
ATOM     26  O   UNL     1      15.438  18.508 -12.437  0.00  0.00    +0.000 OA
BRANCH  26  27
ATOM     27  C   UNL     1      16.697  19.081 -12.064  0.00  0.00    +0.000 C 
ATOM     28  H   UNL     1      17.069  19.682 -12.904  0.00  0.00    +0.000 HD
BRANCH  27  29
ATOM     29  C   UNL     1      17.691  17.958 -11.800  0.00  0.00    +0.000 C 
ATOM     30  H   UNL     1      17.247  17.180 -11.170  0.00  0.00    +0.000 HD
ATOM     31  H   UNL     1      17.966  17.472 -12.743  0.00  0.00    +0.000 HD
ATOM     32  H   UNL     1      18.608  18.318 -11.328  0.00  0.00    +0.000 HD
ENDBRANCH  27  29
BRANCH  27  33
ATOM     33  C   UNL     1      16.502  19.951 -10.820  0.00  0.00    +0.000 C 
ATOM     34  H   UNL     1      15.441  20.055 -10.569  0.00  0.00    +0.000 HD
ATOM     35  H   UNL     1      16.963  19.471  -9.948  0.00  0.00    +0.000 HD
BRANCH  33  36
ATOM     36  C   UNL     1      17.072  21.351 -11.001  0.00  0.00    +0.000 C 
ATOM     37  H   UNL     1      17.598  21.684 -10.100  0.00  0.00    +0.000 HD
ATOM     38  H   UNL     1      16.293  22.079 -11.242  0.00  0.00    +0.000 HD
ATOM     39  H   UNL     1      17.788  21.358 -11.830  0.00  0.00    +0.000 HD
ENDBRANCH  33  36
ENDBRANCH  27  33
ENDBRANCH  26  27
ENDBRANCH   8  26
TORSDOF 8
ENDMDL
MODEL 10
REMARK VINA RESULT:    -4.484     22.579     24.934
REMARK INTER + INTRA:          -6.883
REMARK INTER:                  -5.937
REMARK INTRA:                  -0.945
REMARK UNBOUND:                -0.695
REMARK  Name = 125098
REMARK  8 active torsions:
REMARK  status: ('A' for Active; 'I' for Inactive)
REMARK    1  A    between atoms: O_1  and  C_11
REMARK    2  A    between atoms: O_1  and  C_13
REMARK    3  A    between atoms: O_2  and  C_12
REMARK    4  A    between atoms: C_5  and  C_10
REMARK    5  A    between atoms: C_10  and  C_12
REMARK    6  A    between atoms: C_13  and  C_14
REMARK    7  A    between atoms: C_13  and  C_15
REMARK    8  A    between atoms: C_14  and  C_16
REMARK                            x       y       z     vdW  Elec       q    Type
REMARK                         _______ _______ _______ _____ _____    ______ ____
ROOT
ATOM      1  O   UNL     1       2.959   1.885 -19.952  0.00  0.00    +0.000 OA
ATOM      2  N   UNL     1       3.340   3.941 -20.979  0.00  0.00    +0.000 N 
ATOM      3  C   UNL     1       3.156   4.812 -22.159  0.00  0.00    +0.000 C 
ATOM      4  C   UNL     1       3.097   6.294 -21.758  0.00  0.00    +0.000 C 
ATOM      5  C   UNL     1       4.235   6.703 -20.829  0.00  0.00    +0.000 C 
ATOM      6  C   UNL     1       4.277   5.788 -19.611  0.00  0.00    +0.000 C 
ATOM      7  C   UNL     1       4.383   4.324 -20.024  0.00  0.00    +0.000 C 
ATOM      8  C   UNL     1       2.703   2.699 -20.838  0.00  0.00    +0.000 C 
ATOM      9  H   UNL     1       2.190   4.577 -22.622  0.00  0.00    +0.000 HD
ATOM     10  H   UNL     1       2.146   6.475 -21.239  0.00  0.00    +0.000 HD
ATOM     11  H   UNL     1       3.093   6.933 -22.649  0.00  0.00    +0.000 HD
ATOM     12  H   UNL     1       4.091   7.741 -20.506  0.00  0.00    +0.000 HD
ATOM     13  H   UNL     1       5.192   6.664 -21.360  0.00  0.00    +0.000 HD
ATOM     14  H   UNL     1       5.125   6.056 -18.971  0.00  0.00    +0.000 HD
ATOM     15  H   UNL     1       3.366   5.933 -19.018  0.00  0.00    +0.000 HD
ATOM     16  H   UNL     1       5.351   4.131 -20.502  0.00  0.00    +0.000 HD
ATOM     17  H   UNL     1       4.335   3.690 -19.133  0.00  0.00    +0.000 HD
ENDROOT
BRANCH   3  18
ATOM     18  C   UNL     1       4.236   4.537 -23.209  0.00  0.00    +0.000 C 
ATOM     19  H   UNL     1       4.967   3.804 -22.847  0.00  0.00    +0.000 HD
ATOM     20  H   UNL     1       4.810   5.451 -23.405  0.00  0.00    +0.000 HD
BRANCH  18  21
ATOM     21  C   UNL     1       3.633   4.030 -24.504  0.00  0.00    +0.000 C 
ATOM     22  H   UNL     1       3.640   4.786 -25.292  0.00  0.00    +0.000 HD
ATOM     23  H   UNL     1       4.139   3.131 -24.868  0.00  0.00    +0.000 HD
BRANCH  21  24
ATOM     24  O   UNL     1       2.268   3.714 -24.270  0.00  0.00    +0.000 OA
ATOM     25  H   UNL     1       1.834   4.515 -23.932  0.00  0.00    +0.000 HD
ENDBRANCH  21  24
ENDBRANCH  18  21
ENDBRANCH   3  18
BRANCH   8  26
ATOM     26  O   UNL     1       1.758   2.478 -21.804  0.00  0.00    +0.000 OA
BRANCH  26  27
ATOM     27  C   UNL     1       0.430   2.207 -21.339  0.00  0.00    +0.000 C 
ATOM     28  H   UNL     1       0.497   1.562 -20.453  0.00  0.00    +0.000 HD
BRANCH  27  29
ATOM     29  C   UNL     1      -0.329   1.456 -22.424  0.00  0.00    +0.000 C 
ATOM     30  H   UNL     1      -0.514   2.099 -23.291  0.00  0.00    +0.000 HD
ATOM     31  H   UNL     1       0.272   0.614 -22.787  0.00  0.00    +0.000 HD
ATOM     32  H   UNL     1      -1.282   1.059 -22.066  0.00  0.00    +0.000 HD
ENDBRANCH  27  29
BRANCH  27  33
ATOM     33  C   UNL     1      -0.260   3.529 -20.996  0.00  0.00    +0.000 C 
ATOM     34  H   UNL     1      -1.192   3.362 -20.447  0.00  0.00    +0.000 HD
ATOM     35  H   UNL     1       0.373   4.121 -20.322  0.00  0.00    +0.000 HD
BRANCH  33  36
ATOM     36  C   UNL     1      -0.596   4.344 -22.237  0.00  0.00    +0.000 C 
ATOM     37  H   UNL     1      -1.590   4.794 -22.158  0.00  0.00    +0.000 HD
ATOM     38  H   UNL     1      -0.556   3.736 -23.145  0.00  0.00    +0.000 HD
ATOM     39  H   UNL     1       0.132   5.154 -22.359  0.00  0.00    +0.000 HD
ENDBRANCH  33  36
ENDBRANCH  27  33
ENDBRANCH  26  27
ENDBRANCH   8  26
TORSDOF 8
ENDMDL
