MODEL 1
REMARK VINA RESULT:    -5.721      0.000      0.000
REMARK INTER + INTRA:          -7.146
REMARK INTER:                  -6.911
REMARK INTRA:                  -0.235
REMARK UNBOUND:                -0.254
REMARK  Name = 62098
REMARK  4 active torsions:
REMARK  status: ('A' for Active; 'I' for Inactive)
REMARK    1  A    between atoms: C_4  and  C_5
REMARK    2  A    between atoms: C_4  and  C_6
REMARK    3  A    between atoms: C_6  and  C_13
REMARK    4  A    between atoms: C_13  and  C_14
REMARK                            x       y       z     vdW  Elec       q    Type
REMARK                         _______ _______ _______ _____ _____    ______ ____
ROOT
ATOM      1  O   UNL     1       1.240  -1.171  -9.013  0.00  0.00    +0.000 OA
ATOM      2  O   UNL     1      -0.823  -0.575  -7.920  0.00  0.00    +0.000 OA
ATOM      3  C   UNL     1       0.372  -4.496  -7.729  0.00  0.00    +0.000 A 
ATOM      4  C   UNL     1       0.644  -2.238  -8.414  0.00  0.00    +0.000 A 
ATOM      5  C   UNL     1       1.125  -3.532  -8.401  0.00  0.00    +0.000 A 
ATOM      6  C   UNL     1      -0.533  -1.897  -7.789  0.00  0.00    +0.000 A 
ATOM      7  C   UNL     1      -0.832  -4.148  -7.091  0.00  0.00    +0.000 A 
ATOM      8  C   UNL     1      -1.295  -2.831  -7.119  0.00  0.00    +0.000 A 
ATOM      9  C   UNL     1       0.303  -0.120  -8.696  0.00  0.00    +0.000 C 
ATOM     10  H   UNL     1       2.055  -3.784  -8.901  0.00  0.00    +0.000 HD
ATOM     11  H   UNL     1      -1.416  -4.904  -6.571  0.00  0.00    +0.000 HD
ATOM     12  H   UNL     1      -2.223  -2.558  -6.628  0.00  0.00    +0.000 HD
ATOM     13  H   UNL     1      -0.067   0.314  -9.632  0.00  0.00    +0.000 HD
ATOM     14  H   UNL     1       0.829   0.659  -8.132  0.00  0.00    +0.000 HD
ENDROOT
BRANCH   3  15
ATOM     15  C   UNL     1       0.847  -5.910  -7.687  0.00  0.00    +0.000 C 
ATOM     16  H   UNL     1       1.008  -6.218  -6.646  0.00  0.00    +0.000 HD
ATOM     17  H   UNL     1       0.060  -6.578  -8.064  0.00  0.00    +0.000 HD
BRANCH  15  18
ATOM     18  C   UNL     1       2.134  -6.114  -8.495  0.00  0.00    +0.000 C 
ATOM     19  H   UNL     1       2.459  -5.163  -8.933  0.00  0.00    +0.000 HD
ATOM     20  H   UNL     1       1.953  -6.821  -9.314  0.00  0.00    +0.000 HD
BRANCH  18  22
ATOM     21  O   UNL     1       3.372  -6.464  -6.448  0.00  0.00    +0.000 OA
ATOM     22  C   UNL     1       3.280  -6.657  -7.659  0.00  0.00    +0.000 C 
BRANCH  22  23
ATOM     23  C   UNL     1       4.321  -7.455  -8.400  0.00  0.00    +0.000 C 
ATOM     24  H   UNL     1       3.926  -7.767  -9.371  0.00  0.00    +0.000 HD
ATOM     25  H   UNL     1       5.208  -6.839  -8.561  0.00  0.00    +0.000 HD
ATOM     26  H   UNL     1       4.580  -8.346  -7.821  0.00  0.00    +0.000 HD
ENDBRANCH  22  23
ENDBRANCH  18  22
ENDBRANCH  15  18
ENDBRANCH   3  15
TORSDOF 4
ENDMDL
MODEL 2
REMARK VINA RESULT:    -5.509     34.193     35.493
REMARK INTER + INTRA:          -6.890
REMARK INTER:                  -6.674
REMARK INTRA:                  -0.217
REMARK UNBOUND:                -0.254
REMARK  Name = 62098
REMARK  4 active torsions:
REMARK  status: ('A' for Active; 'I' for Inactive)
REMARK    1  A    between atoms: C_4  and  C_5
REMARK    2  A    between atoms: C_4  and  C_6
REMARK    3  A    between atoms: C_6  and  C_13
REMARK    4  A    between atoms: C_13  and  C_14
REMARK                            x       y       z     vdW  Elec       q    Type
REMARK                         _______ _______ _______ _____ _____    ______ ____
ROOT
ATOM      1  O   UNL     1      -4.297   4.741  28.716  0.00  0.00    +0.000 OA
ATOM      2  O   UNL     1      -6.460   4.141  27.839  0.00  0.00    +0.000 OA
ATOM      3  C   UNL     1      -3.509   5.088  25.149  0.00  0.00    +0.000 A 
ATOM      4  C   UNL     1      -4.333   4.777  27.356  0.00  0.00    +0.000 A 
ATOM      5  C   UNL     1      -3.281   5.110  26.527  0.00  0.00    +0.000 A 
ATOM      6  C   UNL     1      -5.568   4.434  26.856  0.00  0.00    +0.000 A 
ATOM      7  C   UNL     1      -4.771   4.738  24.638  0.00  0.00    +0.000 A 
ATOM      8  C   UNL     1      -5.819   4.405  25.499  0.00  0.00    +0.000 A 
ATOM      9  C   UNL     1      -5.650   4.337  29.015  0.00  0.00    +0.000 C 
ATOM     10  H   UNL     1      -2.313   5.381  26.937  0.00  0.00    +0.000 HD
ATOM     11  H   UNL     1      -4.943   4.725  23.565  0.00  0.00    +0.000 HD
ATOM     12  H   UNL     1      -6.793   4.134  25.110  0.00  0.00    +0.000 HD
ATOM     13  H   UNL     1      -6.116   5.109  29.639  0.00  0.00    +0.000 HD
ATOM     14  H   UNL     1      -5.618   3.400  29.582  0.00  0.00    +0.000 HD
ENDROOT
BRANCH   3  15
ATOM     15  C   UNL     1      -2.404   5.441  24.210  0.00  0.00    +0.000 C 
ATOM     16  H   UNL     1      -1.806   4.548  23.988  0.00  0.00    +0.000 HD
ATOM     17  H   UNL     1      -2.823   5.752  23.244  0.00  0.00    +0.000 HD
BRANCH  15  18
ATOM     18  C   UNL     1      -1.500   6.547  24.766  0.00  0.00    +0.000 C 
ATOM     19  H   UNL     1      -0.728   6.113  25.414  0.00  0.00    +0.000 HD
ATOM     20  H   UNL     1      -2.093   7.248  25.367  0.00  0.00    +0.000 HD
BRANCH  18  22
ATOM     21  O   UNL     1       0.422   7.468  23.625  0.00  0.00    +0.000 OA
ATOM     22  C   UNL     1      -0.801   7.345  23.680  0.00  0.00    +0.000 C 
BRANCH  22  23
ATOM     23  C   UNL     1      -1.694   7.995  22.655  0.00  0.00    +0.000 C 
ATOM     24  H   UNL     1      -2.080   7.237  21.968  0.00  0.00    +0.000 HD
ATOM     25  H   UNL     1      -2.535   8.479  23.156  0.00  0.00    +0.000 HD
ATOM     26  H   UNL     1      -1.121   8.730  22.084  0.00  0.00    +0.000 HD
ENDBRANCH  22  23
ENDBRANCH  18  22
ENDBRANCH  15  18
ENDBRANCH   3  15
TORSDOF 4
ENDMDL
MODEL 3
REMARK VINA RESULT:    -5.427     16.501     18.445
REMARK INTER + INTRA:          -6.791
REMARK INTER:                  -6.405
REMARK INTRA:                  -0.385
REMARK UNBOUND:                -0.254
REMARK  Name = 62098
REMARK  4 active torsions:
REMARK  status: ('A' for Active; 'I' for Inactive)
REMARK    1  A    between atoms: C_4  and  C_5
REMARK    2  A    between atoms: C_4  and  C_6
REMARK    3  A    between atoms: C_6  and  C_13
REMARK    4  A    between atoms: C_13  and  C_14
REMARK                            x       y       z     vdW  Elec       q    Type
REMARK                         _______ _______ _______ _____ _____    ______ ____
ROOT
ATOM      1  O   UNL     1      20.684  -4.258  -2.830  0.00  0.00    +0.000 OA
ATOM      2  O   UNL     1      20.853  -5.838  -4.642  0.00  0.00    +0.000 OA
ATOM      3  C   UNL     1      17.152  -5.241  -2.972  0.00  0.00    +0.000 A 
ATOM      4  C   UNL     1      19.485  -4.825  -3.136  0.00  0.00    +0.000 A 
ATOM      5  C   UNL     1      18.282  -4.559  -2.515  0.00  0.00    +0.000 A 
ATOM      6  C   UNL     1      19.582  -5.726  -4.171  0.00  0.00    +0.000 A 
ATOM      7  C   UNL     1      17.250  -6.162  -4.029  0.00  0.00    +0.000 A 
ATOM      8  C   UNL     1      18.481  -6.412  -4.641  0.00  0.00    +0.000 A 
ATOM      9  C   UNL     1      21.547  -4.906  -3.788  0.00  0.00    +0.000 C 
ATOM     10  H   UNL     1      18.223  -3.846  -1.699  0.00  0.00    +0.000 HD
ATOM     11  H   UNL     1      16.368  -6.692  -4.379  0.00  0.00    +0.000 HD
ATOM     12  H   UNL     1      18.562  -7.122  -5.456  0.00  0.00    +0.000 HD
ATOM     13  H   UNL     1      22.332  -5.444  -3.245  0.00  0.00    +0.000 HD
ATOM     14  H   UNL     1      22.015  -4.137  -4.414  0.00  0.00    +0.000 HD
ENDROOT
BRANCH   3  15
ATOM     15  C   UNL     1      15.827  -4.990  -2.332  0.00  0.00    +0.000 C 
ATOM     16  H   UNL     1      15.915  -4.174  -1.603  0.00  0.00    +0.000 HD
ATOM     17  H   UNL     1      15.114  -4.627  -3.084  0.00  0.00    +0.000 HD
BRANCH  15  18
ATOM     18  C   UNL     1      15.267  -6.242  -1.646  0.00  0.00    +0.000 C 
ATOM     19  H   UNL     1      15.373  -7.112  -2.305  0.00  0.00    +0.000 HD
ATOM     20  H   UNL     1      14.200  -6.106  -1.433  0.00  0.00    +0.000 HD
BRANCH  18  22
ATOM     21  O   UNL     1      16.704  -7.536  -0.195  0.00  0.00    +0.000 OA
ATOM     22  C   UNL     1      15.963  -6.563  -0.336  0.00  0.00    +0.000 C 
BRANCH  22  23
ATOM     23  C   UNL     1      15.697  -5.618   0.806  0.00  0.00    +0.000 C 
ATOM     24  H   UNL     1      14.816  -5.010   0.585  0.00  0.00    +0.000 HD
ATOM     25  H   UNL     1      15.511  -6.189   1.719  0.00  0.00    +0.000 HD
ATOM     26  H   UNL     1      16.557  -4.957   0.943  0.00  0.00    +0.000 HD
ENDBRANCH  22  23
ENDBRANCH  18  22
ENDBRANCH  15  18
ENDBRANCH   3  15
TORSDOF 4
ENDMDL
MODEL 4
REMARK VINA RESULT:    -5.364     34.174     35.461
REMARK INTER + INTRA:          -6.715
REMARK INTER:                  -6.471
REMARK INTRA:                  -0.244
REMARK UNBOUND:                -0.254
REMARK  Name = 62098
REMARK  4 active torsions:
REMARK  status: ('A' for Active; 'I' for Inactive)
REMARK    1  A    between atoms: C_4  and  C_5
REMARK    2  A    between atoms: C_4  and  C_6
REMARK    3  A    between atoms: C_6  and  C_13
REMARK    4  A    between atoms: C_13  and  C_14
REMARK                            x       y       z     vdW  Elec       q    Type
REMARK                         _______ _______ _______ _____ _____    ______ ____
ROOT
ATOM      1  O   UNL     1      -1.362   6.392  22.867  0.00  0.00    +0.000 OA
ATOM      2  O   UNL     1      -0.174   7.486  24.656  0.00  0.00    +0.000 OA
ATOM      3  C   UNL     1      -3.300   5.026  25.666  0.00  0.00    +0.000 A 
ATOM      4  C   UNL     1      -1.865   6.076  24.091  0.00  0.00    +0.000 A 
ATOM      5  C   UNL     1      -2.928   5.231  24.336  0.00  0.00    +0.000 A 
ATOM      6  C   UNL     1      -1.186   6.700  25.112  0.00  0.00    +0.000 A 
ATOM      7  C   UNL     1      -2.607   5.663  26.710  0.00  0.00    +0.000 A 
ATOM      8  C   UNL     1      -1.534   6.514  26.434  0.00  0.00    +0.000 A 
ATOM      9  C   UNL     1      -0.290   7.287  23.232  0.00  0.00    +0.000 C 
ATOM     10  H   UNL     1      -3.455   4.748  23.519  0.00  0.00    +0.000 HD
ATOM     11  H   UNL     1      -2.902   5.502  27.744  0.00  0.00    +0.000 HD
ATOM     12  H   UNL     1      -0.996   7.008  27.236  0.00  0.00    +0.000 HD
ATOM     13  H   UNL     1      -0.466   8.258  22.755  0.00  0.00    +0.000 HD
ATOM     14  H   UNL     1       0.653   6.876  22.856  0.00  0.00    +0.000 HD
ENDROOT
BRANCH   3  15
ATOM     15  C   UNL     1      -4.445   4.123  25.984  0.00  0.00    +0.000 C 
ATOM     16  H   UNL     1      -4.675   3.494  25.114  0.00  0.00    +0.000 HD
ATOM     17  H   UNL     1      -4.154   3.419  26.776  0.00  0.00    +0.000 HD
BRANCH  15  18
ATOM     18  C   UNL     1      -5.696   4.898  26.411  0.00  0.00    +0.000 C 
ATOM     19  H   UNL     1      -6.524   4.686  25.723  0.00  0.00    +0.000 HD
ATOM     20  H   UNL     1      -5.497   5.977  26.379  0.00  0.00    +0.000 HD
BRANCH  18  22
ATOM     21  O   UNL     1      -6.093   3.417  28.279  0.00  0.00    +0.000 OA
ATOM     22  C   UNL     1      -6.159   4.554  27.815  0.00  0.00    +0.000 C 
BRANCH  22  23
ATOM     23  C   UNL     1      -6.716   5.694  28.628  0.00  0.00    +0.000 C 
ATOM     24  H   UNL     1      -7.396   5.305  29.392  0.00  0.00    +0.000 HD
ATOM     25  H   UNL     1      -5.900   6.226  29.121  0.00  0.00    +0.000 HD
ATOM     26  H   UNL     1      -7.270   6.373  27.975  0.00  0.00    +0.000 HD
ENDBRANCH  22  23
ENDBRANCH  18  22
ENDBRANCH  15  18
ENDBRANCH   3  15
TORSDOF 4
ENDMDL
MODEL 5
REMARK VINA RESULT:    -5.254     18.446     19.926
REMARK INTER + INTRA:          -6.583
REMARK INTER:                  -6.312
REMARK INTRA:                  -0.270
REMARK UNBOUND:                -0.254
REMARK  Name = 62098
REMARK  4 active torsions:
REMARK  status: ('A' for Active; 'I' for Inactive)
REMARK    1  A    between atoms: C_4  and  C_5
REMARK    2  A    between atoms: C_4  and  C_6
REMARK    3  A    between atoms: C_6  and  C_13
REMARK    4  A    between atoms: C_13  and  C_14
REMARK                            x       y       z     vdW  Elec       q    Type
REMARK                         _______ _______ _______ _____ _____    ______ ____
ROOT
ATOM      1  O   UNL     1      -7.255 -15.757   2.333  0.00  0.00    +0.000 OA
ATOM      2  O   UNL     1      -7.202 -13.358   2.109  0.00  0.00    +0.000 OA
ATOM      3  C   UNL     1      -7.984 -14.909   5.828  0.00  0.00    +0.000 A 
ATOM      4  C   UNL     1      -7.501 -15.122   3.511  0.00  0.00    +0.000 A 
ATOM      5  C   UNL     1      -7.755 -15.732   4.722  0.00  0.00    +0.000 A 
ATOM      6  C   UNL     1      -7.470 -13.752   3.383  0.00  0.00    +0.000 A 
ATOM      7  C   UNL     1      -7.952 -13.510   5.697  0.00  0.00    +0.000 A 
ATOM      8  C   UNL     1      -7.692 -12.918   4.459  0.00  0.00    +0.000 A 
ATOM      9  C   UNL     1      -7.067 -14.633   1.449  0.00  0.00    +0.000 C 
ATOM     10  H   UNL     1      -7.778 -16.814   4.806  0.00  0.00    +0.000 HD
ATOM     11  H   UNL     1      -8.133 -12.874   6.561  0.00  0.00    +0.000 HD
ATOM     12  H   UNL     1      -7.667 -11.839   4.354  0.00  0.00    +0.000 HD
ATOM     13  H   UNL     1      -7.808 -14.691   0.644  0.00  0.00    +0.000 HD
ATOM     14  H   UNL     1      -6.065 -14.697   1.009  0.00  0.00    +0.000 HD
ENDROOT
BRANCH   3  15
ATOM     15  C   UNL     1      -8.265 -15.520   7.160  0.00  0.00    +0.000 C 
ATOM     16  H   UNL     1      -7.330 -15.618   7.728  0.00  0.00    +0.000 HD
ATOM     17  H   UNL     1      -8.891 -14.842   7.755  0.00  0.00    +0.000 HD
BRANCH  15  18
ATOM     18  C   UNL     1      -8.946 -16.888   7.040  0.00  0.00    +0.000 C 
ATOM     19  H   UNL     1      -8.728 -17.333   6.061  0.00  0.00    +0.000 HD
ATOM     20  H   UNL     1     -10.034 -16.773   7.125  0.00  0.00    +0.000 HD
BRANCH  18  22
ATOM     21  O   UNL     1      -9.188 -18.149   9.088  0.00  0.00    +0.000 OA
ATOM     22  C   UNL     1      -8.499 -17.870   8.108  0.00  0.00    +0.000 C 
BRANCH  22  23
ATOM     23  C   UNL     1      -7.144 -18.497   7.907  0.00  0.00    +0.000 C 
ATOM     24  H   UNL     1      -7.033 -18.812   6.866  0.00  0.00    +0.000 HD
ATOM     25  H   UNL     1      -6.365 -17.767   8.140  0.00  0.00    +0.000 HD
ATOM     26  H   UNL     1      -7.046 -19.373   8.554  0.00  0.00    +0.000 HD
ENDBRANCH  22  23
ENDBRANCH  18  22
ENDBRANCH  15  18
ENDBRANCH   3  15
TORSDOF 4
ENDMDL
MODEL 6
REMARK VINA RESULT:    -5.196     24.987     26.578
REMARK INTER + INTRA:          -6.513
REMARK INTER:                  -6.214
REMARK INTRA:                  -0.299
REMARK UNBOUND:                -0.254
REMARK  Name = 62098
REMARK  4 active torsions:
REMARK  status: ('A' for Active; 'I' for Inactive)
REMARK    1  A    between atoms: C_4  and  C_5
REMARK    2  A    between atoms: C_4  and  C_6
REMARK    3  A    between atoms: C_6  and  C_13
REMARK    4  A    between atoms: C_13  and  C_14
REMARK                            x       y       z     vdW  Elec       q    Type
REMARK                         _______ _______ _______ _____ _____    ______ ____
ROOT
ATOM      1  O   UNL     1      16.681  16.824 -13.874  0.00  0.00    +0.000 OA
ATOM      2  O   UNL     1      18.154  17.965 -12.346  0.00  0.00    +0.000 OA
ATOM      3  C   UNL     1      14.178  17.740 -11.354  0.00  0.00    +0.000 A 
ATOM      4  C   UNL     1      16.024  17.305 -12.784  0.00  0.00    +0.000 A 
ATOM      5  C   UNL     1      14.673  17.180 -12.533  0.00  0.00    +0.000 A 
ATOM      6  C   UNL     1      16.865  17.956 -11.911  0.00  0.00    +0.000 A 
ATOM      7  C   UNL     1      15.037  18.406 -10.462  0.00  0.00    +0.000 A 
ATOM      8  C   UNL     1      16.401  18.518 -10.740  0.00  0.00    +0.000 A 
ATOM      9  C   UNL     1      18.031  17.247 -13.590  0.00  0.00    +0.000 C 
ATOM     10  H   UNL     1      14.023  16.665 -13.233  0.00  0.00    +0.000 HD
ATOM     11  H   UNL     1      14.645  18.842  -9.546  0.00  0.00    +0.000 HD
ATOM     12  H   UNL     1      17.067  19.031 -10.055  0.00  0.00    +0.000 HD
ATOM     13  H   UNL     1      18.375  17.894 -14.405  0.00  0.00    +0.000 HD
ATOM     14  H   UNL     1      18.675  16.360 -13.549  0.00  0.00    +0.000 HD
ENDROOT
BRANCH   3  15
ATOM     15  C   UNL     1      12.724  17.633 -11.037  0.00  0.00    +0.000 C 
ATOM     16  H   UNL     1      12.137  17.675 -11.964  0.00  0.00    +0.000 HD
ATOM     17  H   UNL     1      12.509  16.646 -10.607  0.00  0.00    +0.000 HD
BRANCH  15  18
ATOM     18  C   UNL     1      12.256  18.732 -10.075  0.00  0.00    +0.000 C 
ATOM     19  H   UNL     1      13.031  19.503  -9.978  0.00  0.00    +0.000 HD
ATOM     20  H   UNL     1      12.075  18.307  -9.081  0.00  0.00    +0.000 HD
BRANCH  18  22
ATOM     21  O   UNL     1      10.158  19.884  -9.741  0.00  0.00    +0.000 OA
ATOM     22  C   UNL     1      10.977  19.414 -10.528  0.00  0.00    +0.000 C 
BRANCH  22  23
ATOM     23  C   UNL     1      10.754  19.484 -12.017  0.00  0.00    +0.000 C 
ATOM     24  H   UNL     1      10.798  18.479 -12.445  0.00  0.00    +0.000 HD
ATOM     25  H   UNL     1       9.770  19.912 -12.220  0.00  0.00    +0.000 HD
ATOM     26  H   UNL     1      11.535  20.098 -12.475  0.00  0.00    +0.000 HD
ENDBRANCH  22  23
ENDBRANCH  18  22
ENDBRANCH  15  18
ENDBRANCH   3  15
TORSDOF 4
ENDMDL
MODEL 7
REMARK VINA RESULT:    -5.162     17.782     18.956
REMARK INTER + INTRA:          -6.472
REMARK INTER:                  -6.142
REMARK INTRA:                  -0.330
REMARK UNBOUND:                -0.254
REMARK  Name = 62098
REMARK  4 active torsions:
REMARK  status: ('A' for Active; 'I' for Inactive)
REMARK    1  A    between atoms: C_4  and  C_5
REMARK    2  A    between atoms: C_4  and  C_6
REMARK    3  A    between atoms: C_6  and  C_13
REMARK    4  A    between atoms: C_13  and  C_14
REMARK                            x       y       z     vdW  Elec       q    Type
REMARK                         _______ _______ _______ _____ _____    ______ ____
ROOT
ATOM      1  O   UNL     1      12.489   5.497   1.370  0.00  0.00    +0.000 OA
ATOM      2  O   UNL     1      14.047   3.956   2.372  0.00  0.00    +0.000 OA
ATOM      3  C   UNL     1      14.921   5.387  -1.374  0.00  0.00    +0.000 A 
ATOM      4  C   UNL     1      13.552   5.238   0.562  0.00  0.00    +0.000 A 
ATOM      5  C   UNL     1      13.764   5.772  -0.694  0.00  0.00    +0.000 A 
ATOM      6  C   UNL     1      14.442   4.359   1.134  0.00  0.00    +0.000 A 
ATOM      7  C   UNL     1      15.831   4.489  -0.790  0.00  0.00    +0.000 A 
ATOM      8  C   UNL     1      15.592   3.964   0.482  0.00  0.00    +0.000 A 
ATOM      9  C   UNL     1      12.809   4.681   2.515  0.00  0.00    +0.000 C 
ATOM     10  H   UNL     1      13.051   6.463  -1.132  0.00  0.00    +0.000 HD
ATOM     11  H   UNL     1      16.729   4.191  -1.325  0.00  0.00    +0.000 HD
ATOM     12  H   UNL     1      16.291   3.270   0.937  0.00  0.00    +0.000 HD
ATOM     13  H   UNL     1      11.996   3.960   2.671  0.00  0.00    +0.000 HD
ATOM     14  H   UNL     1      12.879   5.327   3.398  0.00  0.00    +0.000 HD
ENDROOT
BRANCH   3  15
ATOM     15  C   UNL     1      15.196   5.934  -2.735  0.00  0.00    +0.000 C 
ATOM     16  H   UNL     1      16.265   5.838  -2.966  0.00  0.00    +0.000 HD
ATOM     17  H   UNL     1      14.685   5.323  -3.491  0.00  0.00    +0.000 HD
BRANCH  15  18
ATOM     18  C   UNL     1      14.765   7.399  -2.871  0.00  0.00    +0.000 C 
ATOM     19  H   UNL     1      13.809   7.560  -2.358  0.00  0.00    +0.000 HD
ATOM     20  H   UNL     1      14.629   7.653  -3.929  0.00  0.00    +0.000 HD
BRANCH  18  22
ATOM     21  O   UNL     1      15.539   9.062  -1.296  0.00  0.00    +0.000 OA
ATOM     22  C   UNL     1      15.774   8.372  -2.286  0.00  0.00    +0.000 C 
BRANCH  22  23
ATOM     23  C   UNL     1      17.102   8.455  -2.994  0.00  0.00    +0.000 C 
ATOM     24  H   UNL     1      17.265   7.547  -3.582  0.00  0.00    +0.000 HD
ATOM     25  H   UNL     1      17.105   9.316  -3.666  0.00  0.00    +0.000 HD
ATOM     26  H   UNL     1      17.904   8.547  -2.257  0.00  0.00    +0.000 HD
ENDBRANCH  22  23
ENDBRANCH  18  22
ENDBRANCH  15  18
ENDBRANCH   3  15
TORSDOF 4
ENDMDL
MODEL 8
REMARK VINA RESULT:    -4.912     29.283     31.210
REMARK INTER + INTRA:          -6.170
REMARK INTER:                  -5.816
REMARK INTRA:                  -0.354
REMARK UNBOUND:                -0.254
REMARK  Name = 62098
REMARK  4 active torsions:
REMARK  status: ('A' for Active; 'I' for Inactive)
REMARK    1  A    between atoms: C_4  and  C_5
REMARK    2  A    between atoms: C_4  and  C_6
REMARK    3  A    between atoms: C_6  and  C_13
REMARK    4  A    between atoms: C_13  and  C_14
REMARK                            x       y       z     vdW  Elec       q    Type
REMARK                         _______ _______ _______ _____ _____    ______ ____
ROOT
ATOM      1  O   UNL     1     -24.662  -4.783  13.768  0.00  0.00    +0.000 OA
ATOM      2  O   UNL     1     -24.496  -7.176  13.998  0.00  0.00    +0.000 OA
ATOM      3  C   UNL     1     -21.003  -5.025  13.874  0.00  0.00    +0.000 A 
ATOM      4  C   UNL     1     -23.371  -5.208  13.836  0.00  0.00    +0.000 A 
ATOM      5  C   UNL     1     -22.250  -4.404  13.786  0.00  0.00    +0.000 A 
ATOM      6  C   UNL     1     -23.277  -6.574  13.968  0.00  0.00    +0.000 A 
ATOM      7  C   UNL     1     -20.906  -6.421  14.009  0.00  0.00    +0.000 A 
ATOM      8  C   UNL     1     -22.056  -7.212  14.057  0.00  0.00    +0.000 A 
ATOM      9  C   UNL     1     -25.370  -6.036  13.870  0.00  0.00    +0.000 C 
ATOM     10  H   UNL     1     -22.342  -3.328  13.680  0.00  0.00    +0.000 HD
ATOM     11  H   UNL     1     -19.932  -6.900  14.074  0.00  0.00    +0.000 HD
ATOM     12  H   UNL     1     -21.987  -8.289  14.160  0.00  0.00    +0.000 HD
ATOM     13  H   UNL     1     -25.987  -6.165  12.973  0.00  0.00    +0.000 HD
ATOM     14  H   UNL     1     -26.027  -5.996  14.747  0.00  0.00    +0.000 HD
ENDROOT
BRANCH   3  15
ATOM     15  C   UNL     1     -19.760  -4.201  13.824  0.00  0.00    +0.000 C 
ATOM     16  H   UNL     1     -19.763  -3.578  12.919  0.00  0.00    +0.000 HD
ATOM     17  H   UNL     1     -19.752  -3.489  14.660  0.00  0.00    +0.000 HD
BRANCH  15  18
ATOM     18  C   UNL     1     -18.491  -5.060  13.858  0.00  0.00    +0.000 C 
ATOM     19  H   UNL     1     -18.748  -6.103  14.080  0.00  0.00    +0.000 HD
ATOM     20  H   UNL     1     -17.818  -4.702  14.647  0.00  0.00    +0.000 HD
BRANCH  18  22
ATOM     21  O   UNL     1     -16.668  -4.422  12.405  0.00  0.00    +0.000 OA
ATOM     22  C   UNL     1     -17.723  -5.039  12.549  0.00  0.00    +0.000 C 
BRANCH  22  23
ATOM     23  C   UNL     1     -18.327  -5.821  11.412  0.00  0.00    +0.000 C 
ATOM     24  H   UNL     1     -19.395  -5.598  11.337  0.00  0.00    +0.000 HD
ATOM     25  H   UNL     1     -17.841  -5.541  10.475  0.00  0.00    +0.000 HD
ATOM     26  H   UNL     1     -18.202  -6.892  11.597  0.00  0.00    +0.000 HD
ENDBRANCH  22  23
ENDBRANCH  18  22
ENDBRANCH  15  18
ENDBRANCH   3  15
TORSDOF 4
ENDMDL
MODEL 9
REMARK VINA RESULT:    -4.754     16.476     18.471
REMARK INTER + INTRA:          -5.980
REMARK INTER:                  -5.727
REMARK INTRA:                  -0.254
REMARK UNBOUND:                -0.254
REMARK  Name = 62098
REMARK  4 active torsions:
REMARK  status: ('A' for Active; 'I' for Inactive)
REMARK    1  A    between atoms: C_4  and  C_5
REMARK    2  A    between atoms: C_4  and  C_6
REMARK    3  A    between atoms: C_6  and  C_13
REMARK    4  A    between atoms: C_13  and  C_14
REMARK                            x       y       z     vdW  Elec       q    Type
REMARK                         _______ _______ _______ _____ _____    ______ ____
ROOT
ATOM      1  O   UNL     1     -19.314  -5.221  -5.655  0.00  0.00    +0.000 OA
ATOM      2  O   UNL     1     -20.402  -5.454  -3.518  0.00  0.00    +0.000 OA
ATOM      3  C   UNL     1     -16.357  -6.127  -3.682  0.00  0.00    +0.000 A 
ATOM      4  C   UNL     1     -18.445  -5.569  -4.667  0.00  0.00    +0.000 A 
ATOM      5  C   UNL     1     -17.089  -5.775  -4.818  0.00  0.00    +0.000 A 
ATOM      6  C   UNL     1     -19.067  -5.702  -3.447  0.00  0.00    +0.000 A 
ATOM      7  C   UNL     1     -16.992  -6.263  -2.435  0.00  0.00    +0.000 A 
ATOM      8  C   UNL     1     -18.366  -6.049  -2.310  0.00  0.00    +0.000 A 
ATOM      9  C   UNL     1     -20.553  -5.150  -4.919  0.00  0.00    +0.000 C 
ATOM     10  H   UNL     1     -16.615  -5.668  -5.788  0.00  0.00    +0.000 HD
ATOM     11  H   UNL     1     -16.417  -6.539  -1.554  0.00  0.00    +0.000 HD
ATOM     12  H   UNL     1     -18.860  -6.153  -1.351  0.00  0.00    +0.000 HD
ATOM     13  H   UNL     1     -21.263  -5.861  -5.358  0.00  0.00    +0.000 HD
ATOM     14  H   UNL     1     -20.962  -4.138  -5.017  0.00  0.00    +0.000 HD
ENDROOT
BRANCH   3  15
ATOM     15  C   UNL     1     -14.887  -6.362  -3.792  0.00  0.00    +0.000 C 
ATOM     16  H   UNL     1     -14.342  -5.521  -3.344  0.00  0.00    +0.000 HD
ATOM     17  H   UNL     1     -14.605  -7.237  -3.191  0.00  0.00    +0.000 HD
BRANCH  15  18
ATOM     18  C   UNL     1     -14.437  -6.560  -5.244  0.00  0.00    +0.000 C 
ATOM     19  H   UNL     1     -15.271  -6.357  -5.928  0.00  0.00    +0.000 HD
ATOM     20  H   UNL     1     -14.116  -7.597  -5.398  0.00  0.00    +0.000 HD
BRANCH  18  22
ATOM     21  O   UNL     1     -13.110  -5.257  -6.788  0.00  0.00    +0.000 OA
ATOM     22  C   UNL     1     -13.284  -5.655  -5.637  0.00  0.00    +0.000 C 
BRANCH  22  23
ATOM     23  C   UNL     1     -12.341  -5.262  -4.529  0.00  0.00    +0.000 C 
ATOM     24  H   UNL     1     -12.441  -5.960  -3.693  0.00  0.00    +0.000 HD
ATOM     25  H   UNL     1     -11.312  -5.295  -4.894  0.00  0.00    +0.000 HD
ATOM     26  H   UNL     1     -12.585  -4.256  -4.179  0.00  0.00    +0.000 HD
ENDBRANCH  22  23
ENDBRANCH  18  22
ENDBRANCH  15  18
ENDBRANCH   3  15
TORSDOF 4
ENDMDL
MODEL 10
REMARK VINA RESULT:    -4.740     14.320     16.677
REMARK INTER + INTRA:          -5.964
REMARK INTER:                  -5.657
REMARK INTRA:                  -0.307
REMARK UNBOUND:                -0.254
REMARK  Name = 62098
REMARK  4 active torsions:
REMARK  status: ('A' for Active; 'I' for Inactive)
REMARK    1  A    between atoms: C_4  and  C_5
REMARK    2  A    between atoms: C_4  and  C_6
REMARK    3  A    between atoms: C_6  and  C_13
REMARK    4  A    between atoms: C_13  and  C_14
REMARK                            x       y       z     vdW  Elec       q    Type
REMARK                         _______ _______ _______ _____ _____    ______ ____
ROOT
ATOM      1  O   UNL     1     -17.634  -4.360  -3.142  0.00  0.00    +0.000 OA
ATOM      2  O   UNL     1     -17.004  -6.672  -2.890  0.00  0.00    +0.000 OA
ATOM      3  C   UNL     1     -14.277  -4.129  -4.604  0.00  0.00    +0.000 A 
ATOM      4  C   UNL     1     -16.382  -4.610  -3.614  0.00  0.00    +0.000 A 
ATOM      5  C   UNL     1     -15.530  -3.683  -4.178  0.00  0.00    +0.000 A 
ATOM      6  C   UNL     1     -16.023  -5.930  -3.469  0.00  0.00    +0.000 A 
ATOM      7  C   UNL     1     -13.910  -5.478  -4.457  0.00  0.00    +0.000 A 
ATOM      8  C   UNL     1     -14.792  -6.396  -3.882  0.00  0.00    +0.000 A 
ATOM      9  C   UNL     1     -18.023  -5.672  -2.685  0.00  0.00    +0.000 C 
ATOM     10  H   UNL     1     -15.829  -2.645  -4.286  0.00  0.00    +0.000 HD
ATOM     11  H   UNL     1     -12.934  -5.821  -4.793  0.00  0.00    +0.000 HD
ATOM     12  H   UNL     1     -14.513  -7.437  -3.767  0.00  0.00    +0.000 HD
ATOM     13  H   UNL     1     -18.928  -5.977  -3.223  0.00  0.00    +0.000 HD
ATOM     14  H   UNL     1     -18.251  -5.617  -1.614  0.00  0.00    +0.000 HD
ENDROOT
BRANCH   3  15
ATOM     15  C   UNL     1     -13.318  -3.167  -5.222  0.00  0.00    +0.000 C 
ATOM     16  H   UNL     1     -13.315  -2.228  -4.653  0.00  0.00    +0.000 HD
ATOM     17  H   UNL     1     -12.295  -3.556  -5.138  0.00  0.00    +0.000 HD
BRANCH  15  18
ATOM     18  C   UNL     1     -13.648  -2.882  -6.692  0.00  0.00    +0.000 C 
ATOM     19  H   UNL     1     -13.976  -1.842  -6.810  0.00  0.00    +0.000 HD
ATOM     20  H   UNL     1     -14.463  -3.535  -7.026  0.00  0.00    +0.000 HD
BRANCH  18  22
ATOM     21  O   UNL     1     -11.973  -2.206  -8.299  0.00  0.00    +0.000 OA
ATOM     22  C   UNL     1     -12.467  -3.105  -7.620  0.00  0.00    +0.000 C 
BRANCH  22  23
ATOM     23  C   UNL     1     -11.920  -4.508  -7.673  0.00  0.00    +0.000 C 
ATOM     24  H   UNL     1     -10.846  -4.478  -7.874  0.00  0.00    +0.000 HD
ATOM     25  H   UNL     1     -12.085  -5.002  -6.713  0.00  0.00    +0.000 HD
ATOM     26  H   UNL     1     -12.414  -5.064  -8.474  0.00  0.00    +0.000 HD
ENDBRANCH  22  23
ENDBRANCH  18  22
ENDBRANCH  15  18
ENDBRANCH   3  15
TORSDOF 4
ENDMDL
