MODEL 1
REMARK VINA RESULT:    -5.458      0.000      0.000
REMARK INTER + INTRA:          -5.458
REMARK INTER:                  -5.458
REMARK INTRA:                   0.000
REMARK UNBOUND:                 0.000
REMARK  Name = 7047
REMARK  0 active torsions:
REMARK  status: ('A' for Active; 'I' for Inactive)
REMARK                            x       y       z     vdW  Elec       q    Type
REMARK                         _______ _______ _______ _____ _____    ______ ____
ROOT
ATOM      1  N   UNL     1      19.231  -4.031  -2.890  0.00  0.00    +0.000 NA
ATOM      2  C   UNL     1      17.656  -5.771  -3.435  0.00  0.00    +0.000 A 
ATOM      3  C   UNL     1      18.030  -4.614  -2.718  0.00  0.00    +0.000 A 
ATOM      4  C   UNL     1      16.394  -6.354  -3.231  0.00  0.00    +0.000 A 
ATOM      5  C   UNL     1      18.575  -6.311  -4.344  0.00  0.00    +0.000 A 
ATOM      6  C   UNL     1      17.117  -4.079  -1.816  0.00  0.00    +0.000 A 
ATOM      7  C   UNL     1      15.499  -5.798  -2.322  0.00  0.00    +0.000 A 
ATOM      8  C   UNL     1      15.861  -4.659  -1.613  0.00  0.00    +0.000 A 
ATOM      9  C   UNL     1      19.814  -5.712  -4.522  0.00  0.00    +0.000 A 
ATOM     10  C   UNL     1      20.091  -4.583  -3.777  0.00  0.00    +0.000 A 
ATOM     11  H   UNL     1      16.101  -7.246  -3.781  0.00  0.00    +0.000 HD
ATOM     12  H   UNL     1      18.332  -7.201  -4.919  0.00  0.00    +0.000 HD
ATOM     13  H   UNL     1      17.375  -3.187  -1.248  0.00  0.00    +0.000 HD
ATOM     14  H   UNL     1      14.524  -6.251  -2.167  0.00  0.00    +0.000 HD
ATOM     15  H   UNL     1      15.169  -4.218  -0.902  0.00  0.00    +0.000 HD
ATOM     16  H   UNL     1      20.537  -6.115  -5.221  0.00  0.00    +0.000 HD
ATOM     17  H   UNL     1      21.043  -4.072  -3.874  0.00  0.00    +0.000 HD
ENDROOT
TORSDOF 0
ENDMDL
MODEL 2
REMARK VINA RESULT:    -5.404     27.226     28.211
REMARK INTER + INTRA:          -5.404
REMARK INTER:                  -5.404
REMARK INTRA:                   0.000
REMARK UNBOUND:                 0.000
REMARK  Name = 7047
REMARK  0 active torsions:
REMARK  status: ('A' for Active; 'I' for Inactive)
REMARK                            x       y       z     vdW  Elec       q    Type
REMARK                         _______ _______ _______ _____ _____    ______ ____
ROOT
ATOM      1  N   UNL     1      -7.656 -16.288   3.280  0.00  0.00    +0.000 NA
ATOM      2  C   UNL     1      -7.535 -13.968   3.921  0.00  0.00    +0.000 A 
ATOM      3  C   UNL     1      -7.767 -15.329   4.218  0.00  0.00    +0.000 A 
ATOM      4  C   UNL     1      -7.660 -12.993   4.925  0.00  0.00    +0.000 A 
ATOM      5  C   UNL     1      -7.180 -13.630   2.609  0.00  0.00    +0.000 A 
ATOM      6  C   UNL     1      -8.119 -15.665   5.521  0.00  0.00    +0.000 A 
ATOM      7  C   UNL     1      -8.013 -13.357   6.222  0.00  0.00    +0.000 A 
ATOM      8  C   UNL     1      -8.243 -14.694   6.520  0.00  0.00    +0.000 A 
ATOM      9  C   UNL     1      -7.065 -14.617   1.641  0.00  0.00    +0.000 A 
ATOM     10  C   UNL     1      -7.311 -15.919   2.024  0.00  0.00    +0.000 A 
ATOM     11  H   UNL     1      -7.482 -11.943   4.702  0.00  0.00    +0.000 HD
ATOM     12  H   UNL     1      -6.992 -12.595   2.333  0.00  0.00    +0.000 HD
ATOM     13  H   UNL     1      -8.304 -16.705   5.781  0.00  0.00    +0.000 HD
ATOM     14  H   UNL     1      -8.109 -12.600   6.994  0.00  0.00    +0.000 HD
ATOM     15  H   UNL     1      -8.519 -14.987   7.528  0.00  0.00    +0.000 HD
ATOM     16  H   UNL     1      -6.792 -14.373   0.621  0.00  0.00    +0.000 HD
ATOM     17  H   UNL     1      -7.237 -16.733   1.311  0.00  0.00    +0.000 HD
ENDROOT
TORSDOF 0
ENDMDL
MODEL 3
REMARK VINA RESULT:    -5.302      1.610      3.631
REMARK INTER + INTRA:          -5.302
REMARK INTER:                  -5.302
REMARK INTRA:                   0.000
REMARK UNBOUND:                 0.000
REMARK  Name = 7047
REMARK  0 active torsions:
REMARK  status: ('A' for Active; 'I' for Inactive)
REMARK                            x       y       z     vdW  Elec       q    Type
REMARK                         _______ _______ _______ _____ _____    ______ ____
ROOT
ATOM      1  N   UNL     1      17.859  -5.826  -0.602  0.00  0.00    +0.000 NA
ATOM      2  C   UNL     1      17.019  -5.856  -2.860  0.00  0.00    +0.000 A 
ATOM      3  C   UNL     1      18.052  -6.041  -1.917  0.00  0.00    +0.000 A 
ATOM      4  C   UNL     1      17.256  -6.089  -4.225  0.00  0.00    +0.000 A 
ATOM      5  C   UNL     1      15.766  -5.437  -2.394  0.00  0.00    +0.000 A 
ATOM      6  C   UNL     1      19.296  -6.457  -2.380  0.00  0.00    +0.000 A 
ATOM      7  C   UNL     1      18.510  -6.505  -4.663  0.00  0.00    +0.000 A 
ATOM      8  C   UNL     1      19.531  -6.689  -3.739  0.00  0.00    +0.000 A 
ATOM      9  C   UNL     1      15.564  -5.215  -1.039  0.00  0.00    +0.000 A 
ATOM     10  C   UNL     1      16.634  -5.422  -0.192  0.00  0.00    +0.000 A 
ATOM     11  H   UNL     1      16.463  -5.948  -4.957  0.00  0.00    +0.000 HD
ATOM     12  H   UNL     1      14.940  -5.281  -3.083  0.00  0.00    +0.000 HD
ATOM     13  H   UNL     1      20.113  -6.609  -1.678  0.00  0.00    +0.000 HD
ATOM     14  H   UNL     1      18.689  -6.685  -5.718  0.00  0.00    +0.000 HD
ATOM     15  H   UNL     1      20.513  -7.014  -4.070  0.00  0.00    +0.000 HD
ATOM     16  H   UNL     1      14.602  -4.891  -0.661  0.00  0.00    +0.000 HD
ATOM     17  H   UNL     1      16.536  -5.265   0.877  0.00  0.00    +0.000 HD
ENDROOT
TORSDOF 0
ENDMDL
MODEL 4
REMARK VINA RESULT:    -5.145     36.008     37.378
REMARK INTER + INTRA:          -5.145
REMARK INTER:                  -5.145
REMARK INTRA:                   0.000
REMARK UNBOUND:                 0.000
REMARK  Name = 7047
REMARK  0 active torsions:
REMARK  status: ('A' for Active; 'I' for Inactive)
REMARK                            x       y       z     vdW  Elec       q    Type
REMARK                         _______ _______ _______ _____ _____    ______ ____
ROOT
ATOM      1  N   UNL     1      -2.202   5.799  27.066  0.00  0.00    +0.000 NA
ATOM      2  C   UNL     1      -3.496   5.309  25.093  0.00  0.00    +0.000 A 
ATOM      3  C   UNL     1      -3.329   5.334  26.494  0.00  0.00    +0.000 A 
ATOM      4  C   UNL     1      -4.685   4.818  24.530  0.00  0.00    +0.000 A 
ATOM      5  C   UNL     1      -2.448   5.785  24.294  0.00  0.00    +0.000 A 
ATOM      6  C   UNL     1      -4.369   4.861  27.287  0.00  0.00    +0.000 A 
ATOM      7  C   UNL     1      -5.712   4.350  25.346  0.00  0.00    +0.000 A 
ATOM      8  C   UNL     1      -5.553   4.372  26.726  0.00  0.00    +0.000 A 
ATOM      9  C   UNL     1      -1.285   6.265  24.881  0.00  0.00    +0.000 A 
ATOM     10  C   UNL     1      -1.213   6.250  26.259  0.00  0.00    +0.000 A 
ATOM     11  H   UNL     1      -4.820   4.796  23.450  0.00  0.00    +0.000 HD
ATOM     12  H   UNL     1      -2.531   5.786  23.210  0.00  0.00    +0.000 HD
ATOM     13  H   UNL     1      -4.271   4.867  28.370  0.00  0.00    +0.000 HD
ATOM     14  H   UNL     1      -6.629   3.971  24.907  0.00  0.00    +0.000 HD
ATOM     15  H   UNL     1      -6.348   4.009  27.371  0.00  0.00    +0.000 HD
ATOM     16  H   UNL     1      -0.465   6.637  24.279  0.00  0.00    +0.000 HD
ATOM     17  H   UNL     1      -0.329   6.612  26.774  0.00  0.00    +0.000 HD
ENDROOT
TORSDOF 0
ENDMDL
MODEL 5
REMARK VINA RESULT:    -5.005     10.077     11.422
REMARK INTER + INTRA:          -5.005
REMARK INTER:                  -5.005
REMARK INTRA:                   0.000
REMARK UNBOUND:                 0.000
REMARK  Name = 7047
REMARK  0 active torsions:
REMARK  status: ('A' for Active; 'I' for Inactive)
REMARK                            x       y       z     vdW  Elec       q    Type
REMARK                         _______ _______ _______ _____ _____    ______ ____
ROOT
ATOM      1  N   UNL     1      13.582   6.859  -0.867  0.00  0.00    +0.000 NA
ATOM      2  C   UNL     1      14.973   4.892  -0.901  0.00  0.00    +0.000 A 
ATOM      3  C   UNL     1      13.839   5.604  -0.454  0.00  0.00    +0.000 A 
ATOM      4  C   UNL     1      15.211   3.583  -0.448  0.00  0.00    +0.000 A 
ATOM      5  C   UNL     1      15.840   5.527  -1.799  0.00  0.00    +0.000 A 
ATOM      6  C   UNL     1      12.978   4.973   0.438  0.00  0.00    +0.000 A 
ATOM      7  C   UNL     1      14.333   2.974   0.445  0.00  0.00    +0.000 A 
ATOM      8  C   UNL     1      13.215   3.670   0.888  0.00  0.00    +0.000 A 
ATOM      9  C   UNL     1      15.577   6.820  -2.226  0.00  0.00    +0.000 A 
ATOM     10  C   UNL     1      14.444   7.437  -1.735  0.00  0.00    +0.000 A 
ATOM     11  H   UNL     1      16.083   3.029  -0.789  0.00  0.00    +0.000 HD
ATOM     12  H   UNL     1      16.726   5.018  -2.170  0.00  0.00    +0.000 HD
ATOM     13  H   UNL     1      12.096   5.496   0.801  0.00  0.00    +0.000 HD
ATOM     14  H   UNL     1      14.521   1.963   0.792  0.00  0.00    +0.000 HD
ATOM     15  H   UNL     1      12.525   3.204   1.585  0.00  0.00    +0.000 HD
ATOM     16  H   UNL     1      16.237   7.327  -2.921  0.00  0.00    +0.000 HD
ATOM     17  H   UNL     1      14.187   8.448  -2.034  0.00  0.00    +0.000 HD
ENDROOT
TORSDOF 0
ENDMDL
MODEL 6
REMARK VINA RESULT:    -4.900     25.695     27.746
REMARK INTER + INTRA:          -4.900
REMARK INTER:                  -4.900
REMARK INTRA:                   0.000
REMARK UNBOUND:                 0.000
REMARK  Name = 7047
REMARK  0 active torsions:
REMARK  status: ('A' for Active; 'I' for Inactive)
REMARK                            x       y       z     vdW  Elec       q    Type
REMARK                         _______ _______ _______ _____ _____    ______ ____
ROOT
ATOM      1  N   UNL     1      -6.209 -16.226   5.731  0.00  0.00    +0.000 NA
ATOM      2  C   UNL     1      -7.195 -14.062   5.339  0.00  0.00    +0.000 A 
ATOM      3  C   UNL     1      -6.208 -15.041   5.093  0.00  0.00    +0.000 A 
ATOM      4  C   UNL     1      -7.164 -12.836   4.655  0.00  0.00    +0.000 A 
ATOM      5  C   UNL     1      -8.194 -14.354   6.278  0.00  0.00    +0.000 A 
ATOM      6  C   UNL     1      -5.217 -14.751   4.161  0.00  0.00    +0.000 A 
ATOM      7  C   UNL     1      -6.160 -12.571   3.727  0.00  0.00    +0.000 A 
ATOM      8  C   UNL     1      -5.186 -13.530   3.479  0.00  0.00    +0.000 A 
ATOM      9  C   UNL     1      -8.197 -15.575   6.937  0.00  0.00    +0.000 A 
ATOM     10  C   UNL     1      -7.191 -16.468   6.630  0.00  0.00    +0.000 A 
ATOM     11  H   UNL     1      -7.922 -12.078   4.841  0.00  0.00    +0.000 HD
ATOM     12  H   UNL     1      -8.975 -13.631   6.501  0.00  0.00    +0.000 HD
ATOM     13  H   UNL     1      -4.442 -15.484   3.949  0.00  0.00    +0.000 HD
ATOM     14  H   UNL     1      -6.140 -11.622   3.200  0.00  0.00    +0.000 HD
ATOM     15  H   UNL     1      -4.399 -13.333   2.758  0.00  0.00    +0.000 HD
ATOM     16  H   UNL     1      -8.961 -15.817   7.666  0.00  0.00    +0.000 HD
ATOM     17  H   UNL     1      -7.141 -17.439   7.114  0.00  0.00    +0.000 HD
ENDROOT
TORSDOF 0
ENDMDL
MODEL 7
REMARK VINA RESULT:    -4.889      9.862     11.473
REMARK INTER + INTRA:          -4.889
REMARK INTER:                  -4.889
REMARK INTRA:                   0.000
REMARK UNBOUND:                 0.000
REMARK  Name = 7047
REMARK  0 active torsions:
REMARK  status: ('A' for Active; 'I' for Inactive)
REMARK                            x       y       z     vdW  Elec       q    Type
REMARK                         _______ _______ _______ _____ _____    ______ ____
ROOT
ATOM      1  N   UNL     1      12.787   4.778   0.213  0.00  0.00    +0.000 NA
ATOM      2  C   UNL     1      15.009   4.599  -0.701  0.00  0.00    +0.000 A 
ATOM      3  C   UNL     1      13.807   5.308  -0.487  0.00  0.00    +0.000 A 
ATOM      4  C   UNL     1      16.053   5.183  -1.438  0.00  0.00    +0.000 A 
ATOM      5  C   UNL     1      15.122   3.312  -0.161  0.00  0.00    +0.000 A 
ATOM      6  C   UNL     1      13.695   6.586  -1.024  0.00  0.00    +0.000 A 
ATOM      7  C   UNL     1      15.915   6.464  -1.964  0.00  0.00    +0.000 A 
ATOM      8  C   UNL     1      14.735   7.167  -1.757  0.00  0.00    +0.000 A 
ATOM      9  C   UNL     1      14.072   2.764   0.562  0.00  0.00    +0.000 A 
ATOM     10  C   UNL     1      12.936   3.532   0.719  0.00  0.00    +0.000 A 
ATOM     11  H   UNL     1      16.982   4.641  -1.606  0.00  0.00    +0.000 HD
ATOM     12  H   UNL     1      16.029   2.728  -0.299  0.00  0.00    +0.000 HD
ATOM     13  H   UNL     1      12.781   7.158  -0.877  0.00  0.00    +0.000 HD
ATOM     14  H   UNL     1      16.725   6.911  -2.533  0.00  0.00    +0.000 HD
ATOM     15  H   UNL     1      14.618   8.166  -2.164  0.00  0.00    +0.000 HD
ATOM     16  H   UNL     1      14.142   1.770   0.987  0.00  0.00    +0.000 HD
ATOM     17  H   UNL     1      12.082   3.156   1.274  0.00  0.00    +0.000 HD
ENDROOT
TORSDOF 0
ENDMDL
MODEL 8
REMARK VINA RESULT:    -4.871     26.702     27.333
REMARK INTER + INTRA:          -4.871
REMARK INTER:                  -4.871
REMARK INTRA:                   0.000
REMARK UNBOUND:                 0.000
REMARK  Name = 7047
REMARK  0 active torsions:
REMARK  status: ('A' for Active; 'I' for Inactive)
REMARK                            x       y       z     vdW  Elec       q    Type
REMARK                         _______ _______ _______ _____ _____    ______ ____
ROOT
ATOM      1  N   UNL     1      -0.442   2.622 -20.807  0.00  0.00    +0.000 NA
ATOM      2  C   UNL     1       0.047   4.735 -21.857  0.00  0.00    +0.000 A 
ATOM      3  C   UNL     1       0.042   3.876 -20.737  0.00  0.00    +0.000 A 
ATOM      4  C   UNL     1       0.560   6.038 -21.748  0.00  0.00    +0.000 A 
ATOM      5  C   UNL     1      -0.470   4.249 -23.064  0.00  0.00    +0.000 A 
ATOM      6  C   UNL     1       0.555   4.360 -19.538  0.00  0.00    +0.000 A 
ATOM      7  C   UNL     1       1.069   6.497 -20.535  0.00  0.00    +0.000 A 
ATOM      8  C   UNL     1       1.066   5.657 -19.430  0.00  0.00    +0.000 A 
ATOM      9  C   UNL     1      -0.970   2.956 -23.139  0.00  0.00    +0.000 A 
ATOM     10  C   UNL     1      -0.933   2.190 -21.992  0.00  0.00    +0.000 A 
ATOM     11  H   UNL     1       0.567   6.705 -22.608  0.00  0.00    +0.000 HD
ATOM     12  H   UNL     1      -0.487   4.874 -23.954  0.00  0.00    +0.000 HD
ATOM     13  H   UNL     1       0.565   3.721 -18.656  0.00  0.00    +0.000 HD
ATOM     14  H   UNL     1       1.464   7.505 -20.456  0.00  0.00    +0.000 HD
ATOM     15  H   UNL     1       1.460   6.006 -18.480  0.00  0.00    +0.000 HD
ATOM     16  H   UNL     1      -1.373   2.564 -24.065  0.00  0.00    +0.000 HD
ATOM     17  H   UNL     1      -1.309   1.172 -21.990  0.00  0.00    +0.000 HD
ENDROOT
TORSDOF 0
ENDMDL
MODEL 9
REMARK VINA RESULT:    -4.760     30.987     32.994
REMARK INTER + INTRA:          -4.760
REMARK INTER:                  -4.760
REMARK INTRA:                   0.000
REMARK UNBOUND:                 0.000
REMARK  Name = 7047
REMARK  0 active torsions:
REMARK  status: ('A' for Active; 'I' for Inactive)
REMARK                            x       y       z     vdW  Elec       q    Type
REMARK                         _______ _______ _______ _____ _____    ______ ____
ROOT
ATOM      1  N   UNL     1     -16.405  -3.853  -4.340  0.00  0.00    +0.000 NA
ATOM      2  C   UNL     1     -14.801  -5.584  -3.856  0.00  0.00    +0.000 A 
ATOM      3  C   UNL     1     -15.150  -4.334  -4.409  0.00  0.00    +0.000 A 
ATOM      4  C   UNL     1     -13.480  -6.055  -3.946  0.00  0.00    +0.000 A 
ATOM      5  C   UNL     1     -15.804  -6.329  -3.222  0.00  0.00    +0.000 A 
ATOM      6  C   UNL     1     -14.153  -3.594  -5.038  0.00  0.00    +0.000 A 
ATOM      7  C   UNL     1     -12.502  -5.294  -4.581  0.00  0.00    +0.000 A 
ATOM      8  C   UNL     1     -12.839  -4.063  -5.127  0.00  0.00    +0.000 A 
ATOM      9  C   UNL     1     -17.099  -5.836  -3.150  0.00  0.00    +0.000 A 
ATOM     10  C   UNL     1     -17.345  -4.604  -3.719  0.00  0.00    +0.000 A 
ATOM     11  H   UNL     1     -13.205  -7.018  -3.521  0.00  0.00    +0.000 HD
ATOM     12  H   UNL     1     -15.582  -7.298  -2.781  0.00  0.00    +0.000 HD
ATOM     13  H   UNL     1     -14.391  -2.626  -5.474  0.00  0.00    +0.000 HD
ATOM     14  H   UNL     1     -11.482  -5.662  -4.648  0.00  0.00    +0.000 HD
ATOM     15  H   UNL     1     -12.083  -3.462  -5.624  0.00  0.00    +0.000 HD
ATOM     16  H   UNL     1     -17.887  -6.399  -2.664  0.00  0.00    +0.000 HD
ATOM     17  H   UNL     1     -18.338  -4.167  -3.694  0.00  0.00    +0.000 HD
ENDROOT
TORSDOF 0
ENDMDL
MODEL 10
REMARK VINA RESULT:    -4.708     25.742     26.412
REMARK INTER + INTRA:          -4.708
REMARK INTER:                  -4.708
REMARK INTRA:                   0.000
REMARK UNBOUND:                 0.000
REMARK  Name = 7047
REMARK  0 active torsions:
REMARK  status: ('A' for Active; 'I' for Inactive)
REMARK                            x       y       z     vdW  Elec       q    Type
REMARK                         _______ _______ _______ _____ _____    ______ ____
ROOT
ATOM      1  N   UNL     1       1.081   1.773 -22.635  0.00  0.00    +0.000 NA
ATOM      2  C   UNL     1       0.588   3.448 -20.974  0.00  0.00    +0.000 A 
ATOM      3  C   UNL     1       1.491   2.749 -21.804  0.00  0.00    +0.000 A 
ATOM      4  C   UNL     1       1.050   4.461 -20.119  0.00  0.00    +0.000 A 
ATOM      5  C   UNL     1      -0.768   3.099 -21.033  0.00  0.00    +0.000 A 
ATOM      6  C   UNL     1       2.837   3.096 -21.745  0.00  0.00    +0.000 A 
ATOM      7  C   UNL     1       2.403   4.789 -20.079  0.00  0.00    +0.000 A 
ATOM      8  C   UNL     1       3.297   4.105 -20.893  0.00  0.00    +0.000 A 
ATOM      9  C   UNL     1      -1.193   2.093 -21.889  0.00  0.00    +0.000 A 
ATOM     10  C   UNL     1      -0.236   1.466 -22.662  0.00  0.00    +0.000 A 
ATOM     11  H   UNL     1       0.358   5.003 -19.477  0.00  0.00    +0.000 HD
ATOM     12  H   UNL     1      -1.501   3.609 -20.413  0.00  0.00    +0.000 HD
ATOM     13  H   UNL     1       3.558   2.576 -22.372  0.00  0.00    +0.000 HD
ATOM     14  H   UNL     1       2.756   5.573 -19.416  0.00  0.00    +0.000 HD
ATOM     15  H   UNL     1       4.354   4.353 -20.869  0.00  0.00    +0.000 HD
ATOM     16  H   UNL     1      -2.237   1.810 -21.948  0.00  0.00    +0.000 HD
ATOM     17  H   UNL     1      -0.509   0.673 -23.350  0.00  0.00    +0.000 HD
ENDROOT
TORSDOF 0
ENDMDL
