MODEL 1
REMARK VINA RESULT:    -2.786      0.000      0.000
REMARK INTER + INTRA:          -2.786
REMARK INTER:                  -2.786
REMARK INTRA:                   0.000
REMARK UNBOUND:                 0.000
REMARK  Name = 9256
REMARK  0 active torsions:
REMARK  status: ('A' for Active; 'I' for Inactive)
REMARK                            x       y       z     vdW  Elec       q    Type
REMARK                         _______ _______ _______ _____ _____    ______ ____
ROOT
ATOM      1  S   UNL     1       0.107  -5.548  -7.656  0.00  0.00    +0.000 S 
ATOM      2  N   UNL     1      -0.004  -5.505  -5.073  0.00  0.00    +0.000 NA
ATOM      3  C   UNL     1       1.579  -5.381  -6.792  0.00  0.00    +0.000 A 
ATOM      4  C   UNL     1       1.323  -5.378  -5.437  0.00  0.00    +0.000 A 
ATOM      5  C   UNL     1      -0.735  -5.602  -6.161  0.00  0.00    +0.000 A 
ATOM      6  H   UNL     1       2.529  -5.294  -7.299  0.00  0.00    +0.000 HD
ATOM      7  H   UNL     1       2.075  -5.287  -4.665  0.00  0.00    +0.000 HD
ATOM      8  H   UNL     1      -1.811  -5.710  -6.123  0.00  0.00    +0.000 HD
ENDROOT
TORSDOF 0
ENDMDL
MODEL 2
REMARK VINA RESULT:    -2.708      1.794      2.434
REMARK INTER + INTRA:          -2.708
REMARK INTER:                  -2.708
REMARK INTRA:                   0.000
REMARK UNBOUND:                 0.000
REMARK  Name = 9256
REMARK  0 active torsions:
REMARK  status: ('A' for Active; 'I' for Inactive)
REMARK                            x       y       z     vdW  Elec       q    Type
REMARK                         _______ _______ _______ _____ _____    ______ ____
ROOT
ATOM      1  S   UNL     1       1.706  -5.293  -5.584  0.00  0.00    +0.000 S 
ATOM      2  N   UNL     1       0.278  -5.820  -7.674  0.00  0.00    +0.000 NA
ATOM      3  C   UNL     1       0.019  -5.514  -5.369  0.00  0.00    +0.000 A 
ATOM      4  C   UNL     1      -0.572  -5.785  -6.585  0.00  0.00    +0.000 A 
ATOM      5  C   UNL     1       1.503  -5.575  -7.265  0.00  0.00    +0.000 A 
ATOM      6  H   UNL     1      -0.445  -5.437  -4.396  0.00  0.00    +0.000 HD
ATOM      7  H   UNL     1      -1.627  -5.967  -6.734  0.00  0.00    +0.000 HD
ATOM      8  H   UNL     1       2.343  -5.551  -7.947  0.00  0.00    +0.000 HD
ENDROOT
TORSDOF 0
ENDMDL
MODEL 3
REMARK VINA RESULT:    -2.482     16.921     17.240
REMARK INTER + INTRA:          -2.482
REMARK INTER:                  -2.482
REMARK INTRA:                   0.000
REMARK UNBOUND:                 0.000
REMARK  Name = 9256
REMARK  0 active torsions:
REMARK  status: ('A' for Active; 'I' for Inactive)
REMARK                            x       y       z     vdW  Elec       q    Type
REMARK                         _______ _______ _______ _____ _____    ______ ____
ROOT
ATOM      1  S   UNL     1       0.372   5.066 -21.351  0.00  0.00    +0.000 S 
ATOM      2  N   UNL     1       0.234   3.197 -19.571  0.00  0.00    +0.000 NA
ATOM      3  C   UNL     1      -0.655   3.729 -21.669  0.00  0.00    +0.000 A 
ATOM      4  C   UNL     1      -0.599   2.842 -20.615  0.00  0.00    +0.000 A 
ATOM      5  C   UNL     1       0.797   4.351 -19.850  0.00  0.00    +0.000 A 
ATOM      6  H   UNL     1      -1.230   3.659 -22.581  0.00  0.00    +0.000 HD
ATOM      7  H   UNL     1      -1.151   1.914 -20.557  0.00  0.00    +0.000 HD
ATOM      8  H   UNL     1       1.493   4.829 -19.174  0.00  0.00    +0.000 HD
ENDROOT
TORSDOF 0
ENDMDL
MODEL 4
REMARK VINA RESULT:    -2.434     18.127     18.478
REMARK INTER + INTRA:          -2.434
REMARK INTER:                  -2.434
REMARK INTRA:                   0.000
REMARK UNBOUND:                 0.000
REMARK  Name = 9256
REMARK  0 active torsions:
REMARK  status: ('A' for Active; 'I' for Inactive)
REMARK                            x       y       z     vdW  Elec       q    Type
REMARK                         _______ _______ _______ _____ _____    ______ ____
ROOT
ATOM      1  S   UNL     1      -0.584   4.081 -22.157  0.00  0.00    +0.000 S 
ATOM      2  N   UNL     1      -0.318   1.989 -23.652  0.00  0.00    +0.000 NA
ATOM      3  C   UNL     1      -0.378   2.563 -21.385  0.00  0.00    +0.000 A 
ATOM      4  C   UNL     1      -0.254   1.573 -22.336  0.00  0.00    +0.000 A 
ATOM      5  C   UNL     1      -0.491   3.291 -23.678  0.00  0.00    +0.000 A 
ATOM      6  H   UNL     1      -0.359   2.471 -20.309  0.00  0.00    +0.000 HD
ATOM      7  H   UNL     1      -0.112   0.522 -22.122  0.00  0.00    +0.000 HD
ATOM      8  H   UNL     1      -0.570   3.843 -24.606  0.00  0.00    +0.000 HD
ENDROOT
TORSDOF 0
ENDMDL
MODEL 5
REMARK VINA RESULT:    -2.434     16.942     17.286
REMARK INTER + INTRA:          -2.434
REMARK INTER:                  -2.434
REMARK INTRA:                   0.000
REMARK UNBOUND:                 0.000
REMARK  Name = 9256
REMARK  0 active torsions:
REMARK  status: ('A' for Active; 'I' for Inactive)
REMARK                            x       y       z     vdW  Elec       q    Type
REMARK                         _______ _______ _______ _____ _____    ______ ____
ROOT
ATOM      1  S   UNL     1      -0.684   2.842 -21.034  0.00  0.00    +0.000 S 
ATOM      2  N   UNL     1       0.788   4.464 -19.661  0.00  0.00    +0.000 NA
ATOM      3  C   UNL     1      -0.268   4.347 -21.745  0.00  0.00    +0.000 A 
ATOM      4  C   UNL     1       0.514   5.072 -20.871  0.00  0.00    +0.000 A 
ATOM      5  C   UNL     1       0.207   3.286 -19.636  0.00  0.00    +0.000 A 
ATOM      6  H   UNL     1      -0.605   4.620 -22.735  0.00  0.00    +0.000 HD
ATOM      7  H   UNL     1       0.916   6.056 -21.070  0.00  0.00    +0.000 HD
ATOM      8  H   UNL     1       0.284   2.625 -18.782  0.00  0.00    +0.000 HD
ENDROOT
TORSDOF 0
ENDMDL
MODEL 6
REMARK VINA RESULT:    -2.301     17.626     17.967
REMARK INTER + INTRA:          -2.301
REMARK INTER:                  -2.301
REMARK INTRA:                   0.000
REMARK UNBOUND:                 0.000
REMARK  Name = 9256
REMARK  0 active torsions:
REMARK  status: ('A' for Active; 'I' for Inactive)
REMARK                            x       y       z     vdW  Elec       q    Type
REMARK                         _______ _______ _______ _____ _____    ______ ____
ROOT
ATOM      1  S   UNL     1       0.045   3.166 -20.320  0.00  0.00    +0.000 S 
ATOM      2  N   UNL     1      -1.000   2.809 -22.658  0.00  0.00    +0.000 NA
ATOM      3  C   UNL     1       0.020   4.498 -21.401  0.00  0.00    +0.000 A 
ATOM      4  C   UNL     1      -0.570   4.121 -22.588  0.00  0.00    +0.000 A 
ATOM      5  C   UNL     1      -0.727   2.212 -21.519  0.00  0.00    +0.000 A 
ATOM      6  H   UNL     1       0.426   5.461 -21.126  0.00  0.00    +0.000 HD
ATOM      7  H   UNL     1      -0.715   4.769 -23.442  0.00  0.00    +0.000 HD
ATOM      8  H   UNL     1      -0.974   1.173 -21.342  0.00  0.00    +0.000 HD
ENDROOT
TORSDOF 0
ENDMDL
MODEL 7
REMARK VINA RESULT:    -2.247     27.643     27.802
REMARK INTER + INTRA:          -2.247
REMARK INTER:                  -2.247
REMARK INTRA:                   0.000
REMARK UNBOUND:                 0.000
REMARK  Name = 9256
REMARK  0 active torsions:
REMARK  status: ('A' for Active; 'I' for Inactive)
REMARK                            x       y       z     vdW  Elec       q    Type
REMARK                         _______ _______ _______ _____ _____    ______ ____
ROOT
ATOM      1  S   UNL     1      12.321  18.943 -11.883  0.00  0.00    +0.000 S 
ATOM      2  N   UNL     1      10.248  20.295 -11.139  0.00  0.00    +0.000 NA
ATOM      3  C   UNL     1      12.028  19.103 -10.200  0.00  0.00    +0.000 A 
ATOM      4  C   UNL     1      10.888  19.850  -9.998  0.00  0.00    +0.000 A 
ATOM      5  C   UNL     1      10.914  19.877 -12.191  0.00  0.00    +0.000 A 
ATOM      6  H   UNL     1      12.683  18.657  -9.465  0.00  0.00    +0.000 HD
ATOM      7  H   UNL     1      10.476  20.101  -9.030  0.00  0.00    +0.000 HD
ATOM      8  H   UNL     1      10.598  20.105 -13.200  0.00  0.00    +0.000 HD
ENDROOT
TORSDOF 0
ENDMDL
MODEL 8
REMARK VINA RESULT:    -2.136     26.640     26.989
REMARK INTER + INTRA:          -2.136
REMARK INTER:                  -2.136
REMARK INTRA:                   0.000
REMARK UNBOUND:                 0.000
REMARK  Name = 9256
REMARK  0 active torsions:
REMARK  status: ('A' for Active; 'I' for Inactive)
REMARK                            x       y       z     vdW  Elec       q    Type
REMARK                         _______ _______ _______ _____ _____    ______ ____
ROOT
ATOM      1  S   UNL     1     -19.075  -4.470  14.106  0.00  0.00    +0.000 S 
ATOM      2  N   UNL     1     -17.575  -4.775  12.023  0.00  0.00    +0.000 NA
ATOM      3  C   UNL     1     -19.540  -5.646  12.947  0.00  0.00    +0.000 A 
ATOM      4  C   UNL     1     -18.626  -5.665  11.915  0.00  0.00    +0.000 A 
ATOM      5  C   UNL     1     -17.709  -4.093  13.138  0.00  0.00    +0.000 A 
ATOM      6  H   UNL     1     -20.430  -6.247  13.072  0.00  0.00    +0.000 HD
ATOM      7  H   UNL     1     -18.680  -6.316  11.053  0.00  0.00    +0.000 HD
ATOM      8  H   UNL     1     -16.999  -3.332  13.436  0.00  0.00    +0.000 HD
ENDROOT
TORSDOF 0
ENDMDL
MODEL 9
REMARK VINA RESULT:    -2.122     13.948     14.297
REMARK INTER + INTRA:          -2.122
REMARK INTER:                  -2.122
REMARK INTRA:                   0.000
REMARK UNBOUND:                 0.000
REMARK  Name = 9256
REMARK  0 active torsions:
REMARK  status: ('A' for Active; 'I' for Inactive)
REMARK                            x       y       z     vdW  Elec       q    Type
REMARK                         _______ _______ _______ _____ _____    ______ ____
ROOT
ATOM      1  S   UNL     1     -14.810  -4.309  -4.877  0.00  0.00    +0.000 S 
ATOM      2  N   UNL     1     -12.389  -5.205  -4.752  0.00  0.00    +0.000 NA
ATOM      3  C   UNL     1     -14.510  -5.675  -3.884  0.00  0.00    +0.000 A 
ATOM      4  C   UNL     1     -13.173  -6.006  -3.943  0.00  0.00    +0.000 A 
ATOM      5  C   UNL     1     -13.146  -4.278  -5.294  0.00  0.00    +0.000 A 
ATOM      6  H   UNL     1     -15.300  -6.156  -3.325  0.00  0.00    +0.000 HD
ATOM      7  H   UNL     1     -12.714  -6.828  -3.410  0.00  0.00    +0.000 HD
ATOM      8  H   UNL     1     -12.747  -3.532  -5.969  0.00  0.00    +0.000 HD
ENDROOT
TORSDOF 0
ENDMDL
MODEL 10
REMARK VINA RESULT:    -2.106     15.584     16.037
REMARK INTER + INTRA:          -2.106
REMARK INTER:                  -2.106
REMARK INTRA:                   0.000
REMARK UNBOUND:                 0.000
REMARK  Name = 9256
REMARK  0 active torsions:
REMARK  status: ('A' for Active; 'I' for Inactive)
REMARK                            x       y       z     vdW  Elec       q    Type
REMARK                         _______ _______ _______ _____ _____    ______ ____
ROOT
ATOM      1  S   UNL     1      -7.108 -15.118   5.547  0.00  0.00    +0.000 S 
ATOM      2  N   UNL     1      -7.829 -12.744   4.820  0.00  0.00    +0.000 NA
ATOM      3  C   UNL     1      -7.039 -14.734   3.876  0.00  0.00    +0.000 A 
ATOM      4  C   UNL     1      -7.458 -13.435   3.682  0.00  0.00    +0.000 A 
ATOM      5  C   UNL     1      -7.685 -13.533   5.861  0.00  0.00    +0.000 A 
ATOM      6  H   UNL     1      -6.708 -15.454   3.141  0.00  0.00    +0.000 HD
ATOM      7  H   UNL     1      -7.512 -12.939   2.722  0.00  0.00    +0.000 HD
ATOM      8  H   UNL     1      -7.916 -13.205   6.866  0.00  0.00    +0.000 HD
ENDROOT
TORSDOF 0
ENDMDL
