MODEL 1
REMARK VINA RESULT:    -5.303      0.000      0.000
REMARK INTER + INTRA:          -6.442
REMARK INTER:                  -6.266
REMARK INTRA:                  -0.176
REMARK UNBOUND:                -0.209
REMARK  Name = 6989
REMARK  5 active torsions:
REMARK  status: ('A' for Active; 'I' for Inactive)
REMARK    1  A    between atoms: O_1  and  C_6
REMARK    2  A    between atoms: C_2  and  C_3
REMARK    3  A    between atoms: C_2  and  C_4
REMARK    4  A    between atoms: C_2  and  C_5
REMARK    5  A    between atoms: C_8  and  C_11
REMARK                            x       y       z     vdW  Elec       q    Type
REMARK                         _______ _______ _______ _____ _____    ______ ____
ROOT
ATOM      1  C   UNL     1       0.581  -4.282  -7.394  0.00  0.00    +0.000 A 
ATOM      2  C   UNL     1      -0.647  -3.792  -6.951  0.00  0.00    +0.000 A 
ATOM      3  C   UNL     1       1.362  -3.520  -8.265  0.00  0.00    +0.000 A 
ATOM      4  C   UNL     1      -0.313  -1.780  -8.246  0.00  0.00    +0.000 A 
ATOM      5  C   UNL     1      -1.094  -2.541  -7.376  0.00  0.00    +0.000 A 
ATOM      6  C   UNL     1       0.915  -2.270  -8.690  0.00  0.00    +0.000 A 
ATOM      7  H   UNL     1       2.322  -3.880  -8.624  0.00  0.00    +0.000 HD
ATOM      8  H   UNL     1      -2.051  -2.164  -7.025  0.00  0.00    +0.000 HD
ATOM      9  H   UNL     1       1.533  -1.686  -9.367  0.00  0.00    +0.000 HD
ENDROOT
BRANCH   4  10
ATOM     10  C   UNL     1      -0.791  -0.443  -8.702  0.00  0.00    +0.000 C 
ATOM     11  H   UNL     1      -0.032   0.328  -8.527  0.00  0.00    +0.000 HD
ATOM     12  H   UNL     1      -1.025  -0.472  -9.770  0.00  0.00    +0.000 HD
ATOM     13  H   UNL     1      -1.689  -0.136  -8.155  0.00  0.00    +0.000 HD
ENDBRANCH   4  10
BRANCH   2  14
ATOM     14  O   UNL     1      -1.422  -4.522  -6.101  0.00  0.00    +0.000 OA
ATOM     15  H   UNL     1      -2.215  -4.006  -5.878  0.00  0.00    +0.000 HD
ENDBRANCH   2  14
BRANCH   1  16
ATOM     16  C   UNL     1       1.075  -5.618  -6.949  0.00  0.00    +0.000 C 
ATOM     17  H   UNL     1       0.247  -6.313  -6.785  0.00  0.00    +0.000 HD
BRANCH  16  18
ATOM     18  C   UNL     1       1.804  -5.553  -5.594  0.00  0.00    +0.000 C 
ATOM     19  H   UNL     1       1.992  -4.523  -5.277  0.00  0.00    +0.000 HD
ATOM     20  H   UNL     1       2.772  -6.064  -5.653  0.00  0.00    +0.000 HD
ATOM     21  H   UNL     1       1.213  -6.042  -4.812  0.00  0.00    +0.000 HD
ENDBRANCH  16  18
BRANCH  16  22
ATOM     22  C   UNL     1       1.981  -6.288  -7.998  0.00  0.00    +0.000 C 
ATOM     23  H   UNL     1       2.917  -5.730  -8.118  0.00  0.00    +0.000 HD
ATOM     24  H   UNL     1       1.483  -6.321  -8.974  0.00  0.00    +0.000 HD
ATOM     25  H   UNL     1       2.237  -7.317  -7.724  0.00  0.00    +0.000 HD
ENDBRANCH  16  22
ENDBRANCH   1  16
TORSDOF 5
ENDMDL
MODEL 2
REMARK VINA RESULT:    -5.104     17.749     18.679
REMARK INTER + INTRA:          -6.208
REMARK INTER:                  -6.023
REMARK INTRA:                  -0.185
REMARK UNBOUND:                -0.209
REMARK  Name = 6989
REMARK  5 active torsions:
REMARK  status: ('A' for Active; 'I' for Inactive)
REMARK    1  A    between atoms: O_1  and  C_6
REMARK    2  A    between atoms: C_2  and  C_3
REMARK    3  A    between atoms: C_2  and  C_4
REMARK    4  A    between atoms: C_2  and  C_5
REMARK    5  A    between atoms: C_8  and  C_11
REMARK                            x       y       z     vdW  Elec       q    Type
REMARK                         _______ _______ _______ _____ _____    ______ ____
ROOT
ATOM      1  C   UNL     1      14.730   6.499  -1.559  0.00  0.00    +0.000 A 
ATOM      2  C   UNL     1      13.552   6.302  -0.840  0.00  0.00    +0.000 A 
ATOM      3  C   UNL     1      15.711   5.507  -1.575  0.00  0.00    +0.000 A 
ATOM      4  C   UNL     1      14.335   4.123  -0.151  0.00  0.00    +0.000 A 
ATOM      5  C   UNL     1      13.353   5.114  -0.135  0.00  0.00    +0.000 A 
ATOM      6  C   UNL     1      15.513   4.320  -0.871  0.00  0.00    +0.000 A 
ATOM      7  H   UNL     1      16.637   5.636  -2.129  0.00  0.00    +0.000 HD
ATOM      8  H   UNL     1      12.432   4.966   0.422  0.00  0.00    +0.000 HD
ATOM      9  H   UNL     1      16.284   3.553  -0.892  0.00  0.00    +0.000 HD
ENDROOT
BRANCH   4  10
ATOM     10  C   UNL     1      14.124   2.853   0.602  0.00  0.00    +0.000 C 
ATOM     11  H   UNL     1      14.801   2.068   0.248  0.00  0.00    +0.000 HD
ATOM     12  H   UNL     1      14.301   3.016   1.670  0.00  0.00    +0.000 HD
ATOM     13  H   UNL     1      13.103   2.479   0.469  0.00  0.00    +0.000 HD
ENDBRANCH   4  10
BRANCH   2  14
ATOM     14  O   UNL     1      12.583   7.260  -0.814  0.00  0.00    +0.000 OA
ATOM     15  H   UNL     1      11.806   6.907  -0.349  0.00  0.00    +0.000 HD
ENDBRANCH   2  14
BRANCH   1  16
ATOM     16  C   UNL     1      14.958   7.763  -2.318  0.00  0.00    +0.000 C 
ATOM     17  H   UNL     1      14.457   8.610  -1.840  0.00  0.00    +0.000 HD
BRANCH  16  18
ATOM     18  C   UNL     1      14.364   7.711  -3.738  0.00  0.00    +0.000 C 
ATOM     19  H   UNL     1      14.384   6.700  -4.156  0.00  0.00    +0.000 HD
ATOM     20  H   UNL     1      14.929   8.361  -4.416  0.00  0.00    +0.000 HD
ATOM     21  H   UNL     1      13.323   8.053  -3.736  0.00  0.00    +0.000 HD
ENDBRANCH  16  18
BRANCH  16  22
ATOM     22  C   UNL     1      16.448   8.145  -2.389  0.00  0.00    +0.000 C 
ATOM     23  H   UNL     1      16.953   7.919  -1.443  0.00  0.00    +0.000 HD
ATOM     24  H   UNL     1      16.561   9.219  -2.582  0.00  0.00    +0.000 HD
ATOM     25  H   UNL     1      16.973   7.609  -3.186  0.00  0.00    +0.000 HD
ENDBRANCH  16  22
ENDBRANCH   1  16
TORSDOF 5
ENDMDL
MODEL 3
REMARK VINA RESULT:    -4.899     14.713     15.591
REMARK INTER + INTRA:          -5.967
REMARK INTER:                  -5.758
REMARK INTRA:                  -0.209
REMARK UNBOUND:                -0.209
REMARK  Name = 6989
REMARK  5 active torsions:
REMARK  status: ('A' for Active; 'I' for Inactive)
REMARK    1  A    between atoms: O_1  and  C_6
REMARK    2  A    between atoms: C_2  and  C_3
REMARK    3  A    between atoms: C_2  and  C_4
REMARK    4  A    between atoms: C_2  and  C_5
REMARK    5  A    between atoms: C_8  and  C_11
REMARK                            x       y       z     vdW  Elec       q    Type
REMARK                         _______ _______ _______ _____ _____    ______ ____
ROOT
ATOM      1  C   UNL     1       5.551   5.166 -18.882  0.00  0.00    +0.000 A 
ATOM      2  C   UNL     1       4.947   6.270 -18.281  0.00  0.00    +0.000 A 
ATOM      3  C   UNL     1       4.869   4.447 -19.865  0.00  0.00    +0.000 A 
ATOM      4  C   UNL     1       2.980   5.937 -19.644  0.00  0.00    +0.000 A 
ATOM      5  C   UNL     1       3.661   6.657 -18.662  0.00  0.00    +0.000 A 
ATOM      6  C   UNL     1       3.584   4.833 -20.245  0.00  0.00    +0.000 A 
ATOM      7  H   UNL     1       5.318   3.584 -20.347  0.00  0.00    +0.000 HD
ATOM      8  H   UNL     1       3.197   7.519 -18.191  0.00  0.00    +0.000 HD
ATOM      9  H   UNL     1       3.064   4.266 -21.013  0.00  0.00    +0.000 HD
ENDROOT
BRANCH   4  10
ATOM     10  C   UNL     1       1.606   6.349 -20.052  0.00  0.00    +0.000 C 
ATOM     11  H   UNL     1       1.235   5.728 -20.874  0.00  0.00    +0.000 HD
ATOM     12  H   UNL     1       0.920   6.258 -19.204  0.00  0.00    +0.000 HD
ATOM     13  H   UNL     1       1.592   7.386 -20.404  0.00  0.00    +0.000 HD
ENDBRANCH   4  10
BRANCH   2  14
ATOM     14  O   UNL     1       5.599   6.984 -17.320  0.00  0.00    +0.000 OA
ATOM     15  H   UNL     1       6.468   7.250 -17.663  0.00  0.00    +0.000 HD
ENDBRANCH   2  14
BRANCH   1  16
ATOM     16  C   UNL     1       6.925   4.739 -18.487  0.00  0.00    +0.000 C 
ATOM     17  H   UNL     1       7.234   5.212 -17.550  0.00  0.00    +0.000 HD
BRANCH  16  18
ATOM     18  C   UNL     1       7.992   5.171 -19.511  0.00  0.00    +0.000 C 
ATOM     19  H   UNL     1       8.385   4.322 -20.078  0.00  0.00    +0.000 HD
ATOM     20  H   UNL     1       8.837   5.652 -19.006  0.00  0.00    +0.000 HD
ATOM     21  H   UNL     1       7.575   5.889 -20.227  0.00  0.00    +0.000 HD
ENDBRANCH  16  18
BRANCH  16  22
ATOM     22  C   UNL     1       7.021   3.223 -18.241  0.00  0.00    +0.000 C 
ATOM     23  H   UNL     1       8.067   2.895 -18.237  0.00  0.00    +0.000 HD
ATOM     24  H   UNL     1       6.499   2.670 -19.030  0.00  0.00    +0.000 HD
ATOM     25  H   UNL     1       6.575   2.932 -17.284  0.00  0.00    +0.000 HD
ENDBRANCH  16  22
ENDBRANCH   1  16
TORSDOF 5
ENDMDL
MODEL 4
REMARK VINA RESULT:    -4.886     15.526     17.215
REMARK INTER + INTRA:          -5.952
REMARK INTER:                  -5.761
REMARK INTRA:                  -0.191
REMARK UNBOUND:                -0.209
REMARK  Name = 6989
REMARK  5 active torsions:
REMARK  status: ('A' for Active; 'I' for Inactive)
REMARK    1  A    between atoms: O_1  and  C_6
REMARK    2  A    between atoms: C_2  and  C_3
REMARK    3  A    between atoms: C_2  and  C_4
REMARK    4  A    between atoms: C_2  and  C_5
REMARK    5  A    between atoms: C_8  and  C_11
REMARK                            x       y       z     vdW  Elec       q    Type
REMARK                         _______ _______ _______ _____ _____    ______ ____
ROOT
ATOM      1  C   UNL     1      -7.143 -14.395   2.566  0.00  0.00    +0.000 A 
ATOM      2  C   UNL     1      -7.627 -15.425   3.373  0.00  0.00    +0.000 A 
ATOM      3  C   UNL     1      -6.900 -13.135   3.114  0.00  0.00    +0.000 A 
ATOM      4  C   UNL     1      -7.627 -13.935   5.275  0.00  0.00    +0.000 A 
ATOM      5  C   UNL     1      -7.869 -15.195   4.727  0.00  0.00    +0.000 A 
ATOM      6  C   UNL     1      -7.142 -12.906   4.468  0.00  0.00    +0.000 A 
ATOM      7  H   UNL     1      -6.522 -12.318   2.507  0.00  0.00    +0.000 HD
ATOM      8  H   UNL     1      -8.245 -16.002   5.351  0.00  0.00    +0.000 HD
ATOM      9  H   UNL     1      -6.948 -11.920   4.884  0.00  0.00    +0.000 HD
ENDROOT
BRANCH   4  10
ATOM     10  C   UNL     1      -7.886 -13.689   6.723  0.00  0.00    +0.000 C 
ATOM     11  H   UNL     1      -7.927 -14.631   7.281  0.00  0.00    +0.000 HD
ATOM     12  H   UNL     1      -7.093 -13.063   7.145  0.00  0.00    +0.000 HD
ATOM     13  H   UNL     1      -8.847 -13.186   6.873  0.00  0.00    +0.000 HD
ENDBRANCH   4  10
BRANCH   2  14
ATOM     14  O   UNL     1      -7.869 -16.661   2.854  0.00  0.00    +0.000 OA
ATOM     15  H   UNL     1      -7.532 -17.332   3.472  0.00  0.00    +0.000 HD
ENDBRANCH   2  14
BRANCH   1  16
ATOM     16  C   UNL     1      -6.878 -14.623   1.115  0.00  0.00    +0.000 C 
ATOM     17  H   UNL     1      -7.540 -15.393   0.706  0.00  0.00    +0.000 HD
BRANCH  16  18
ATOM     18  C   UNL     1      -5.456 -15.155   0.853  0.00  0.00    +0.000 C 
ATOM     19  H   UNL     1      -5.085 -14.867  -0.135  0.00  0.00    +0.000 HD
ATOM     20  H   UNL     1      -5.438 -16.249   0.909  0.00  0.00    +0.000 HD
ATOM     21  H   UNL     1      -4.754 -14.769   1.601  0.00  0.00    +0.000 HD
ENDBRANCH  16  18
BRANCH  16  22
ATOM     22  C   UNL     1      -7.129 -13.363   0.267  0.00  0.00    +0.000 C 
ATOM     23  H   UNL     1      -7.366 -13.632  -0.769  0.00  0.00    +0.000 HD
ATOM     24  H   UNL     1      -6.238 -12.725   0.252  0.00  0.00    +0.000 HD
ATOM     25  H   UNL     1      -7.958 -12.763   0.656  0.00  0.00    +0.000 HD
ENDBRANCH  16  22
ENDBRANCH   1  16
TORSDOF 5
ENDMDL
MODEL 5
REMARK VINA RESULT:    -4.720     16.758     18.620
REMARK INTER + INTRA:          -5.757
REMARK INTER:                  -5.562
REMARK INTRA:                  -0.195
REMARK UNBOUND:                -0.209
REMARK  Name = 6989
REMARK  5 active torsions:
REMARK  status: ('A' for Active; 'I' for Inactive)
REMARK    1  A    between atoms: O_1  and  C_6
REMARK    2  A    between atoms: C_2  and  C_3
REMARK    3  A    between atoms: C_2  and  C_4
REMARK    4  A    between atoms: C_2  and  C_5
REMARK    5  A    between atoms: C_8  and  C_11
REMARK                            x       y       z     vdW  Elec       q    Type
REMARK                         _______ _______ _______ _____ _____    ______ ____
ROOT
ATOM      1  C   UNL     1      -7.442 -14.405   4.149  0.00  0.00    +0.000 A 
ATOM      2  C   UNL     1      -8.041 -13.844   5.277  0.00  0.00    +0.000 A 
ATOM      3  C   UNL     1      -7.218 -15.781   4.090  0.00  0.00    +0.000 A 
ATOM      4  C   UNL     1      -8.194 -16.035   6.285  0.00  0.00    +0.000 A 
ATOM      5  C   UNL     1      -8.417 -14.659   6.345  0.00  0.00    +0.000 A 
ATOM      6  C   UNL     1      -7.594 -16.595   5.158  0.00  0.00    +0.000 A 
ATOM      7  H   UNL     1      -6.754 -16.241   3.222  0.00  0.00    +0.000 HD
ATOM      8  H   UNL     1      -8.886 -14.216   7.220  0.00  0.00    +0.000 HD
ATOM      9  H   UNL     1      -7.417 -17.666   5.099  0.00  0.00    +0.000 HD
ENDROOT
BRANCH   4  10
ATOM     10  C   UNL     1      -8.596 -16.906   7.427  0.00  0.00    +0.000 C 
ATOM     11  H   UNL     1      -8.824 -16.309   8.317  0.00  0.00    +0.000 HD
ATOM     12  H   UNL     1      -9.481 -17.491   7.159  0.00  0.00    +0.000 HD
ATOM     13  H   UNL     1      -7.790 -17.595   7.702  0.00  0.00    +0.000 HD
ENDBRANCH   4  10
BRANCH   2  14
ATOM     14  O   UNL     1      -8.267 -12.502   5.351  0.00  0.00    +0.000 OA
ATOM     15  H   UNL     1      -8.740 -12.220   4.551  0.00  0.00    +0.000 HD
ENDBRANCH   2  14
BRANCH   1  16
ATOM     16  C   UNL     1      -7.033 -13.549   2.997  0.00  0.00    +0.000 C 
ATOM     17  H   UNL     1      -7.677 -12.668   2.908  0.00  0.00    +0.000 HD
BRANCH  16  18
ATOM     18  C   UNL     1      -7.177 -14.274   1.646  0.00  0.00    +0.000 C 
ATOM     19  H   UNL     1      -6.208 -14.451   1.169  0.00  0.00    +0.000 HD
ATOM     20  H   UNL     1      -7.784 -13.680   0.954  0.00  0.00    +0.000 HD
ATOM     21  H   UNL     1      -7.669 -15.244   1.777  0.00  0.00    +0.000 HD
ENDBRANCH  16  18
BRANCH  16  22
ATOM     22  C   UNL     1      -5.601 -13.005   3.148  0.00  0.00    +0.000 C 
ATOM     23  H   UNL     1      -4.865 -13.755   2.835  0.00  0.00    +0.000 HD
ATOM     24  H   UNL     1      -5.394 -12.749   4.194  0.00  0.00    +0.000 HD
ATOM     25  H   UNL     1      -5.437 -12.104   2.549  0.00  0.00    +0.000 HD
ENDBRANCH  16  22
ENDBRANCH   1  16
TORSDOF 5
ENDMDL
MODEL 6
REMARK VINA RESULT:    -4.618     15.359     16.109
REMARK INTER + INTRA:          -5.637
REMARK INTER:                  -5.428
REMARK INTRA:                  -0.208
REMARK UNBOUND:                -0.209
REMARK  Name = 6989
REMARK  5 active torsions:
REMARK  status: ('A' for Active; 'I' for Inactive)
REMARK    1  A    between atoms: O_1  and  C_6
REMARK    2  A    between atoms: C_2  and  C_3
REMARK    3  A    between atoms: C_2  and  C_4
REMARK    4  A    between atoms: C_2  and  C_5
REMARK    5  A    between atoms: C_8  and  C_11
REMARK                            x       y       z     vdW  Elec       q    Type
REMARK                         _______ _______ _______ _____ _____    ______ ____
ROOT
ATOM      1  C   UNL     1       1.298   3.720 -21.450  0.00  0.00    +0.000 A 
ATOM      2  C   UNL     1       2.293   2.776 -21.699  0.00  0.00    +0.000 A 
ATOM      3  C   UNL     1       1.561   4.805 -20.612  0.00  0.00    +0.000 A 
ATOM      4  C   UNL     1       3.814   4.000 -20.276  0.00  0.00    +0.000 A 
ATOM      5  C   UNL     1       3.551   2.915 -21.113  0.00  0.00    +0.000 A 
ATOM      6  C   UNL     1       2.818   4.944 -20.026  0.00  0.00    +0.000 A 
ATOM      7  H   UNL     1       0.803   5.554 -20.403  0.00  0.00    +0.000 HD
ATOM      8  H   UNL     1       4.323   2.176 -21.313  0.00  0.00    +0.000 HD
ATOM      9  H   UNL     1       3.012   5.795 -19.377  0.00  0.00    +0.000 HD
ENDROOT
BRANCH   4  10
ATOM     10  C   UNL     1       5.159   4.149 -19.649  0.00  0.00    +0.000 C 
ATOM     11  H   UNL     1       5.937   3.698 -20.273  0.00  0.00    +0.000 HD
ATOM     12  H   UNL     1       5.391   5.209 -19.507  0.00  0.00    +0.000 HD
ATOM     13  H   UNL     1       5.199   3.648 -18.676  0.00  0.00    +0.000 HD
ENDBRANCH   4  10
BRANCH   2  14
ATOM     14  O   UNL     1       2.053   1.710 -22.514  0.00  0.00    +0.000 OA
ATOM     15  H   UNL     1       1.779   2.039 -23.387  0.00  0.00    +0.000 HD
ENDBRANCH   2  14
BRANCH   1  16
ATOM     16  C   UNL     1      -0.053   3.587 -22.068  0.00  0.00    +0.000 C 
ATOM     17  H   UNL     1      -0.023   2.947 -22.955  0.00  0.00    +0.000 HD
BRANCH  16  18
ATOM     18  C   UNL     1      -0.601   4.932 -22.579  0.00  0.00    +0.000 C 
ATOM     19  H   UNL     1      -0.267   5.153 -23.598  0.00  0.00    +0.000 HD
ATOM     20  H   UNL     1      -0.266   5.753 -21.936  0.00  0.00    +0.000 HD
ATOM     21  H   UNL     1      -1.697   4.931 -22.578  0.00  0.00    +0.000 HD
ENDBRANCH  16  18
BRANCH  16  22
ATOM     22  C   UNL     1      -1.073   2.934 -21.117  0.00  0.00    +0.000 C 
ATOM     23  H   UNL     1      -1.204   1.872 -21.356  0.00  0.00    +0.000 HD
ATOM     24  H   UNL     1      -2.051   3.422 -21.209  0.00  0.00    +0.000 HD
ATOM     25  H   UNL     1      -0.765   3.007 -20.069  0.00  0.00    +0.000 HD
ENDBRANCH  16  22
ENDBRANCH   1  16
TORSDOF 5
ENDMDL
MODEL 7
REMARK VINA RESULT:    -4.587     16.565     18.472
REMARK INTER + INTRA:          -5.601
REMARK INTER:                  -5.391
REMARK INTRA:                  -0.210
REMARK UNBOUND:                -0.209
REMARK  Name = 6989
REMARK  5 active torsions:
REMARK  status: ('A' for Active; 'I' for Inactive)
REMARK    1  A    between atoms: O_1  and  C_6
REMARK    2  A    between atoms: C_2  and  C_3
REMARK    3  A    between atoms: C_2  and  C_4
REMARK    4  A    between atoms: C_2  and  C_5
REMARK    5  A    between atoms: C_8  and  C_11
REMARK                            x       y       z     vdW  Elec       q    Type
REMARK                         _______ _______ _______ _____ _____    ______ ____
ROOT
ATOM      1  C   UNL     1      -6.721 -14.416   4.287  0.00  0.00    +0.000 A 
ATOM      2  C   UNL     1      -6.423 -15.758   4.521  0.00  0.00    +0.000 A 
ATOM      3  C   UNL     1      -7.639 -13.753   5.104  0.00  0.00    +0.000 A 
ATOM      4  C   UNL     1      -7.958 -15.775   6.386  0.00  0.00    +0.000 A 
ATOM      5  C   UNL     1      -7.041 -16.439   5.570  0.00  0.00    +0.000 A 
ATOM      6  C   UNL     1      -8.256 -14.433   6.153  0.00  0.00    +0.000 A 
ATOM      7  H   UNL     1      -7.886 -12.708   4.942  0.00  0.00    +0.000 HD
ATOM      8  H   UNL     1      -6.803 -17.484   5.748  0.00  0.00    +0.000 HD
ATOM      9  H   UNL     1      -8.968 -13.906   6.783  0.00  0.00    +0.000 HD
ENDROOT
BRANCH   4  10
ATOM     10  C   UNL     1      -8.619 -16.502   7.509  0.00  0.00    +0.000 C 
ATOM     11  H   UNL     1      -9.285 -15.838   8.070  0.00  0.00    +0.000 HD
ATOM     12  H   UNL     1      -9.204 -17.341   7.119  0.00  0.00    +0.000 HD
ATOM     13  H   UNL     1      -7.881 -16.889   8.219  0.00  0.00    +0.000 HD
ENDBRANCH   4  10
BRANCH   2  14
ATOM     14  O   UNL     1      -5.530 -16.421   3.733  0.00  0.00    +0.000 OA
ATOM     15  H   UNL     1      -4.639 -16.073   3.909  0.00  0.00    +0.000 HD
ENDBRANCH   2  14
BRANCH   1  16
ATOM     16  C   UNL     1      -6.070 -13.673   3.169  0.00  0.00    +0.000 C 
ATOM     17  H   UNL     1      -5.198 -14.214   2.787  0.00  0.00    +0.000 HD
BRANCH  16  18
ATOM     18  C   UNL     1      -5.516 -12.307   3.615  0.00  0.00    +0.000 C 
ATOM     19  H   UNL     1      -4.542 -12.091   3.164  0.00  0.00    +0.000 HD
ATOM     20  H   UNL     1      -5.391 -12.280   4.703  0.00  0.00    +0.000 HD
ATOM     21  H   UNL     1      -6.202 -11.500   3.335  0.00  0.00    +0.000 HD
ENDBRANCH  16  18
BRANCH  16  22
ATOM     22  C   UNL     1      -7.007 -13.488   1.961  0.00  0.00    +0.000 C 
ATOM     23  H   UNL     1      -6.651 -12.678   1.314  0.00  0.00    +0.000 HD
ATOM     24  H   UNL     1      -8.019 -13.231   2.295  0.00  0.00    +0.000 HD
ATOM     25  H   UNL     1      -7.080 -14.396   1.354  0.00  0.00    +0.000 HD
ENDBRANCH  16  22
ENDBRANCH   1  16
TORSDOF 5
ENDMDL
MODEL 8
REMARK VINA RESULT:    -4.587     14.492     16.095
REMARK INTER + INTRA:          -5.601
REMARK INTER:                  -5.403
REMARK INTRA:                  -0.198
REMARK UNBOUND:                -0.209
REMARK  Name = 6989
REMARK  5 active torsions:
REMARK  status: ('A' for Active; 'I' for Inactive)
REMARK    1  A    between atoms: O_1  and  C_6
REMARK    2  A    between atoms: C_2  and  C_3
REMARK    3  A    between atoms: C_2  and  C_4
REMARK    4  A    between atoms: C_2  and  C_5
REMARK    5  A    between atoms: C_8  and  C_11
REMARK                            x       y       z     vdW  Elec       q    Type
REMARK                         _______ _______ _______ _____ _____    ______ ____
ROOT
ATOM      1  C   UNL     1     -14.575  -4.340  -4.599  0.00  0.00    +0.000 A 
ATOM      2  C   UNL     1     -14.428  -5.715  -4.417  0.00  0.00    +0.000 A 
ATOM      3  C   UNL     1     -15.617  -3.660  -3.966  0.00  0.00    +0.000 A 
ATOM      4  C   UNL     1     -16.364  -5.731  -2.971  0.00  0.00    +0.000 A 
ATOM      5  C   UNL     1     -15.322  -6.411  -3.603  0.00  0.00    +0.000 A 
ATOM      6  C   UNL     1     -16.511  -4.356  -3.153  0.00  0.00    +0.000 A 
ATOM      7  H   UNL     1     -15.752  -2.590  -4.091  0.00  0.00    +0.000 HD
ATOM      8  H   UNL     1     -15.201  -7.482  -3.464  0.00  0.00    +0.000 HD
ATOM      9  H   UNL     1     -17.317  -3.816  -2.664  0.00  0.00    +0.000 HD
ENDROOT
BRANCH   4  10
ATOM     10  C   UNL     1     -17.320  -6.475  -2.101  0.00  0.00    +0.000 C 
ATOM     11  H   UNL     1     -17.845  -7.252  -2.667  0.00  0.00    +0.000 HD
ATOM     12  H   UNL     1     -16.784  -6.945  -1.271  0.00  0.00    +0.000 HD
ATOM     13  H   UNL     1     -18.085  -5.807  -1.691  0.00  0.00    +0.000 HD
ENDBRANCH   4  10
BRANCH   2  14
ATOM     14  O   UNL     1     -13.417  -6.394  -5.027  0.00  0.00    +0.000 OA
ATOM     15  H   UNL     1     -13.787  -7.177  -5.469  0.00  0.00    +0.000 HD
ENDBRANCH   2  14
BRANCH   1  16
ATOM     16  C   UNL     1     -13.628  -3.580  -5.466  0.00  0.00    +0.000 C 
ATOM     17  H   UNL     1     -12.639  -4.048  -5.480  0.00  0.00    +0.000 HD
BRANCH  16  18
ATOM     18  C   UNL     1     -13.374  -2.152  -4.947  0.00  0.00    +0.000 C 
ATOM     19  H   UNL     1     -12.401  -1.765  -5.266  0.00  0.00    +0.000 HD
ATOM     20  H   UNL     1     -13.397  -2.130  -3.852  0.00  0.00    +0.000 HD
ATOM     21  H   UNL     1     -14.145  -1.463  -5.313  0.00  0.00    +0.000 HD
ENDBRANCH  16  18
BRANCH  16  22
ATOM     22  C   UNL     1     -14.087  -3.528  -6.934  0.00  0.00    +0.000 C 
ATOM     23  H   UNL     1     -13.598  -4.313  -7.522  0.00  0.00    +0.000 HD
ATOM     24  H   UNL     1     -13.832  -2.562  -7.384  0.00  0.00    +0.000 HD
ATOM     25  H   UNL     1     -15.170  -3.662  -7.032  0.00  0.00    +0.000 HD
ENDBRANCH  16  22
ENDBRANCH   1  16
TORSDOF 5
ENDMDL
MODEL 9
REMARK VINA RESULT:    -4.531     15.051     16.446
REMARK INTER + INTRA:          -5.535
REMARK INTER:                  -5.326
REMARK INTRA:                  -0.209
REMARK UNBOUND:                -0.209
REMARK  Name = 6989
REMARK  5 active torsions:
REMARK  status: ('A' for Active; 'I' for Inactive)
REMARK    1  A    between atoms: O_1  and  C_6
REMARK    2  A    between atoms: C_2  and  C_3
REMARK    3  A    between atoms: C_2  and  C_4
REMARK    4  A    between atoms: C_2  and  C_5
REMARK    5  A    between atoms: C_8  and  C_11
REMARK                            x       y       z     vdW  Elec       q    Type
REMARK                         _______ _______ _______ _____ _____    ______ ____
ROOT
ATOM      1  C   UNL     1     -14.763  -5.126  -4.109  0.00  0.00    +0.000 A 
ATOM      2  C   UNL     1     -15.543  -3.988  -3.908  0.00  0.00    +0.000 A 
ATOM      3  C   UNL     1     -15.241  -6.378  -3.718  0.00  0.00    +0.000 A 
ATOM      4  C   UNL     1     -17.279  -5.351  -2.925  0.00  0.00    +0.000 A 
ATOM      5  C   UNL     1     -16.802  -4.100  -3.315  0.00  0.00    +0.000 A 
ATOM      6  C   UNL     1     -16.499  -6.489  -3.126  0.00  0.00    +0.000 A 
ATOM      7  H   UNL     1     -14.652  -7.278  -3.865  0.00  0.00    +0.000 HD
ATOM      8  H   UNL     1     -17.406  -3.209  -3.163  0.00  0.00    +0.000 HD
ATOM      9  H   UNL     1     -16.861  -7.470  -2.827  0.00  0.00    +0.000 HD
ENDROOT
BRANCH   4  10
ATOM     10  C   UNL     1     -18.624  -5.471  -2.291  0.00  0.00    +0.000 C 
ATOM     11  H   UNL     1     -18.896  -6.522  -2.140  0.00  0.00    +0.000 HD
ATOM     12  H   UNL     1     -18.629  -4.963  -1.322  0.00  0.00    +0.000 HD
ATOM     13  H   UNL     1     -19.400  -5.028  -2.924  0.00  0.00    +0.000 HD
ENDBRANCH   4  10
BRANCH   2  14
ATOM     14  O   UNL     1     -15.092  -2.758  -4.283  0.00  0.00    +0.000 OA
ATOM     15  H   UNL     1     -14.975  -2.749  -5.248  0.00  0.00    +0.000 HD
ENDBRANCH   2  14
BRANCH   1  16
ATOM     16  C   UNL     1     -13.415  -5.025  -4.741  0.00  0.00    +0.000 C 
ATOM     17  H   UNL     1     -13.092  -3.982  -4.824  0.00  0.00    +0.000 HD
BRANCH  16  18
ATOM     18  C   UNL     1     -13.403  -5.551  -6.188  0.00  0.00    +0.000 C 
ATOM     19  H   UNL     1     -12.865  -6.500  -6.277  0.00  0.00    +0.000 HD
ATOM     20  H   UNL     1     -12.918  -4.831  -6.856  0.00  0.00    +0.000 HD
ATOM     21  H   UNL     1     -14.425  -5.710  -6.552  0.00  0.00    +0.000 HD
ENDBRANCH  16  18
BRANCH  16  22
ATOM     22  C   UNL     1     -12.325  -5.735  -3.918  0.00  0.00    +0.000 C 
ATOM     23  H   UNL     1     -12.453  -6.823  -3.960  0.00  0.00    +0.000 HD
ATOM     24  H   UNL     1     -12.378  -5.432  -2.866  0.00  0.00    +0.000 HD
ATOM     25  H   UNL     1     -11.318  -5.501  -4.279  0.00  0.00    +0.000 HD
ENDBRANCH  16  22
ENDBRANCH   1  16
TORSDOF 5
ENDMDL
MODEL 10
REMARK VINA RESULT:    -4.492     15.161     15.977
REMARK INTER + INTRA:          -5.489
REMARK INTER:                  -5.280
REMARK INTRA:                  -0.209
REMARK UNBOUND:                -0.209
REMARK  Name = 6989
REMARK  5 active torsions:
REMARK  status: ('A' for Active; 'I' for Inactive)
REMARK    1  A    between atoms: O_1  and  C_6
REMARK    2  A    between atoms: C_2  and  C_3
REMARK    3  A    between atoms: C_2  and  C_4
REMARK    4  A    between atoms: C_2  and  C_5
REMARK    5  A    between atoms: C_8  and  C_11
REMARK                            x       y       z     vdW  Elec       q    Type
REMARK                         _______ _______ _______ _____ _____    ______ ____
ROOT
ATOM      1  C   UNL     1       1.069   4.780 -20.632  0.00  0.00    +0.000 A 
ATOM      2  C   UNL     1       1.138   5.983 -19.929  0.00  0.00    +0.000 A 
ATOM      3  C   UNL     1       2.224   4.021 -20.829  0.00  0.00    +0.000 A 
ATOM      4  C   UNL     1       3.514   5.668 -19.622  0.00  0.00    +0.000 A 
ATOM      5  C   UNL     1       2.360   6.428 -19.424  0.00  0.00    +0.000 A 
ATOM      6  C   UNL     1       3.445   4.465 -20.324  0.00  0.00    +0.000 A 
ATOM      7  H   UNL     1       2.195   3.081 -21.372  0.00  0.00    +0.000 HD
ATOM      8  H   UNL     1       2.407   7.365 -18.876  0.00  0.00    +0.000 HD
ATOM      9  H   UNL     1       4.337   3.865 -20.483  0.00  0.00    +0.000 HD
ENDROOT
BRANCH   4  10
ATOM     10  C   UNL     1       4.820   6.143 -19.082  0.00  0.00    +0.000 C 
ATOM     11  H   UNL     1       4.964   7.211 -19.280  0.00  0.00    +0.000 HD
ATOM     12  H   UNL     1       4.862   5.977 -18.001  0.00  0.00    +0.000 HD
ATOM     13  H   UNL     1       5.658   5.615 -19.550  0.00  0.00    +0.000 HD
ENDBRANCH   4  10
BRANCH   2  14
ATOM     14  O   UNL     1       0.021   6.737 -19.727  0.00  0.00    +0.000 OA
ATOM     15  H   UNL     1       0.039   7.088 -18.821  0.00  0.00    +0.000 HD
ENDBRANCH   2  14
BRANCH   1  16
ATOM     16  C   UNL     1      -0.229   4.289 -21.179  0.00  0.00    +0.000 C 
ATOM     17  H   UNL     1      -1.073   4.847 -20.761  0.00  0.00    +0.000 HD
BRANCH  16  18
ATOM     18  C   UNL     1      -0.509   2.822 -20.803  0.00  0.00    +0.000 C 
ATOM     19  H   UNL     1      -0.561   2.175 -21.684  0.00  0.00    +0.000 HD
ATOM     20  H   UNL     1      -1.463   2.736 -20.271  0.00  0.00    +0.000 HD
ATOM     21  H   UNL     1       0.278   2.433 -20.147  0.00  0.00    +0.000 HD
ENDBRANCH  16  18
BRANCH  16  22
ATOM     22  C   UNL     1      -0.328   4.465 -22.706  0.00  0.00    +0.000 C 
ATOM     23  H   UNL     1      -0.630   5.488 -22.961  0.00  0.00    +0.000 HD
ATOM     24  H   UNL     1      -1.074   3.781 -23.125  0.00  0.00    +0.000 HD
ATOM     25  H   UNL     1       0.625   4.262 -23.206  0.00  0.00    +0.000 HD
ENDBRANCH  16  22
ENDBRANCH   1  16
TORSDOF 5
ENDMDL
