MODEL 1
REMARK VINA RESULT:    -4.349      0.000      0.000
REMARK INTER + INTRA:          -7.511
REMARK INTER:                  -6.381
REMARK INTRA:                  -1.130
REMARK UNBOUND:                -0.746
REMARK  Name = 8186
REMARK  10 active torsions:
REMARK  status: ('A' for Active; 'I' for Inactive)
REMARK    1  A    between atoms: C_2  and  C_3
REMARK    2  A    between atoms: C_2  and  C_4
REMARK    3  A    between atoms: C_3  and  C_5
REMARK    4  A    between atoms: C_4  and  C_6
REMARK    5  A    between atoms: C_5  and  C_7
REMARK    6  A    between atoms: C_6  and  C_8
REMARK    7  A    between atoms: C_7  and  C_9
REMARK    8  A    between atoms: C_8  and  C_10
REMARK    9  A    between atoms: C_9  and  C_11
REMARK   10  A    between atoms: C_10  and  C_12
REMARK                            x       y       z     vdW  Elec       q    Type
REMARK                         _______ _______ _______ _____ _____    ______ ____
ROOT
ATOM      1  C   UNL     1      -8.008 -13.684   6.102  0.00  0.00    +0.000 C 
ATOM      2  H   UNL     1      -7.042 -13.833   6.599  0.00  0.00    +0.000 HD
ATOM      3  H   UNL     1      -8.594 -13.015   6.744  0.00  0.00    +0.000 HD
ENDROOT
BRANCH   1   4
ATOM      4  C   UNL     1      -8.730 -15.029   5.988  0.00  0.00    +0.000 C 
ATOM      5  H   UNL     1      -9.709 -14.959   6.477  0.00  0.00    +0.000 HD
ATOM      6  H   UNL     1      -8.920 -15.243   4.929  0.00  0.00    +0.000 HD
BRANCH   4   7
ATOM      7  C   UNL     1      -7.945 -16.192   6.603  0.00  0.00    +0.000 C 
ATOM      8  H   UNL     1      -8.082 -16.181   7.691  0.00  0.00    +0.000 HD
ATOM      9  H   UNL     1      -8.368 -17.139   6.241  0.00  0.00    +0.000 HD
BRANCH   7  10
ATOM     10  C   UNL     1      -6.448 -16.151   6.286  0.00  0.00    +0.000 C 
ATOM     11  H   UNL     1      -6.079 -15.123   6.390  0.00  0.00    +0.000 HD
ATOM     12  H   UNL     1      -5.905 -16.766   7.014  0.00  0.00    +0.000 HD
BRANCH  10  13
ATOM     13  C   UNL     1      -6.167 -16.658   4.871  0.00  0.00    +0.000 C 
ATOM     14  H   UNL     1      -6.838 -16.165   4.158  0.00  0.00    +0.000 HD
ATOM     15  H   UNL     1      -6.369 -17.735   4.814  0.00  0.00    +0.000 HD
BRANCH  13  16
ATOM     16  C   UNL     1      -4.725 -16.402   4.463  0.00  0.00    +0.000 C 
ATOM     17  H   UNL     1      -4.578 -16.604   3.397  0.00  0.00    +0.000 HD
ATOM     18  H   UNL     1      -4.459 -15.357   4.651  0.00  0.00    +0.000 HD
ATOM     19  H   UNL     1      -4.039 -17.036   5.032  0.00  0.00    +0.000 HD
ENDBRANCH  13  16
ENDBRANCH  10  13
ENDBRANCH   7  10
ENDBRANCH   4   7
ENDBRANCH   1   4
BRANCH   1  20
ATOM     20  C   UNL     1      -7.776 -13.005   4.748  0.00  0.00    +0.000 C 
ATOM     21  H   UNL     1      -8.209 -13.630   3.957  0.00  0.00    +0.000 HD
ATOM     22  H   UNL     1      -8.319 -12.051   4.730  0.00  0.00    +0.000 HD
BRANCH  20  23
ATOM     23  C   UNL     1      -6.298 -12.750   4.441  0.00  0.00    +0.000 C 
ATOM     24  H   UNL     1      -6.083 -11.679   4.540  0.00  0.00    +0.000 HD
ATOM     25  H   UNL     1      -5.678 -13.274   5.178  0.00  0.00    +0.000 HD
BRANCH  23  26
ATOM     26  C   UNL     1      -5.937 -13.221   3.032  0.00  0.00    +0.000 C 
ATOM     27  H   UNL     1      -5.508 -12.386   2.465  0.00  0.00    +0.000 HD
ATOM     28  H   UNL     1      -5.160 -13.994   3.095  0.00  0.00    +0.000 HD
BRANCH  26  29
ATOM     29  C   UNL     1      -7.158 -13.767   2.300  0.00  0.00    +0.000 C 
ATOM     30  H   UNL     1      -8.081 -13.331   2.697  0.00  0.00    +0.000 HD
ATOM     31  H   UNL     1      -7.215 -14.856   2.396  0.00  0.00    +0.000 HD
BRANCH  29  33
ATOM     32  O   UNL     1      -7.412 -14.214  -0.053  0.00  0.00    +0.000 OA
ATOM     33  C   UNL     1      -7.076 -13.434   0.834  0.00  0.00    +0.000 C 
ATOM     34  H   UNL     1      -6.686 -12.432   0.593  0.00  0.00    +0.000 HD
ENDBRANCH  29  33
ENDBRANCH  26  29
ENDBRANCH  23  26
ENDBRANCH  20  23
ENDBRANCH   1  20
TORSDOF 10
ENDMDL
MODEL 2
REMARK VINA RESULT:    -4.272     30.827     32.489
REMARK INTER + INTRA:          -7.391
REMARK INTER:                  -6.931
REMARK INTRA:                  -0.459
REMARK UNBOUND:                -0.746
REMARK  Name = 8186
REMARK  10 active torsions:
REMARK  status: ('A' for Active; 'I' for Inactive)
REMARK    1  A    between atoms: C_2  and  C_3
REMARK    2  A    between atoms: C_2  and  C_4
REMARK    3  A    between atoms: C_3  and  C_5
REMARK    4  A    between atoms: C_4  and  C_6
REMARK    5  A    between atoms: C_5  and  C_7
REMARK    6  A    between atoms: C_6  and  C_8
REMARK    7  A    between atoms: C_7  and  C_9
REMARK    8  A    between atoms: C_8  and  C_10
REMARK    9  A    between atoms: C_9  and  C_11
REMARK   10  A    between atoms: C_10  and  C_12
REMARK                            x       y       z     vdW  Elec       q    Type
REMARK                         _______ _______ _______ _____ _____    ______ ____
ROOT
ATOM      1  C   UNL     1       5.298   5.982 -18.085  0.00  0.00    +0.000 C 
ATOM      2  H   UNL     1       5.872   6.913 -18.169  0.00  0.00    +0.000 HD
ATOM      3  H   UNL     1       4.494   6.168 -17.363  0.00  0.00    +0.000 HD
ENDROOT
BRANCH   1   4
ATOM      4  C   UNL     1       6.208   4.875 -17.546  0.00  0.00    +0.000 C 
ATOM      5  H   UNL     1       7.140   5.319 -17.174  0.00  0.00    +0.000 HD
ATOM      6  H   UNL     1       5.719   4.399 -16.686  0.00  0.00    +0.000 HD
BRANCH   4   7
ATOM      7  C   UNL     1       6.544   3.804 -18.589  0.00  0.00    +0.000 C 
ATOM      8  H   UNL     1       5.945   2.908 -18.387  0.00  0.00    +0.000 HD
ATOM      9  H   UNL     1       6.245   4.167 -19.582  0.00  0.00    +0.000 HD
BRANCH   7  10
ATOM     10  C   UNL     1       8.025   3.422 -18.613  0.00  0.00    +0.000 C 
ATOM     11  H   UNL     1       8.337   3.097 -17.613  0.00  0.00    +0.000 HD
ATOM     12  H   UNL     1       8.170   2.571 -19.290  0.00  0.00    +0.000 HD
BRANCH  10  13
ATOM     13  C   UNL     1       8.893   4.596 -19.068  0.00  0.00    +0.000 C 
ATOM     14  H   UNL     1       8.377   5.542 -18.863  0.00  0.00    +0.000 HD
ATOM     15  H   UNL     1       9.055   4.543 -20.151  0.00  0.00    +0.000 HD
BRANCH  13  16
ATOM     16  C   UNL     1      10.241   4.598 -18.364  0.00  0.00    +0.000 C 
ATOM     17  H   UNL     1      10.168   5.072 -17.380  0.00  0.00    +0.000 HD
ATOM     18  H   UNL     1      10.596   3.572 -18.223  0.00  0.00    +0.000 HD
ATOM     19  H   UNL     1      10.989   5.139 -18.952  0.00  0.00    +0.000 HD
ENDBRANCH  13  16
ENDBRANCH  10  13
ENDBRANCH   7  10
ENDBRANCH   4   7
ENDBRANCH   1   4
BRANCH   1  20
ATOM     20  C   UNL     1       4.681   5.648 -19.448  0.00  0.00    +0.000 C 
ATOM     21  H   UNL     1       5.237   6.178 -20.231  0.00  0.00    +0.000 HD
ATOM     22  H   UNL     1       4.805   4.575 -19.643  0.00  0.00    +0.000 HD
BRANCH  20  23
ATOM     23  C   UNL     1       3.197   6.009 -19.547  0.00  0.00    +0.000 C 
ATOM     24  H   UNL     1       2.791   6.170 -18.541  0.00  0.00    +0.000 HD
ATOM     25  H   UNL     1       3.088   6.952 -20.096  0.00  0.00    +0.000 HD
BRANCH  23  26
ATOM     26  C   UNL     1       2.406   4.907 -20.252  0.00  0.00    +0.000 C 
ATOM     27  H   UNL     1       2.373   5.111 -21.330  0.00  0.00    +0.000 HD
ATOM     28  H   UNL     1       2.925   3.949 -20.127  0.00  0.00    +0.000 HD
BRANCH  26  29
ATOM     29  C   UNL     1       0.986   4.807 -19.705  0.00  0.00    +0.000 C 
ATOM     30  H   UNL     1       0.283   5.360 -20.337  0.00  0.00    +0.000 HD
ATOM     31  H   UNL     1       0.931   5.207 -18.687  0.00  0.00    +0.000 HD
BRANCH  29  33
ATOM     32  O   UNL     1      -0.504   2.971 -20.162  0.00  0.00    +0.000 OA
ATOM     33  C   UNL     1       0.545   3.369 -19.663  0.00  0.00    +0.000 C 
ATOM     34  H   UNL     1       1.228   2.675 -19.146  0.00  0.00    +0.000 HD
ENDBRANCH  29  33
ENDBRANCH  26  29
ENDBRANCH  23  26
ENDBRANCH  20  23
ENDBRANCH   1  20
TORSDOF 10
ENDMDL
MODEL 3
REMARK VINA RESULT:    -4.265      2.341      4.053
REMARK INTER + INTRA:          -7.380
REMARK INTER:                  -6.206
REMARK INTRA:                  -1.175
REMARK UNBOUND:                -0.746
REMARK  Name = 8186
REMARK  10 active torsions:
REMARK  status: ('A' for Active; 'I' for Inactive)
REMARK    1  A    between atoms: C_2  and  C_3
REMARK    2  A    between atoms: C_2  and  C_4
REMARK    3  A    between atoms: C_3  and  C_5
REMARK    4  A    between atoms: C_4  and  C_6
REMARK    5  A    between atoms: C_5  and  C_7
REMARK    6  A    between atoms: C_6  and  C_8
REMARK    7  A    between atoms: C_7  and  C_9
REMARK    8  A    between atoms: C_8  and  C_10
REMARK    9  A    between atoms: C_9  and  C_11
REMARK   10  A    between atoms: C_10  and  C_12
REMARK                            x       y       z     vdW  Elec       q    Type
REMARK                         _______ _______ _______ _____ _____    ______ ____
ROOT
ATOM      1  C   UNL     1      -7.016 -12.820   4.394  0.00  0.00    +0.000 C 
ATOM      2  H   UNL     1      -7.012 -11.739   4.209  0.00  0.00    +0.000 HD
ATOM      3  H   UNL     1      -6.082 -13.055   4.921  0.00  0.00    +0.000 HD
ENDROOT
BRANCH   1   4
ATOM      4  C   UNL     1      -7.035 -13.561   3.055  0.00  0.00    +0.000 C 
ATOM      5  H   UNL     1      -7.946 -14.168   2.987  0.00  0.00    +0.000 HD
ATOM      6  H   UNL     1      -7.084 -12.826   2.241  0.00  0.00    +0.000 HD
BRANCH   4   7
ATOM      7  C   UNL     1      -5.814 -14.463   2.844  0.00  0.00    +0.000 C 
ATOM      8  H   UNL     1      -6.139 -15.400   2.376  0.00  0.00    +0.000 HD
ATOM      9  H   UNL     1      -5.129 -13.977   2.136  0.00  0.00    +0.000 HD
BRANCH   7  10
ATOM     10  C   UNL     1      -5.064 -14.783   4.138  0.00  0.00    +0.000 C 
ATOM     11  H   UNL     1      -3.991 -14.599   3.997  0.00  0.00    +0.000 HD
ATOM     12  H   UNL     1      -5.406 -14.109   4.933  0.00  0.00    +0.000 HD
BRANCH  10  13
ATOM     13  C   UNL     1      -5.285 -16.235   4.562  0.00  0.00    +0.000 C 
ATOM     14  H   UNL     1      -4.811 -16.911   3.841  0.00  0.00    +0.000 HD
ATOM     15  H   UNL     1      -6.358 -16.464   4.565  0.00  0.00    +0.000 HD
BRANCH  13  16
ATOM     16  C   UNL     1      -4.718 -16.504   5.947  0.00  0.00    +0.000 C 
ATOM     17  H   UNL     1      -3.784 -17.071   5.885  0.00  0.00    +0.000 HD
ATOM     18  H   UNL     1      -4.509 -15.561   6.461  0.00  0.00    +0.000 HD
ATOM     19  H   UNL     1      -5.426 -17.074   6.557  0.00  0.00    +0.000 HD
ENDBRANCH  13  16
ENDBRANCH  10  13
ENDBRANCH   7  10
ENDBRANCH   4   7
ENDBRANCH   1   4
BRANCH   1  20
ATOM     20  C   UNL     1      -8.203 -13.171   5.297  0.00  0.00    +0.000 C 
ATOM     21  H   UNL     1      -8.832 -12.281   5.422  0.00  0.00    +0.000 HD
ATOM     22  H   UNL     1      -8.821 -13.927   4.796  0.00  0.00    +0.000 HD
BRANCH  20  23
ATOM     23  C   UNL     1      -7.785 -13.694   6.674  0.00  0.00    +0.000 C 
ATOM     24  H   UNL     1      -6.702 -13.574   6.798  0.00  0.00    +0.000 HD
ATOM     25  H   UNL     1      -8.270 -13.094   7.453  0.00  0.00    +0.000 HD
BRANCH  23  26
ATOM     26  C   UNL     1      -8.163 -15.166   6.845  0.00  0.00    +0.000 C 
ATOM     27  H   UNL     1      -7.261 -15.754   7.054  0.00  0.00    +0.000 HD
ATOM     28  H   UNL     1      -8.821 -15.274   7.716  0.00  0.00    +0.000 HD
BRANCH  26  29
ATOM     29  C   UNL     1      -8.855 -15.709   5.599  0.00  0.00    +0.000 C 
ATOM     30  H   UNL     1      -8.122 -15.995   4.837  0.00  0.00    +0.000 HD
ATOM     31  H   UNL     1      -9.532 -14.962   5.172  0.00  0.00    +0.000 HD
BRANCH  29  33
ATOM     32  O   UNL     1     -10.804 -17.121   5.523  0.00  0.00    +0.000 OA
ATOM     33  C   UNL     1      -9.668 -16.927   5.946  0.00  0.00    +0.000 C 
ATOM     34  H   UNL     1      -9.180 -17.652   6.618  0.00  0.00    +0.000 HD
ENDBRANCH  29  33
ENDBRANCH  26  29
ENDBRANCH  23  26
ENDBRANCH  20  23
ENDBRANCH   1  20
TORSDOF 10
ENDMDL
MODEL 4
REMARK VINA RESULT:    -4.222      3.405      5.400
REMARK INTER + INTRA:          -7.313
REMARK INTER:                  -6.779
REMARK INTRA:                  -0.534
REMARK UNBOUND:                -0.746
REMARK  Name = 8186
REMARK  10 active torsions:
REMARK  status: ('A' for Active; 'I' for Inactive)
REMARK    1  A    between atoms: C_2  and  C_3
REMARK    2  A    between atoms: C_2  and  C_4
REMARK    3  A    between atoms: C_3  and  C_5
REMARK    4  A    between atoms: C_4  and  C_6
REMARK    5  A    between atoms: C_5  and  C_7
REMARK    6  A    between atoms: C_6  and  C_8
REMARK    7  A    between atoms: C_7  and  C_9
REMARK    8  A    between atoms: C_8  and  C_10
REMARK    9  A    between atoms: C_9  and  C_11
REMARK   10  A    between atoms: C_10  and  C_12
REMARK                            x       y       z     vdW  Elec       q    Type
REMARK                         _______ _______ _______ _____ _____    ______ ____
ROOT
ATOM      1  C   UNL     1      -6.552 -15.233   0.558  0.00  0.00    +0.000 C 
ATOM      2  H   UNL     1      -7.261 -15.610  -0.188  0.00  0.00    +0.000 HD
ATOM      3  H   UNL     1      -6.665 -15.861   1.450  0.00  0.00    +0.000 HD
ENDROOT
BRANCH   1   4
ATOM      4  C   UNL     1      -6.914 -13.789   0.914  0.00  0.00    +0.000 C 
ATOM      5  H   UNL     1      -6.079 -13.129   0.652  0.00  0.00    +0.000 HD
ATOM      6  H   UNL     1      -7.770 -13.475   0.303  0.00  0.00    +0.000 HD
BRANCH   4   7
ATOM      7  C   UNL     1      -7.259 -13.598   2.395  0.00  0.00    +0.000 C 
ATOM      8  H   UNL     1      -8.053 -12.847   2.483  0.00  0.00    +0.000 HD
ATOM      9  H   UNL     1      -7.667 -14.538   2.790  0.00  0.00    +0.000 HD
BRANCH   7  10
ATOM     10  C   UNL     1      -6.063 -13.166   3.246  0.00  0.00    +0.000 C 
ATOM     11  H   UNL     1      -5.172 -13.730   2.943  0.00  0.00    +0.000 HD
ATOM     12  H   UNL     1      -5.852 -12.105   3.065  0.00  0.00    +0.000 HD
BRANCH  10  13
ATOM     13  C   UNL     1      -6.332 -13.391   4.734  0.00  0.00    +0.000 C 
ATOM     14  H   UNL     1      -5.656 -12.770   5.334  0.00  0.00    +0.000 HD
ATOM     15  H   UNL     1      -6.131 -14.436   4.997  0.00  0.00    +0.000 HD
BRANCH  13  16
ATOM     16  C   UNL     1      -7.771 -13.057   5.097  0.00  0.00    +0.000 C 
ATOM     17  H   UNL     1      -7.812 -12.403   5.974  0.00  0.00    +0.000 HD
ATOM     18  H   UNL     1      -8.262 -12.542   4.265  0.00  0.00    +0.000 HD
ATOM     19  H   UNL     1      -8.340 -13.965   5.319  0.00  0.00    +0.000 HD
ENDBRANCH  13  16
ENDBRANCH  10  13
ENDBRANCH   7  10
ENDBRANCH   4   7
ENDBRANCH   1   4
BRANCH   1  20
ATOM     20  C   UNL     1      -5.125 -15.383   0.018  0.00  0.00    +0.000 C 
ATOM     21  H   UNL     1      -5.103 -16.206  -0.707  0.00  0.00    +0.000 HD
ATOM     22  H   UNL     1      -4.853 -14.472  -0.530  0.00  0.00    +0.000 HD
BRANCH  20  23
ATOM     23  C   UNL     1      -4.086 -15.643   1.111  0.00  0.00    +0.000 C 
ATOM     24  H   UNL     1      -4.311 -15.021   1.986  0.00  0.00    +0.000 HD
ATOM     25  H   UNL     1      -4.150 -16.689   1.432  0.00  0.00    +0.000 HD
BRANCH  23  26
ATOM     26  C   UNL     1      -2.672 -15.340   0.613  0.00  0.00    +0.000 C 
ATOM     27  H   UNL     1      -2.162 -16.279   0.362  0.00  0.00    +0.000 HD
ATOM     28  H   UNL     1      -2.730 -14.754  -0.312  0.00  0.00    +0.000 HD
BRANCH  26  29
ATOM     29  C   UNL     1      -1.866 -14.581   1.661  0.00  0.00    +0.000 C 
ATOM     30  H   UNL     1      -2.526 -14.080   2.377  0.00  0.00    +0.000 HD
ATOM     31  H   UNL     1      -1.225 -13.829   1.191  0.00  0.00    +0.000 HD
BRANCH  29  33
ATOM     32  O   UNL     1      -1.097 -15.735   3.630  0.00  0.00    +0.000 OA
ATOM     33  C   UNL     1      -0.983 -15.531   2.425  0.00  0.00    +0.000 C 
ATOM     34  H   UNL     1      -0.207 -16.043   1.833  0.00  0.00    +0.000 HD
ENDBRANCH  29  33
ENDBRANCH  26  29
ENDBRANCH  23  26
ENDBRANCH  20  23
ENDBRANCH   1  20
TORSDOF 10
ENDMDL
MODEL 5
REMARK VINA RESULT:    -4.205      3.188      4.623
REMARK INTER + INTRA:          -7.286
REMARK INTER:                  -6.865
REMARK INTRA:                  -0.422
REMARK UNBOUND:                -0.746
REMARK  Name = 8186
REMARK  10 active torsions:
REMARK  status: ('A' for Active; 'I' for Inactive)
REMARK    1  A    between atoms: C_2  and  C_3
REMARK    2  A    between atoms: C_2  and  C_4
REMARK    3  A    between atoms: C_3  and  C_5
REMARK    4  A    between atoms: C_4  and  C_6
REMARK    5  A    between atoms: C_5  and  C_7
REMARK    6  A    between atoms: C_6  and  C_8
REMARK    7  A    between atoms: C_7  and  C_9
REMARK    8  A    between atoms: C_8  and  C_10
REMARK    9  A    between atoms: C_9  and  C_11
REMARK   10  A    between atoms: C_10  and  C_12
REMARK                            x       y       z     vdW  Elec       q    Type
REMARK                         _______ _______ _______ _____ _____    ______ ____
ROOT
ATOM      1  C   UNL     1      -5.537 -15.069   4.500  0.00  0.00    +0.000 C 
ATOM      2  H   UNL     1      -6.498 -15.485   4.174  0.00  0.00    +0.000 HD
ATOM      3  H   UNL     1      -5.331 -15.487   5.493  0.00  0.00    +0.000 HD
ENDROOT
BRANCH   1   4
ATOM      4  C   UNL     1      -5.658 -13.547   4.613  0.00  0.00    +0.000 C 
ATOM      5  H   UNL     1      -5.147 -13.208   5.522  0.00  0.00    +0.000 HD
ATOM      6  H   UNL     1      -5.136 -13.084   3.765  0.00  0.00    +0.000 HD
BRANCH   4   7
ATOM      7  C   UNL     1      -7.108 -13.055   4.639  0.00  0.00    +0.000 C 
ATOM      8  H   UNL     1      -7.122 -11.973   4.459  0.00  0.00    +0.000 HD
ATOM      9  H   UNL     1      -7.659 -13.521   3.811  0.00  0.00    +0.000 HD
BRANCH   7  10
ATOM     10  C   UNL     1      -7.828 -13.352   5.957  0.00  0.00    +0.000 C 
ATOM     11  H   UNL     1      -7.091 -13.454   6.763  0.00  0.00    +0.000 HD
ATOM     12  H   UNL     1      -8.476 -12.507   6.216  0.00  0.00    +0.000 HD
BRANCH  10  13
ATOM     13  C   UNL     1      -8.661 -14.630   5.857  0.00  0.00    +0.000 C 
ATOM     14  H   UNL     1      -8.489 -15.113   4.887  0.00  0.00    +0.000 HD
ATOM     15  H   UNL     1      -9.728 -14.385   5.912  0.00  0.00    +0.000 HD
BRANCH  13  16
ATOM     16  C   UNL     1      -8.319 -15.608   6.970  0.00  0.00    +0.000 C 
ATOM     17  H   UNL     1      -7.430 -16.194   6.718  0.00  0.00    +0.000 HD
ATOM     18  H   UNL     1      -8.117 -15.067   7.900  0.00  0.00    +0.000 HD
ATOM     19  H   UNL     1      -9.147 -16.300   7.152  0.00  0.00    +0.000 HD
ENDBRANCH  13  16
ENDBRANCH  10  13
ENDBRANCH   7  10
ENDBRANCH   4   7
ENDBRANCH   1   4
BRANCH   1  20
ATOM     20  C   UNL     1      -4.440 -15.519   3.529  0.00  0.00    +0.000 C 
ATOM     21  H   UNL     1      -3.508 -15.668   4.087  0.00  0.00    +0.000 HD
ATOM     22  H   UNL     1      -4.716 -16.493   3.106  0.00  0.00    +0.000 HD
BRANCH  20  23
ATOM     23  C   UNL     1      -4.194 -14.526   2.389  0.00  0.00    +0.000 C 
ATOM     24  H   UNL     1      -5.139 -14.321   1.872  0.00  0.00    +0.000 HD
ATOM     25  H   UNL     1      -3.838 -13.576   2.805  0.00  0.00    +0.000 HD
BRANCH  23  26
ATOM     26  C   UNL     1      -3.169 -15.071   1.393  0.00  0.00    +0.000 C 
ATOM     27  H   UNL     1      -3.183 -16.168   1.416  0.00  0.00    +0.000 HD
ATOM     28  H   UNL     1      -3.455 -14.772   0.377  0.00  0.00    +0.000 HD
BRANCH  26  29
ATOM     29  C   UNL     1      -1.766 -14.568   1.711  0.00  0.00    +0.000 C 
ATOM     30  H   UNL     1      -1.801 -13.710   2.390  0.00  0.00    +0.000 HD
ATOM     31  H   UNL     1      -1.242 -14.270   0.797  0.00  0.00    +0.000 HD
BRANCH  29  33
ATOM     32  O   UNL     1      -0.938 -15.831   3.587  0.00  0.00    +0.000 OA
ATOM     33  C   UNL     1      -0.961 -15.655   2.373  0.00  0.00    +0.000 C 
ATOM     34  H   UNL     1      -0.377 -16.297   1.694  0.00  0.00    +0.000 HD
ENDBRANCH  29  33
ENDBRANCH  26  29
ENDBRANCH  23  26
ENDBRANCH  20  23
ENDBRANCH   1  20
TORSDOF 10
ENDMDL
MODEL 6
REMARK VINA RESULT:    -4.172      3.159      5.125
REMARK INTER + INTRA:          -7.235
REMARK INTER:                  -6.699
REMARK INTRA:                  -0.536
REMARK UNBOUND:                -0.746
REMARK  Name = 8186
REMARK  10 active torsions:
REMARK  status: ('A' for Active; 'I' for Inactive)
REMARK    1  A    between atoms: C_2  and  C_3
REMARK    2  A    between atoms: C_2  and  C_4
REMARK    3  A    between atoms: C_3  and  C_5
REMARK    4  A    between atoms: C_4  and  C_6
REMARK    5  A    between atoms: C_5  and  C_7
REMARK    6  A    between atoms: C_6  and  C_8
REMARK    7  A    between atoms: C_7  and  C_9
REMARK    8  A    between atoms: C_8  and  C_10
REMARK    9  A    between atoms: C_9  and  C_11
REMARK   10  A    between atoms: C_10  and  C_12
REMARK                            x       y       z     vdW  Elec       q    Type
REMARK                         _______ _______ _______ _____ _____    ______ ____
ROOT
ATOM      1  C   UNL     1      -6.547 -15.302   0.357  0.00  0.00    +0.000 C 
ATOM      2  H   UNL     1      -6.710 -15.906   1.258  0.00  0.00    +0.000 HD
ATOM      3  H   UNL     1      -7.232 -15.683  -0.409  0.00  0.00    +0.000 HD
ENDROOT
BRANCH   1   4
ATOM      4  C   UNL     1      -5.105 -15.489  -0.122  0.00  0.00    +0.000 C 
ATOM      5  H   UNL     1      -5.040 -16.398  -0.732  0.00  0.00    +0.000 HD
ATOM      6  H   UNL     1      -4.835 -14.649  -0.775  0.00  0.00    +0.000 HD
BRANCH   4   7
ATOM      7  C   UNL     1      -4.092 -15.580   1.024  0.00  0.00    +0.000 C 
ATOM      8  H   UNL     1      -4.330 -14.814   1.772  0.00  0.00    +0.000 HD
ATOM      9  H   UNL     1      -4.202 -16.553   1.521  0.00  0.00    +0.000 HD
BRANCH   7  10
ATOM     10  C   UNL     1      -2.642 -15.403   0.570  0.00  0.00    +0.000 C 
ATOM     11  H   UNL     1      -2.165 -16.386   0.470  0.00  0.00    +0.000 HD
ATOM     12  H   UNL     1      -2.627 -14.934  -0.422  0.00  0.00    +0.000 HD
BRANCH  10  13
ATOM     13  C   UNL     1      -1.852 -14.545   1.558  0.00  0.00    +0.000 C 
ATOM     14  H   UNL     1      -2.539 -13.915   2.136  0.00  0.00    +0.000 HD
ATOM     15  H   UNL     1      -1.177 -13.874   1.014  0.00  0.00    +0.000 HD
BRANCH  13  16
ATOM     16  C   UNL     1      -1.036 -15.402   2.513  0.00  0.00    +0.000 C 
ATOM     17  H   UNL     1      -0.384 -16.088   1.963  0.00  0.00    +0.000 HD
ATOM     18  H   UNL     1      -0.408 -14.770   3.147  0.00  0.00    +0.000 HD
ATOM     19  H   UNL     1      -1.689 -15.995   3.162  0.00  0.00    +0.000 HD
ENDBRANCH  13  16
ENDBRANCH  10  13
ENDBRANCH   7  10
ENDBRANCH   4   7
ENDBRANCH   1   4
BRANCH   1  20
ATOM     20  C   UNL     1      -6.898 -13.841   0.662  0.00  0.00    +0.000 C 
ATOM     21  H   UNL     1      -6.054 -13.203   0.374  0.00  0.00    +0.000 HD
ATOM     22  H   UNL     1      -7.749 -13.541   0.037  0.00  0.00    +0.000 HD
BRANCH  20  23
ATOM     23  C   UNL     1      -7.242 -13.594   2.133  0.00  0.00    +0.000 C 
ATOM     24  H   UNL     1      -8.043 -12.848   2.202  0.00  0.00    +0.000 HD
ATOM     25  H   UNL     1      -7.622 -14.520   2.579  0.00  0.00    +0.000 HD
BRANCH  23  26
ATOM     26  C   UNL     1      -6.019 -13.109   2.912  0.00  0.00    +0.000 C 
ATOM     27  H   UNL     1      -5.123 -13.627   2.548  0.00  0.00    +0.000 HD
ATOM     28  H   UNL     1      -5.866 -12.040   2.722  0.00  0.00    +0.000 HD
BRANCH  26  29
ATOM     29  C   UNL     1      -6.181 -13.355   4.408  0.00  0.00    +0.000 C 
ATOM     30  H   UNL     1      -5.777 -12.519   4.989  0.00  0.00    +0.000 HD
ATOM     31  H   UNL     1      -5.666 -14.272   4.711  0.00  0.00    +0.000 HD
BRANCH  29  33
ATOM     32  O   UNL     1      -8.231 -12.744   5.514  0.00  0.00    +0.000 OA
ATOM     33  C   UNL     1      -7.638 -13.505   4.755  0.00  0.00    +0.000 C 
ATOM     34  H   UNL     1      -8.156 -14.356   4.283  0.00  0.00    +0.000 HD
ENDBRANCH  29  33
ENDBRANCH  26  29
ENDBRANCH  23  26
ENDBRANCH  20  23
ENDBRANCH   1  20
TORSDOF 10
ENDMDL
MODEL 7
REMARK VINA RESULT:    -4.127     30.955     32.312
REMARK INTER + INTRA:          -7.165
REMARK INTER:                  -6.198
REMARK INTRA:                  -0.967
REMARK UNBOUND:                -0.746
REMARK  Name = 8186
REMARK  10 active torsions:
REMARK  status: ('A' for Active; 'I' for Inactive)
REMARK    1  A    between atoms: C_2  and  C_3
REMARK    2  A    between atoms: C_2  and  C_4
REMARK    3  A    between atoms: C_3  and  C_5
REMARK    4  A    between atoms: C_4  and  C_6
REMARK    5  A    between atoms: C_5  and  C_7
REMARK    6  A    between atoms: C_6  and  C_8
REMARK    7  A    between atoms: C_7  and  C_9
REMARK    8  A    between atoms: C_8  and  C_10
REMARK    9  A    between atoms: C_9  and  C_11
REMARK   10  A    between atoms: C_10  and  C_12
REMARK                            x       y       z     vdW  Elec       q    Type
REMARK                         _______ _______ _______ _____ _____    ______ ____
ROOT
ATOM      1  C   UNL     1       2.315   3.220 -20.886  0.00  0.00    +0.000 C 
ATOM      2  H   UNL     1       2.814   2.291 -21.184  0.00  0.00    +0.000 HD
ATOM      3  H   UNL     1       1.818   3.615 -21.781  0.00  0.00    +0.000 HD
ENDROOT
BRANCH   1   4
ATOM      4  C   UNL     1       3.365   4.227 -20.411  0.00  0.00    +0.000 C 
ATOM      5  H   UNL     1       3.560   4.073 -19.343  0.00  0.00    +0.000 HD
ATOM      6  H   UNL     1       4.309   4.032 -20.936  0.00  0.00    +0.000 HD
BRANCH   4   7
ATOM      7  C   UNL     1       2.955   5.685 -20.641  0.00  0.00    +0.000 C 
ATOM      8  H   UNL     1       3.825   6.250 -20.997  0.00  0.00    +0.000 HD
ATOM      9  H   UNL     1       2.205   5.723 -21.442  0.00  0.00    +0.000 HD
BRANCH   7  10
ATOM     10  C   UNL     1       2.395   6.364 -19.389  0.00  0.00    +0.000 C 
ATOM     11  H   UNL     1       2.614   5.749 -18.508  0.00  0.00    +0.000 HD
ATOM     12  H   UNL     1       2.896   7.329 -19.243  0.00  0.00    +0.000 HD
BRANCH  10  13
ATOM     13  C   UNL     1       0.886   6.580 -19.504  0.00  0.00    +0.000 C 
ATOM     14  H   UNL     1       0.424   5.723 -20.009  0.00  0.00    +0.000 HD
ATOM     15  H   UNL     1       0.681   7.466 -20.117  0.00  0.00    +0.000 HD
BRANCH  13  16
ATOM     16  C   UNL     1       0.243   6.763 -18.138  0.00  0.00    +0.000 C 
ATOM     17  H   UNL     1      -0.667   7.367 -18.211  0.00  0.00    +0.000 HD
ATOM     18  H   UNL     1      -0.027   5.791 -17.714  0.00  0.00    +0.000 HD
ATOM     19  H   UNL     1       0.931   7.258 -17.445  0.00  0.00    +0.000 HD
ENDBRANCH  13  16
ENDBRANCH  10  13
ENDBRANCH   7  10
ENDBRANCH   4   7
ENDBRANCH   1   4
BRANCH   1  20
ATOM     20  C   UNL     1       1.256   2.904 -19.824  0.00  0.00    +0.000 C 
ATOM     21  H   UNL     1       1.415   1.883 -19.455  0.00  0.00    +0.000 HD
ATOM     22  H   UNL     1       1.398   3.575 -18.968  0.00  0.00    +0.000 HD
BRANCH  20  23
ATOM     23  C   UNL     1      -0.179   3.039 -20.338  0.00  0.00    +0.000 C 
ATOM     24  H   UNL     1      -0.589   2.043 -20.544  0.00  0.00    +0.000 HD
ATOM     25  H   UNL     1      -0.804   3.492 -19.560  0.00  0.00    +0.000 HD
BRANCH  23  26
ATOM     26  C   UNL     1      -0.234   3.891 -21.607  0.00  0.00    +0.000 C 
ATOM     27  H   UNL     1      -0.876   4.764 -21.435  0.00  0.00    +0.000 HD
ATOM     28  H   UNL     1       0.769   4.275 -21.831  0.00  0.00    +0.000 HD
BRANCH  26  29
ATOM     29  C   UNL     1      -0.762   3.089 -22.791  0.00  0.00    +0.000 C 
ATOM     30  H   UNL     1      -0.187   3.304 -23.698  0.00  0.00    +0.000 HD
ATOM     31  H   UNL     1      -1.815   3.321 -22.981  0.00  0.00    +0.000 HD
BRANCH  29  33
ATOM     32  O   UNL     1       0.119   0.869 -23.102  0.00  0.00    +0.000 OA
ATOM     33  C   UNL     1      -0.656   1.614 -22.509  0.00  0.00    +0.000 C 
ATOM     34  H   UNL     1      -1.329   1.228 -21.726  0.00  0.00    +0.000 HD
ENDBRANCH  29  33
ENDBRANCH  26  29
ENDBRANCH  23  26
ENDBRANCH  20  23
ENDBRANCH   1  20
TORSDOF 10
ENDMDL
MODEL 8
REMARK VINA RESULT:    -4.114      2.938      5.218
REMARK INTER + INTRA:          -7.146
REMARK INTER:                  -6.499
REMARK INTRA:                  -0.647
REMARK UNBOUND:                -0.746
REMARK  Name = 8186
REMARK  10 active torsions:
REMARK  status: ('A' for Active; 'I' for Inactive)
REMARK    1  A    between atoms: C_2  and  C_3
REMARK    2  A    between atoms: C_2  and  C_4
REMARK    3  A    between atoms: C_3  and  C_5
REMARK    4  A    between atoms: C_4  and  C_6
REMARK    5  A    between atoms: C_5  and  C_7
REMARK    6  A    between atoms: C_6  and  C_8
REMARK    7  A    between atoms: C_7  and  C_9
REMARK    8  A    between atoms: C_8  and  C_10
REMARK    9  A    between atoms: C_9  and  C_11
REMARK   10  A    between atoms: C_10  and  C_12
REMARK                            x       y       z     vdW  Elec       q    Type
REMARK                         _______ _______ _______ _____ _____    ______ ____
ROOT
ATOM      1  C   UNL     1      -6.349 -13.353   5.009  0.00  0.00    +0.000 C 
ATOM      2  H   UNL     1      -5.798 -12.619   5.609  0.00  0.00    +0.000 HD
ATOM      3  H   UNL     1      -5.855 -14.321   5.162  0.00  0.00    +0.000 HD
ENDROOT
BRANCH   1   4
ATOM      4  C   UNL     1      -6.255 -12.971   3.530  0.00  0.00    +0.000 C 
ATOM      5  H   UNL     1      -6.245 -11.879   3.437  0.00  0.00    +0.000 HD
ATOM      6  H   UNL     1      -5.299 -13.332   3.129  0.00  0.00    +0.000 HD
BRANCH   4   7
ATOM      7  C   UNL     1      -7.400 -13.537   2.684  0.00  0.00    +0.000 C 
ATOM      8  H   UNL     1      -8.291 -13.642   3.314  0.00  0.00    +0.000 HD
ATOM      9  H   UNL     1      -7.652 -12.815   1.897  0.00  0.00    +0.000 HD
BRANCH   7  10
ATOM     10  C   UNL     1      -7.074 -14.890   2.047  0.00  0.00    +0.000 C 
ATOM     11  H   UNL     1      -6.084 -15.224   2.380  0.00  0.00    +0.000 HD
ATOM     12  H   UNL     1      -7.801 -15.637   2.389  0.00  0.00    +0.000 HD
BRANCH  10  13
ATOM     13  C   UNL     1      -7.103 -14.804   0.521  0.00  0.00    +0.000 C 
ATOM     14  H   UNL     1      -7.995 -15.311   0.136  0.00  0.00    +0.000 HD
ATOM     15  H   UNL     1      -6.231 -15.320   0.102  0.00  0.00    +0.000 HD
BRANCH  13  16
ATOM     16  C   UNL     1      -7.102 -13.361   0.043  0.00  0.00    +0.000 C 
ATOM     17  H   UNL     1      -7.116 -12.668   0.890  0.00  0.00    +0.000 HD
ATOM     18  H   UNL     1      -6.203 -13.158  -0.548  0.00  0.00    +0.000 HD
ATOM     19  H   UNL     1      -7.975 -13.156  -0.584  0.00  0.00    +0.000 HD
ENDBRANCH  13  16
ENDBRANCH  10  13
ENDBRANCH   7  10
ENDBRANCH   4   7
ENDBRANCH   1   4
BRANCH   1  20
ATOM     20  C   UNL     1      -7.790 -13.440   5.522  0.00  0.00    +0.000 C 
ATOM     21  H   UNL     1      -7.990 -12.580   6.173  0.00  0.00    +0.000 HD
ATOM     22  H   UNL     1      -8.477 -13.359   4.670  0.00  0.00    +0.000 HD
BRANCH  20  23
ATOM     23  C   UNL     1      -8.086 -14.733   6.286  0.00  0.00    +0.000 C 
ATOM     24  H   UNL     1      -8.177 -14.513   7.357  0.00  0.00    +0.000 HD
ATOM     25  H   UNL     1      -9.049 -15.139   5.955  0.00  0.00    +0.000 HD
BRANCH  23  26
ATOM     26  C   UNL     1      -6.985 -15.770   6.065  0.00  0.00    +0.000 C 
ATOM     27  H   UNL     1      -6.867 -15.957   4.990  0.00  0.00    +0.000 HD
ATOM     28  H   UNL     1      -6.029 -15.368   6.423  0.00  0.00    +0.000 HD
BRANCH  26  29
ATOM     29  C   UNL     1      -7.302 -17.077   6.783  0.00  0.00    +0.000 C 
ATOM     30  H   UNL     1      -6.514 -17.332   7.500  0.00  0.00    +0.000 HD
ATOM     31  H   UNL     1      -7.403 -17.900   6.067  0.00  0.00    +0.000 HD
BRANCH  29  33
ATOM     32  O   UNL     1      -8.893 -17.670   8.490  0.00  0.00    +0.000 OA
ATOM     33  C   UNL     1      -8.599 -16.956   7.537  0.00  0.00    +0.000 C 
ATOM     34  H   UNL     1      -9.289 -16.175   7.176  0.00  0.00    +0.000 HD
ENDBRANCH  29  33
ENDBRANCH  26  29
ENDBRANCH  23  26
ENDBRANCH  20  23
ENDBRANCH   1  20
TORSDOF 10
ENDMDL
MODEL 9
REMARK VINA RESULT:    -4.111     25.535     27.066
REMARK INTER + INTRA:          -7.140
REMARK INTER:                  -6.592
REMARK INTRA:                  -0.548
REMARK UNBOUND:                -0.746
REMARK  Name = 8186
REMARK  10 active torsions:
REMARK  status: ('A' for Active; 'I' for Inactive)
REMARK    1  A    between atoms: C_2  and  C_3
REMARK    2  A    between atoms: C_2  and  C_4
REMARK    3  A    between atoms: C_3  and  C_5
REMARK    4  A    between atoms: C_4  and  C_6
REMARK    5  A    between atoms: C_5  and  C_7
REMARK    6  A    between atoms: C_6  and  C_8
REMARK    7  A    between atoms: C_7  and  C_9
REMARK    8  A    between atoms: C_8  and  C_10
REMARK    9  A    between atoms: C_9  and  C_11
REMARK   10  A    between atoms: C_10  and  C_12
REMARK                            x       y       z     vdW  Elec       q    Type
REMARK                         _______ _______ _______ _____ _____    ______ ____
ROOT
ATOM      1  C   UNL     1      16.702  -5.063  -3.069  0.00  0.00    +0.000 C 
ATOM      2  H   UNL     1      17.681  -5.008  -2.580  0.00  0.00    +0.000 HD
ATOM      3  H   UNL     1      16.589  -4.144  -3.657  0.00  0.00    +0.000 HD
ENDROOT
BRANCH   1   4
ATOM      4  C   UNL     1      15.606  -5.112  -2.001  0.00  0.00    +0.000 C 
ATOM      5  H   UNL     1      15.756  -4.292  -1.289  0.00  0.00    +0.000 HD
ATOM      6  H   UNL     1      14.633  -4.941  -2.480  0.00  0.00    +0.000 HD
BRANCH   4   7
ATOM      7  C   UNL     1      15.563  -6.439  -1.237  0.00  0.00    +0.000 C 
ATOM      8  H   UNL     1      14.775  -6.388  -0.476  0.00  0.00    +0.000 HD
ATOM      9  H   UNL     1      15.281  -7.242  -1.931  0.00  0.00    +0.000 HD
BRANCH   7  10
ATOM     10  C   UNL     1      16.890  -6.795  -0.562  0.00  0.00    +0.000 C 
ATOM     11  H   UNL     1      17.469  -7.459  -1.215  0.00  0.00    +0.000 HD
ATOM     12  H   UNL     1      17.482  -5.882  -0.421  0.00  0.00    +0.000 HD
BRANCH  10  13
ATOM     13  C   UNL     1      16.660  -7.474   0.788  0.00  0.00    +0.000 C 
ATOM     14  H   UNL     1      17.268  -6.986   1.560  0.00  0.00    +0.000 HD
ATOM     15  H   UNL     1      16.979  -8.522   0.739  0.00  0.00    +0.000 HD
BRANCH  13  16
ATOM     16  C   UNL     1      15.196  -7.421   1.197  0.00  0.00    +0.000 C 
ATOM     17  H   UNL     1      14.827  -6.390   1.199  0.00  0.00    +0.000 HD
ATOM     18  H   UNL     1      14.586  -7.999   0.497  0.00  0.00    +0.000 HD
ATOM     19  H   UNL     1      15.054  -7.839   2.199  0.00  0.00    +0.000 HD
ENDBRANCH  13  16
ENDBRANCH  10  13
ENDBRANCH   7  10
ENDBRANCH   4   7
ENDBRANCH   1   4
BRANCH   1  20
ATOM     20  C   UNL     1      16.679  -6.269  -4.015  0.00  0.00    +0.000 C 
ATOM     21  H   UNL     1      16.408  -7.166  -3.443  0.00  0.00    +0.000 HD
ATOM     22  H   UNL     1      15.892  -6.121  -4.764  0.00  0.00    +0.000 HD
BRANCH  20  23
ATOM     23  C   UNL     1      18.014  -6.507  -4.727  0.00  0.00    +0.000 C 
ATOM     24  H   UNL     1      18.035  -7.524  -5.135  0.00  0.00    +0.000 HD
ATOM     25  H   UNL     1      18.102  -5.816  -5.573  0.00  0.00    +0.000 HD
BRANCH  23  26
ATOM     26  C   UNL     1      19.192  -6.310  -3.772  0.00  0.00    +0.000 C 
ATOM     27  H   UNL     1      18.824  -5.944  -2.805  0.00  0.00    +0.000 HD
ATOM     28  H   UNL     1      19.672  -7.277  -3.583  0.00  0.00    +0.000 HD
BRANCH  26  29
ATOM     29  C   UNL     1      20.208  -5.325  -4.341  0.00  0.00    +0.000 C 
ATOM     30  H   UNL     1      20.082  -5.214  -5.424  0.00  0.00    +0.000 HD
ATOM     31  H   UNL     1      21.231  -5.660  -4.140  0.00  0.00    +0.000 HD
BRANCH  29  33
ATOM     32  O   UNL     1      20.541  -3.657  -2.637  0.00  0.00    +0.000 OA
ATOM     33  C   UNL     1      20.031  -3.971  -3.708  0.00  0.00    +0.000 C 
ATOM     34  H   UNL     1      19.402  -3.260  -4.269  0.00  0.00    +0.000 HD
ENDBRANCH  29  33
ENDBRANCH  26  29
ENDBRANCH  23  26
ENDBRANCH  20  23
ENDBRANCH   1  20
TORSDOF 10
ENDMDL
MODEL 10
REMARK VINA RESULT:    -4.084     31.368     32.667
REMARK INTER + INTRA:          -7.098
REMARK INTER:                  -6.352
REMARK INTRA:                  -0.746
REMARK UNBOUND:                -0.746
REMARK  Name = 8186
REMARK  10 active torsions:
REMARK  status: ('A' for Active; 'I' for Inactive)
REMARK    1  A    between atoms: C_2  and  C_3
REMARK    2  A    between atoms: C_2  and  C_4
REMARK    3  A    between atoms: C_3  and  C_5
REMARK    4  A    between atoms: C_4  and  C_6
REMARK    5  A    between atoms: C_5  and  C_7
REMARK    6  A    between atoms: C_6  and  C_8
REMARK    7  A    between atoms: C_7  and  C_9
REMARK    8  A    between atoms: C_8  and  C_10
REMARK    9  A    between atoms: C_9  and  C_11
REMARK   10  A    between atoms: C_10  and  C_12
REMARK                            x       y       z     vdW  Elec       q    Type
REMARK                         _______ _______ _______ _____ _____    ______ ____
ROOT
ATOM      1  C   UNL     1       3.101   6.392 -20.696  0.00  0.00    +0.000 C 
ATOM      2  H   UNL     1       3.015   7.478 -20.825  0.00  0.00    +0.000 HD
ATOM      3  H   UNL     1       3.765   6.030 -21.490  0.00  0.00    +0.000 HD
ENDROOT
BRANCH   1   4
ATOM      4  C   UNL     1       1.721   5.753 -20.867  0.00  0.00    +0.000 C 
ATOM      5  H   UNL     1       1.008   6.512 -21.211  0.00  0.00    +0.000 HD
ATOM      6  H   UNL     1       1.776   4.991 -21.656  0.00  0.00    +0.000 HD
BRANCH   4   7
ATOM      7  C   UNL     1       1.188   5.108 -19.584  0.00  0.00    +0.000 C 
ATOM      8  H   UNL     1       1.967   5.150 -18.813  0.00  0.00    +0.000 HD
ATOM      9  H   UNL     1       0.342   5.702 -19.211  0.00  0.00    +0.000 HD
BRANCH   7  10
ATOM     10  C   UNL     1       0.745   3.656 -19.771  0.00  0.00    +0.000 C 
ATOM     11  H   UNL     1       0.817   3.123 -18.815  0.00  0.00    +0.000 HD
ATOM     12  H   UNL     1      -0.309   3.633 -20.075  0.00  0.00    +0.000 HD
BRANCH  10  13
ATOM     13  C   UNL     1       1.600   2.947 -20.822  0.00  0.00    +0.000 C 
ATOM     14  H   UNL     1       1.948   3.670 -21.569  0.00  0.00    +0.000 HD
ATOM     15  H   UNL     1       0.997   2.199 -21.351  0.00  0.00    +0.000 HD
BRANCH  13  16
ATOM     16  C   UNL     1       2.801   2.260 -20.192  0.00  0.00    +0.000 C 
ATOM     17  H   UNL     1       3.683   2.347 -20.834  0.00  0.00    +0.000 HD
ATOM     18  H   UNL     1       3.036   2.717 -19.226  0.00  0.00    +0.000 HD
ATOM     19  H   UNL     1       2.601   1.196 -20.025  0.00  0.00    +0.000 HD
ENDBRANCH  13  16
ENDBRANCH  10  13
ENDBRANCH   7  10
ENDBRANCH   4   7
ENDBRANCH   1   4
BRANCH   1  20
ATOM     20  C   UNL     1       3.739   6.098 -19.334  0.00  0.00    +0.000 C 
ATOM     21  H   UNL     1       4.086   7.040 -18.891  0.00  0.00    +0.000 HD
ATOM     22  H   UNL     1       2.973   5.695 -18.660  0.00  0.00    +0.000 HD
BRANCH  20  23
ATOM     23  C   UNL     1       4.910   5.114 -19.412  0.00  0.00    +0.000 C 
ATOM     24  H   UNL     1       4.530   4.088 -19.356  0.00  0.00    +0.000 HD
ATOM     25  H   UNL     1       5.411   5.222 -20.381  0.00  0.00    +0.000 HD
BRANCH  23  26
ATOM     26  C   UNL     1       5.911   5.356 -18.282  0.00  0.00    +0.000 C 
ATOM     27  H   UNL     1       6.562   6.201 -18.543  0.00  0.00    +0.000 HD
ATOM     28  H   UNL     1       5.371   5.642 -17.372  0.00  0.00    +0.000 HD
BRANCH  26  29
ATOM     29  C   UNL     1       6.759   4.117 -18.018  0.00  0.00    +0.000 C 
ATOM     30  H   UNL     1       6.275   3.218 -18.414  0.00  0.00    +0.000 HD
ATOM     31  H   UNL     1       6.926   3.980 -16.945  0.00  0.00    +0.000 HD
BRANCH  29  33
ATOM     32  O   UNL     1       9.108   4.643 -18.094  0.00  0.00    +0.000 OA
ATOM     33  C   UNL     1       8.103   4.255 -18.682  0.00  0.00    +0.000 C 
ATOM     34  H   UNL     1       8.137   3.986 -19.751  0.00  0.00    +0.000 HD
ENDBRANCH  29  33
ENDBRANCH  26  29
ENDBRANCH  23  26
ENDBRANCH  20  23
ENDBRANCH   1  20
TORSDOF 10
ENDMDL
