MODEL 1
REMARK VINA RESULT:    -4.577      0.000      0.000
REMARK INTER + INTRA:          -5.460
REMARK INTER:                  -5.395
REMARK INTRA:                  -0.066
REMARK UNBOUND:                -0.080
REMARK  Name = 1183
REMARK  4 active torsions:
REMARK  status: ('A' for Active; 'I' for Inactive)
REMARK    1  A    between atoms: O_1  and  C_4
REMARK    2  A    between atoms: O_1  and  C_11
REMARK    3  A    between atoms: O_2  and  C_7
REMARK    4  A    between atoms: C_5  and  C_10
REMARK                            x       y       z     vdW  Elec       q    Type
REMARK                         _______ _______ _______ _____ _____    ______ ____
ROOT
ATOM      1  C   UNL     1       1.722   2.472 -22.154  0.00  0.00    +0.000 A 
ATOM      2  C   UNL     1       0.748   3.936 -20.496  0.00  0.00    +0.000 A 
ATOM      3  C   UNL     1       1.819   3.585 -21.318  0.00  0.00    +0.000 A 
ATOM      4  C   UNL     1       0.555   1.710 -22.168  0.00  0.00    +0.000 A 
ATOM      5  C   UNL     1      -0.420   3.172 -20.511  0.00  0.00    +0.000 A 
ATOM      6  C   UNL     1      -0.517   2.060 -21.346  0.00  0.00    +0.000 A 
ATOM      7  H   UNL     1       2.702   4.214 -21.266  0.00  0.00    +0.000 HD
ATOM      8  H   UNL     1      -1.268   3.427 -19.879  0.00  0.00    +0.000 HD
ATOM      9  H   UNL     1      -1.432   1.475 -21.347  0.00  0.00    +0.000 HD
ENDROOT
BRANCH   2  11
ATOM     10  O   UNL     1       0.510   6.230 -19.972  0.00  0.00    +0.000 OA
ATOM     11  C   UNL     1       0.847   5.095 -19.625  0.00  0.00    +0.000 C 
ATOM     12  H   UNL     1       1.248   4.922 -18.611  0.00  0.00    +0.000 HD
ENDBRANCH   2  11
BRANCH   4  13
ATOM     13  O   UNL     1       0.448   0.621 -22.980  0.00  0.00    +0.000 OA
ATOM     14  H   UNL     1       0.298   0.920 -23.893  0.00  0.00    +0.000 HD
ENDBRANCH   4  13
BRANCH   1  15
ATOM     15  O   UNL     1       2.776   2.141 -22.952  0.00  0.00    +0.000 OA
BRANCH  15  16
ATOM     16  C   UNL     1       3.751   3.154 -23.192  0.00  0.00    +0.000 C 
ATOM     17  H   UNL     1       4.039   3.195 -24.247  0.00  0.00    +0.000 HD
ATOM     18  H   UNL     1       4.614   3.049 -22.526  0.00  0.00    +0.000 HD
ATOM     19  H   UNL     1       3.281   4.114 -22.954  0.00  0.00    +0.000 HD
ENDBRANCH  15  16
ENDBRANCH   1  15
TORSDOF 4
ENDMDL
MODEL 2
REMARK VINA RESULT:    -4.559      1.401      3.838
REMARK INTER + INTRA:          -5.439
REMARK INTER:                  -5.359
REMARK INTRA:                  -0.080
REMARK UNBOUND:                -0.080
REMARK  Name = 1183
REMARK  4 active torsions:
REMARK  status: ('A' for Active; 'I' for Inactive)
REMARK    1  A    between atoms: O_1  and  C_4
REMARK    2  A    between atoms: O_1  and  C_11
REMARK    3  A    between atoms: O_2  and  C_7
REMARK    4  A    between atoms: C_5  and  C_10
REMARK                            x       y       z     vdW  Elec       q    Type
REMARK                         _______ _______ _______ _____ _____    ______ ____
ROOT
ATOM      1  C   UNL     1       0.999   4.077 -20.228  0.00  0.00    +0.000 A 
ATOM      2  C   UNL     1       2.309   3.109 -22.014  0.00  0.00    +0.000 A 
ATOM      3  C   UNL     1       2.131   4.096 -21.045  0.00  0.00    +0.000 A 
ATOM      4  C   UNL     1       0.046   3.071 -20.383  0.00  0.00    +0.000 A 
ATOM      5  C   UNL     1       1.354   2.103 -22.168  0.00  0.00    +0.000 A 
ATOM      6  C   UNL     1       0.223   2.084 -21.352  0.00  0.00    +0.000 A 
ATOM      7  H   UNL     1       2.905   4.854 -20.969  0.00  0.00    +0.000 HD
ATOM      8  H   UNL     1       1.472   1.324 -22.917  0.00  0.00    +0.000 HD
ATOM      9  H   UNL     1      -0.512   1.295 -21.482  0.00  0.00    +0.000 HD
ENDROOT
BRANCH   2  11
ATOM     10  O   UNL     1       3.619   2.398 -23.851  0.00  0.00    +0.000 OA
ATOM     11  C   UNL     1       3.488   3.128 -22.864  0.00  0.00    +0.000 C 
ATOM     12  H   UNL     1       4.287   3.838 -22.591  0.00  0.00    +0.000 HD
ENDBRANCH   2  11
BRANCH   4  13
ATOM     13  O   UNL     1      -1.063   3.042 -19.592  0.00  0.00    +0.000 OA
ATOM     14  H   UNL     1      -0.843   2.602 -18.753  0.00  0.00    +0.000 HD
ENDBRANCH   4  13
BRANCH   1  15
ATOM     15  O   UNL     1       0.838   5.047 -19.285  0.00  0.00    +0.000 OA
BRANCH  15  16
ATOM     16  C   UNL     1       0.944   6.401 -19.722  0.00  0.00    +0.000 C 
ATOM     17  H   UNL     1       1.135   6.464 -20.798  0.00  0.00    +0.000 HD
ATOM     18  H   UNL     1       1.679   6.959 -19.132  0.00  0.00    +0.000 HD
ATOM     19  H   UNL     1      -0.029   6.872 -19.545  0.00  0.00    +0.000 HD
ENDBRANCH  15  16
ENDBRANCH   1  15
TORSDOF 4
ENDMDL
MODEL 3
REMARK VINA RESULT:    -4.457      2.591      4.138
REMARK INTER + INTRA:          -5.319
REMARK INTER:                  -5.239
REMARK INTRA:                  -0.080
REMARK UNBOUND:                -0.080
REMARK  Name = 1183
REMARK  4 active torsions:
REMARK  status: ('A' for Active; 'I' for Inactive)
REMARK    1  A    between atoms: O_1  and  C_4
REMARK    2  A    between atoms: O_1  and  C_11
REMARK    3  A    between atoms: O_2  and  C_7
REMARK    4  A    between atoms: C_5  and  C_10
REMARK                            x       y       z     vdW  Elec       q    Type
REMARK                         _______ _______ _______ _____ _____    ______ ____
ROOT
ATOM      1  C   UNL     1       1.248   4.734 -19.960  0.00  0.00    +0.000 A 
ATOM      2  C   UNL     1       3.462   3.911 -20.473  0.00  0.00    +0.000 A 
ATOM      3  C   UNL     1       2.583   4.978 -20.286  0.00  0.00    +0.000 A 
ATOM      4  C   UNL     1       0.793   3.423 -19.822  0.00  0.00    +0.000 A 
ATOM      5  C   UNL     1       3.005   2.599 -20.334  0.00  0.00    +0.000 A 
ATOM      6  C   UNL     1       1.671   2.356 -20.009  0.00  0.00    +0.000 A 
ATOM      7  H   UNL     1       2.992   5.976 -20.406  0.00  0.00    +0.000 HD
ATOM      8  H   UNL     1       3.672   1.752 -20.475  0.00  0.00    +0.000 HD
ATOM      9  H   UNL     1       1.329   1.330 -19.904  0.00  0.00    +0.000 HD
ENDROOT
BRANCH   2  11
ATOM     10  O   UNL     1       5.693   4.524 -19.983  0.00  0.00    +0.000 OA
ATOM     11  C   UNL     1       4.852   4.164 -20.812  0.00  0.00    +0.000 C 
ATOM     12  H   UNL     1       5.141   4.019 -21.867  0.00  0.00    +0.000 HD
ENDBRANCH   2  11
BRANCH   4  13
ATOM     13  O   UNL     1      -0.508   3.172 -19.504  0.00  0.00    +0.000 OA
ATOM     14  H   UNL     1      -1.072   3.422 -20.257  0.00  0.00    +0.000 HD
ENDBRANCH   4  13
BRANCH   1  15
ATOM     15  O   UNL     1       0.401   5.785 -19.780  0.00  0.00    +0.000 OA
BRANCH  15  16
ATOM     16  C   UNL     1       0.492   6.487 -18.542  0.00  0.00    +0.000 C 
ATOM     17  H   UNL     1       0.504   7.571 -18.692  0.00  0.00    +0.000 HD
ATOM     18  H   UNL     1       1.339   6.138 -17.941  0.00  0.00    +0.000 HD
ATOM     19  H   UNL     1      -0.416   6.256 -17.974  0.00  0.00    +0.000 HD
ENDBRANCH  15  16
ENDBRANCH   1  15
TORSDOF 4
ENDMDL
MODEL 4
REMARK VINA RESULT:    -4.439      1.359      2.698
REMARK INTER + INTRA:          -5.297
REMARK INTER:                  -5.226
REMARK INTRA:                  -0.071
REMARK UNBOUND:                -0.080
REMARK  Name = 1183
REMARK  4 active torsions:
REMARK  status: ('A' for Active; 'I' for Inactive)
REMARK    1  A    between atoms: O_1  and  C_4
REMARK    2  A    between atoms: O_1  and  C_11
REMARK    3  A    between atoms: O_2  and  C_7
REMARK    4  A    between atoms: C_5  and  C_10
REMARK                            x       y       z     vdW  Elec       q    Type
REMARK                         _______ _______ _______ _____ _____    ______ ____
ROOT
ATOM      1  C   UNL     1       0.718   3.351 -21.866  0.00  0.00    +0.000 A 
ATOM      2  C   UNL     1       1.759   4.897 -20.328  0.00  0.00    +0.000 A 
ATOM      3  C   UNL     1       0.646   4.489 -21.062  0.00  0.00    +0.000 A 
ATOM      4  C   UNL     1       1.904   2.621 -21.935  0.00  0.00    +0.000 A 
ATOM      5  C   UNL     1       2.946   4.166 -20.397  0.00  0.00    +0.000 A 
ATOM      6  C   UNL     1       3.019   3.028 -21.200  0.00  0.00    +0.000 A 
ATOM      7  H   UNL     1      -0.251   5.095 -20.971  0.00  0.00    +0.000 HD
ATOM      8  H   UNL     1       3.826   4.466 -19.834  0.00  0.00    +0.000 HD
ATOM      9  H   UNL     1       3.948   2.469 -21.245  0.00  0.00    +0.000 HD
ENDROOT
BRANCH   2  11
ATOM     10  O   UNL     1       0.653   6.435 -18.911  0.00  0.00    +0.000 OA
ATOM     11  C   UNL     1       1.684   6.083 -19.491  0.00  0.00    +0.000 C 
ATOM     12  H   UNL     1       2.608   6.678 -19.387  0.00  0.00    +0.000 HD
ENDBRANCH   2  11
BRANCH   4  13
ATOM     13  O   UNL     1       1.988   1.508 -22.715  0.00  0.00    +0.000 OA
ATOM     14  H   UNL     1       1.839   1.759 -23.643  0.00  0.00    +0.000 HD
ENDBRANCH   4  13
BRANCH   1  15
ATOM     15  O   UNL     1      -0.376   2.963 -22.578  0.00  0.00    +0.000 OA
BRANCH  15  16
ATOM     16  C   UNL     1      -1.344   2.166 -21.897  0.00  0.00    +0.000 C 
ATOM     17  H   UNL     1      -1.229   1.103 -22.132  0.00  0.00    +0.000 HD
ATOM     18  H   UNL     1      -2.363   2.527 -22.076  0.00  0.00    +0.000 HD
ATOM     19  H   UNL     1      -1.153   2.276 -20.824  0.00  0.00    +0.000 HD
ENDBRANCH  15  16
ENDBRANCH   1  15
TORSDOF 4
ENDMDL
MODEL 5
REMARK VINA RESULT:    -4.420     26.069     26.579
REMARK INTER + INTRA:          -5.275
REMARK INTER:                  -5.201
REMARK INTRA:                  -0.074
REMARK UNBOUND:                -0.080
REMARK  Name = 1183
REMARK  4 active torsions:
REMARK  status: ('A' for Active; 'I' for Inactive)
REMARK    1  A    between atoms: O_1  and  C_4
REMARK    2  A    between atoms: O_1  and  C_11
REMARK    3  A    between atoms: O_2  and  C_7
REMARK    4  A    between atoms: C_5  and  C_10
REMARK                            x       y       z     vdW  Elec       q    Type
REMARK                         _______ _______ _______ _____ _____    ______ ____
ROOT
ATOM      1  C   UNL     1      19.236  -4.367  -3.271  0.00  0.00    +0.000 A 
ATOM      2  C   UNL     1      17.034  -5.350  -3.109  0.00  0.00    +0.000 A 
ATOM      3  C   UNL     1      17.947  -4.365  -2.735  0.00  0.00    +0.000 A 
ATOM      4  C   UNL     1      19.610  -5.356  -4.181  0.00  0.00    +0.000 A 
ATOM      5  C   UNL     1      17.410  -6.339  -4.019  0.00  0.00    +0.000 A 
ATOM      6  C   UNL     1      18.698  -6.342  -4.555  0.00  0.00    +0.000 A 
ATOM      7  H   UNL     1      17.602  -3.620  -2.025  0.00  0.00    +0.000 HD
ATOM      8  H   UNL     1      16.715  -7.118  -4.325  0.00  0.00    +0.000 HD
ATOM      9  H   UNL     1      18.977  -7.118  -5.262  0.00  0.00    +0.000 HD
ENDROOT
BRANCH   2  11
ATOM     10  O   UNL     1      15.061  -6.381  -2.310  0.00  0.00    +0.000 OA
ATOM     11  C   UNL     1      15.692  -5.348  -2.551  0.00  0.00    +0.000 C 
ATOM     12  H   UNL     1      15.241  -4.363  -2.344  0.00  0.00    +0.000 HD
ENDBRANCH   2  11
BRANCH   4  13
ATOM     13  O   UNL     1      20.865  -5.369  -4.711  0.00  0.00    +0.000 OA
ATOM     14  H   UNL     1      21.231  -4.468  -4.683  0.00  0.00    +0.000 HD
ENDBRANCH   4  13
BRANCH   1  15
ATOM     15  O   UNL     1      20.118  -3.398  -2.898  0.00  0.00    +0.000 OA
BRANCH  15  16
ATOM     16  C   UNL     1      20.129  -3.027  -1.521  0.00  0.00    +0.000 C 
ATOM     17  H   UNL     1      19.849  -1.977  -1.383  0.00  0.00    +0.000 HD
ATOM     18  H   UNL     1      21.084  -3.272  -1.044  0.00  0.00    +0.000 HD
ATOM     19  H   UNL     1      19.361  -3.628  -1.021  0.00  0.00    +0.000 HD
ENDBRANCH  15  16
ENDBRANCH   1  15
TORSDOF 4
ENDMDL
MODEL 6
REMARK VINA RESULT:    -4.324     26.248     26.852
REMARK INTER + INTRA:          -5.162
REMARK INTER:                  -5.087
REMARK INTRA:                  -0.075
REMARK UNBOUND:                -0.080
REMARK  Name = 1183
REMARK  4 active torsions:
REMARK  status: ('A' for Active; 'I' for Inactive)
REMARK    1  A    between atoms: O_1  and  C_4
REMARK    2  A    between atoms: O_1  and  C_11
REMARK    3  A    between atoms: O_2  and  C_7
REMARK    4  A    between atoms: C_5  and  C_10
REMARK                            x       y       z     vdW  Elec       q    Type
REMARK                         _______ _______ _______ _____ _____    ______ ____
ROOT
ATOM      1  C   UNL     1      18.017  -4.395  -2.544  0.00  0.00    +0.000 A 
ATOM      2  C   UNL     1      19.573  -5.705  -3.850  0.00  0.00    +0.000 A 
ATOM      3  C   UNL     1      19.328  -4.707  -2.906  0.00  0.00    +0.000 A 
ATOM      4  C   UNL     1      16.951  -5.080  -3.126  0.00  0.00    +0.000 A 
ATOM      5  C   UNL     1      18.506  -6.390  -4.432  0.00  0.00    +0.000 A 
ATOM      6  C   UNL     1      17.195  -6.078  -4.071  0.00  0.00    +0.000 A 
ATOM      7  H   UNL     1      20.195  -4.207  -2.486  0.00  0.00    +0.000 HD
ATOM      8  H   UNL     1      18.672  -7.171  -5.170  0.00  0.00    +0.000 HD
ATOM      9  H   UNL     1      16.374  -6.619  -4.531  0.00  0.00    +0.000 HD
ENDROOT
BRANCH   2  11
ATOM     10  O   UNL     1      21.621  -5.318  -4.969  0.00  0.00    +0.000 OA
ATOM     11  C   UNL     1      20.938  -6.031  -4.227  0.00  0.00    +0.000 C 
ATOM     12  H   UNL     1      21.357  -6.965  -3.817  0.00  0.00    +0.000 HD
ENDBRANCH   2  11
BRANCH   4  13
ATOM     13  O   UNL     1      15.667  -4.784  -2.782  0.00  0.00    +0.000 OA
ATOM     14  H   UNL     1      15.671  -4.268  -1.957  0.00  0.00    +0.000 HD
ENDBRANCH   4  13
BRANCH   1  15
ATOM     15  O   UNL     1      17.792  -3.419  -1.621  0.00  0.00    +0.000 OA
BRANCH  15  16
ATOM     16  C   UNL     1      18.444  -3.556  -0.360  0.00  0.00    +0.000 C 
ATOM     17  H   UNL     1      18.985  -2.645  -0.083  0.00  0.00    +0.000 HD
ATOM     18  H   UNL     1      19.081  -4.447  -0.329  0.00  0.00    +0.000 HD
ATOM     19  H   UNL     1      17.661  -3.700   0.392  0.00  0.00    +0.000 HD
ENDBRANCH  15  16
ENDBRANCH   1  15
TORSDOF 4
ENDMDL
MODEL 7
REMARK VINA RESULT:    -4.308     20.729     21.797
REMARK INTER + INTRA:          -5.144
REMARK INTER:                  -5.078
REMARK INTRA:                  -0.066
REMARK UNBOUND:                -0.080
REMARK  Name = 1183
REMARK  4 active torsions:
REMARK  status: ('A' for Active; 'I' for Inactive)
REMARK    1  A    between atoms: O_1  and  C_4
REMARK    2  A    between atoms: O_1  and  C_11
REMARK    3  A    between atoms: O_2  and  C_7
REMARK    4  A    between atoms: C_5  and  C_10
REMARK                            x       y       z     vdW  Elec       q    Type
REMARK                         _______ _______ _______ _____ _____    ______ ____
ROOT
ATOM      1  C   UNL     1      14.475  18.699 -12.738  0.00  0.00    +0.000 A 
ATOM      2  C   UNL     1      12.271  18.403 -11.790  0.00  0.00    +0.000 A 
ATOM      3  C   UNL     1      13.266  19.239 -12.298  0.00  0.00    +0.000 A 
ATOM      4  C   UNL     1      14.689  17.322 -12.669  0.00  0.00    +0.000 A 
ATOM      5  C   UNL     1      12.487  17.026 -11.721  0.00  0.00    +0.000 A 
ATOM      6  C   UNL     1      13.695  16.486 -12.161  0.00  0.00    +0.000 A 
ATOM      7  H   UNL     1      13.045  20.301 -12.328  0.00  0.00    +0.000 HD
ATOM      8  H   UNL     1      11.726  16.355 -11.329  0.00  0.00    +0.000 HD
ATOM      9  H   UNL     1      13.850  15.412 -12.102  0.00  0.00    +0.000 HD
ENDROOT
BRANCH   2  11
ATOM     10  O   UNL     1      10.177  19.458 -12.095  0.00  0.00    +0.000 OA
ATOM     11  C   UNL     1      11.012  18.965 -11.332  0.00  0.00    +0.000 C 
ATOM     12  H   UNL     1      10.821  18.936 -10.245  0.00  0.00    +0.000 HD
ENDBRANCH   2  11
BRANCH   4  13
ATOM     13  O   UNL     1      15.865  16.783 -13.095  0.00  0.00    +0.000 OA
ATOM     14  H   UNL     1      16.602  17.251 -12.667  0.00  0.00    +0.000 HD
ENDBRANCH   4  13
BRANCH   1  15
ATOM     15  O   UNL     1      15.437  19.526 -13.232  0.00  0.00    +0.000 OA
BRANCH  15  16
ATOM     16  C   UNL     1      15.000  20.747 -13.826  0.00  0.00    +0.000 C 
ATOM     17  H   UNL     1      13.930  20.913 -13.668  0.00  0.00    +0.000 HD
ATOM     18  H   UNL     1      15.282  20.805 -14.884  0.00  0.00    +0.000 HD
ATOM     19  H   UNL     1      15.526  21.560 -13.313  0.00  0.00    +0.000 HD
ENDBRANCH  15  16
ENDBRANCH   1  15
TORSDOF 4
ENDMDL
MODEL 8
REMARK VINA RESULT:    -4.006      2.484      3.759
REMARK INTER + INTRA:          -4.788
REMARK INTER:                  -4.707
REMARK INTRA:                  -0.081
REMARK UNBOUND:                -0.080
REMARK  Name = 1183
REMARK  4 active torsions:
REMARK  status: ('A' for Active; 'I' for Inactive)
REMARK    1  A    between atoms: O_1  and  C_4
REMARK    2  A    between atoms: O_1  and  C_11
REMARK    3  A    between atoms: O_2  and  C_7
REMARK    4  A    between atoms: C_5  and  C_10
REMARK                            x       y       z     vdW  Elec       q    Type
REMARK                         _______ _______ _______ _____ _____    ______ ____
ROOT
ATOM      1  C   UNL     1       2.357   2.946 -20.884  0.00  0.00    +0.000 A 
ATOM      2  C   UNL     1       4.237   4.439 -21.165  0.00  0.00    +0.000 A 
ATOM      3  C   UNL     1       3.201   3.935 -20.378  0.00  0.00    +0.000 A 
ATOM      4  C   UNL     1       2.549   2.461 -22.178  0.00  0.00    +0.000 A 
ATOM      5  C   UNL     1       4.428   3.954 -22.459  0.00  0.00    +0.000 A 
ATOM      6  C   UNL     1       3.584   2.965 -22.966  0.00  0.00    +0.000 A 
ATOM      7  H   UNL     1       3.098   4.348 -19.379  0.00  0.00    +0.000 HD
ATOM      8  H   UNL     1       5.228   4.332 -23.090  0.00  0.00    +0.000 HD
ATOM      9  H   UNL     1       3.745   2.596 -23.974  0.00  0.00    +0.000 HD
ENDROOT
BRANCH   2  11
ATOM     10  O   UNL     1       5.820   5.308 -19.637  0.00  0.00    +0.000 OA
ATOM     11  C   UNL     1       5.116   5.469 -20.638  0.00  0.00    +0.000 C 
ATOM     12  H   UNL     1       5.135   6.431 -21.178  0.00  0.00    +0.000 HD
ENDBRANCH   2  11
BRANCH   4  13
ATOM     13  O   UNL     1       1.732   1.496 -22.684  0.00  0.00    +0.000 OA
ATOM     14  H   UNL     1       0.833   1.856 -22.772  0.00  0.00    +0.000 HD
ENDBRANCH   4  13
BRANCH   1  15
ATOM     15  O   UNL     1       1.349   2.462 -20.105  0.00  0.00    +0.000 OA
BRANCH  15  16
ATOM     16  C   UNL     1       0.245   3.331 -19.861  0.00  0.00    +0.000 C 
ATOM     17  H   UNL     1       0.573   4.355 -19.656  0.00  0.00    +0.000 HD
ATOM     18  H   UNL     1      -0.413   2.937 -19.078  0.00  0.00    +0.000 HD
ATOM     19  H   UNL     1      -0.346   3.366 -20.783  0.00  0.00    +0.000 HD
ENDBRANCH  15  16
ENDBRANCH   1  15
TORSDOF 4
ENDMDL
MODEL 9
REMARK VINA RESULT:    -3.863     26.093     26.569
REMARK INTER + INTRA:          -4.621
REMARK INTER:                  -4.537
REMARK INTRA:                  -0.084
REMARK UNBOUND:                -0.080
REMARK  Name = 1183
REMARK  4 active torsions:
REMARK  status: ('A' for Active; 'I' for Inactive)
REMARK    1  A    between atoms: O_1  and  C_4
REMARK    2  A    between atoms: O_1  and  C_11
REMARK    3  A    between atoms: O_2  and  C_7
REMARK    4  A    between atoms: C_5  and  C_10
REMARK                            x       y       z     vdW  Elec       q    Type
REMARK                         _______ _______ _______ _____ _____    ______ ____
ROOT
ATOM      1  C   UNL     1      17.175  -5.224  -3.167  0.00  0.00    +0.000 A 
ATOM      2  C   UNL     1      19.129  -3.978  -2.482  0.00  0.00    +0.000 A 
ATOM      3  C   UNL     1      17.772  -4.270  -2.343  0.00  0.00    +0.000 A 
ATOM      4  C   UNL     1      17.935  -5.887  -4.130  0.00  0.00    +0.000 A 
ATOM      5  C   UNL     1      19.889  -4.642  -3.446  0.00  0.00    +0.000 A 
ATOM      6  C   UNL     1      19.292  -5.596  -4.270  0.00  0.00    +0.000 A 
ATOM      7  H   UNL     1      17.229  -3.724  -1.577  0.00  0.00    +0.000 HD
ATOM      8  H   UNL     1      20.948  -4.431  -3.573  0.00  0.00    +0.000 HD
ATOM      9  H   UNL     1      19.895  -6.105  -5.016  0.00  0.00    +0.000 HD
ENDROOT
BRANCH   2  11
ATOM     10  O   UNL     1      19.147  -2.400  -0.720  0.00  0.00    +0.000 OA
ATOM     11  C   UNL     1      19.751  -2.984  -1.624  0.00  0.00    +0.000 C 
ATOM     12  H   UNL     1      20.815  -2.761  -1.812  0.00  0.00    +0.000 HD
ENDBRANCH   2  11
BRANCH   4  13
ATOM     13  O   UNL     1      17.364  -6.821  -4.941  0.00  0.00    +0.000 OA
ATOM     14  H   UNL     1      16.699  -7.318  -4.433  0.00  0.00    +0.000 HD
ENDBRANCH   4  13
BRANCH   1  15
ATOM     15  O   UNL     1      15.849  -5.500  -3.020  0.00  0.00    +0.000 OA
BRANCH  15  16
ATOM     16  C   UNL     1      15.468  -6.266  -1.879  0.00  0.00    +0.000 C 
ATOM     17  H   UNL     1      16.293  -6.367  -1.167  0.00  0.00    +0.000 HD
ATOM     18  H   UNL     1      15.040  -7.233  -2.166  0.00  0.00    +0.000 HD
ATOM     19  H   UNL     1      14.675  -5.708  -1.368  0.00  0.00    +0.000 HD
ENDBRANCH  15  16
ENDBRANCH   1  15
TORSDOF 4
ENDMDL
MODEL 10
REMARK VINA RESULT:    -3.853     22.251     23.634
REMARK INTER + INTRA:          -4.609
REMARK INTER:                  -4.529
REMARK INTRA:                  -0.080
REMARK UNBOUND:                -0.080
REMARK  Name = 1183
REMARK  4 active torsions:
REMARK  status: ('A' for Active; 'I' for Inactive)
REMARK    1  A    between atoms: O_1  and  C_4
REMARK    2  A    between atoms: O_1  and  C_11
REMARK    3  A    between atoms: O_2  and  C_7
REMARK    4  A    between atoms: C_5  and  C_10
REMARK                            x       y       z     vdW  Elec       q    Type
REMARK                         _______ _______ _______ _____ _____    ______ ____
ROOT
ATOM      1  C   UNL     1     -14.848  -5.922  -5.755  0.00  0.00    +0.000 A 
ATOM      2  C   UNL     1     -12.947  -4.622  -6.489  0.00  0.00    +0.000 A 
ATOM      3  C   UNL     1     -14.228  -5.124  -6.718  0.00  0.00    +0.000 A 
ATOM      4  C   UNL     1     -14.186  -6.217  -4.564  0.00  0.00    +0.000 A 
ATOM      5  C   UNL     1     -12.286  -4.917  -5.296  0.00  0.00    +0.000 A 
ATOM      6  C   UNL     1     -12.905  -5.714  -4.333  0.00  0.00    +0.000 A 
ATOM      7  H   UNL     1     -14.695  -4.864  -7.662  0.00  0.00    +0.000 HD
ATOM      8  H   UNL     1     -11.287  -4.536  -5.095  0.00  0.00    +0.000 HD
ATOM      9  H   UNL     1     -12.379  -5.936  -3.409  0.00  0.00    +0.000 HD
ENDROOT
BRANCH   2  11
ATOM     10  O   UNL     1     -12.421  -2.563  -7.527  0.00  0.00    +0.000 OA
ATOM     11  C   UNL     1     -12.301  -3.791  -7.491  0.00  0.00    +0.000 C 
ATOM     12  H   UNL     1     -11.681  -4.309  -8.242  0.00  0.00    +0.000 HD
ENDBRANCH   2  11
BRANCH   4  13
ATOM     13  O   UNL     1     -14.780  -6.995  -3.616  0.00  0.00    +0.000 OA
ATOM     14  H   UNL     1     -14.094  -7.497  -3.143  0.00  0.00    +0.000 HD
ENDBRANCH   4  13
BRANCH   1  15
ATOM     15  O   UNL     1     -16.098  -6.407  -5.992  0.00  0.00    +0.000 OA
BRANCH  15  16
ATOM     16  C   UNL     1     -17.188  -5.504  -5.813  0.00  0.00    +0.000 C 
ATOM     17  H   UNL     1     -18.123  -6.035  -5.605  0.00  0.00    +0.000 HD
ATOM     18  H   UNL     1     -17.279  -4.810  -6.655  0.00  0.00    +0.000 HD
ATOM     19  H   UNL     1     -16.963  -4.900  -4.927  0.00  0.00    +0.000 HD
ENDBRANCH  15  16
ENDBRANCH   1  15
TORSDOF 4
ENDMDL
