REMARK  Name = 263
REMARK  4 active torsions:
REMARK  status: ('A' for Active; 'I' for Inactive)
REMARK    1  A    between atoms: O_1  and  C_4
REMARK    2  A    between atoms: C_2  and  C_3
REMARK    3  A    between atoms: C_2  and  C_4
REMARK    4  A    between atoms: C_3  and  C_5
REMARK                            x       y       z     vdW  Elec       q    Type
REMARK                         _______ _______ _______ _____ _____    ______ ____
ROOT
ATOM      1  C   UNL     1      -0.025   0.342   0.019  0.00  0.00    +0.000 C 
ATOM      2  H   UNL     1      -0.036   0.986   0.908  0.00  0.00    +0.000 HD
ATOM      3  H   UNL     1      -0.026   1.021  -0.843  0.00  0.00    +0.000 HD
ENDROOT
BRANCH   1   4
ATOM      4  C   UNL     1       1.236  -0.518   0.006  0.00  0.00    +0.000 C 
ATOM      5  H   UNL     1       1.233  -1.169  -0.876  0.00  0.00    +0.000 HD
ATOM      6  H   UNL     1       1.253  -1.167   0.889  0.00  0.00    +0.000 HD
BRANCH   4   7
ATOM      7  C   UNL     1       2.493   0.336  -0.013  0.00  0.00    +0.000 C 
ATOM      8  H   UNL     1       2.523   0.972  -0.903  0.00  0.00    +0.000 HD
ATOM      9  H   UNL     1       2.543   0.980   0.872  0.00  0.00    +0.000 HD
ATOM     10  H   UNL     1       3.384  -0.300  -0.020  0.00  0.00    +0.000 HD
ENDBRANCH   4   7
ENDBRANCH   1   4
BRANCH   1  11
ATOM     11  C   UNL     1      -1.286  -0.509  -0.006  0.00  0.00    +0.000 C 
ATOM     12  H   UNL     1      -1.327  -1.143  -0.897  0.00  0.00    +0.000 HD
ATOM     13  H   UNL     1      -1.345  -1.151   0.879  0.00  0.00    +0.000 HD
BRANCH  11  14
ATOM     14  O   UNL     1      -2.419   0.349  -0.007  0.00  0.00    +0.000 OA
ATOM     15  H   UNL     1      -2.375   0.892  -0.812  0.00  0.00    +0.000 HD
ENDBRANCH  11  14
ENDBRANCH   1  11
TORSDOF 4
