REMARK  Name = 8174
REMARK  10 active torsions:
REMARK  status: ('A' for Active; 'I' for Inactive)
REMARK    1  A    between atoms: O_1  and  C_10
REMARK    2  A    between atoms: C_2  and  C_3
REMARK    3  A    between atoms: C_2  and  C_4
REMARK    4  A    between atoms: C_3  and  C_5
REMARK    5  A    between atoms: C_4  and  C_6
REMARK    6  A    between atoms: C_5  and  C_7
REMARK    7  A    between atoms: C_6  and  C_8
REMARK    8  A    between atoms: C_7  and  C_9
REMARK    9  A    between atoms: C_8  and  C_10
REMARK   10  A    between atoms: C_9  and  C_11
REMARK                            x       y       z     vdW  Elec       q    Type
REMARK                         _______ _______ _______ _____ _____    ______ ____
ROOT
ATOM      1  C   UNL     1      -0.021  -0.455   0.060  0.00  0.00    +0.000 C 
ATOM      2  H   UNL     1      -0.046  -1.139   0.918  0.00  0.00    +0.000 HD
ATOM      3  H   UNL     1      -0.008  -1.080  -0.842  0.00  0.00    +0.000 HD
ENDROOT
BRANCH   1   4
ATOM      4  C   UNL     1       1.271   0.365   0.118  0.00  0.00    +0.000 C 
ATOM      5  H   UNL     1       1.281   0.956   1.042  0.00  0.00    +0.000 HD
ATOM      6  H   UNL     1       1.273   1.080  -0.714  0.00  0.00    +0.000 HD
BRANCH   4   7
ATOM      7  C   UNL     1       2.538  -0.489   0.048  0.00  0.00    +0.000 C 
ATOM      8  H   UNL     1       2.569  -1.173   0.904  0.00  0.00    +0.000 HD
ATOM      9  H   UNL     1       2.512  -1.106  -0.859  0.00  0.00    +0.000 HD
BRANCH   7  10
ATOM     10  C   UNL     1       3.795   0.385   0.036  0.00  0.00    +0.000 C 
ATOM     11  H   UNL     1       3.832   0.989   0.951  0.00  0.00    +0.000 HD
ATOM     12  H   UNL     1       3.748   1.083  -0.809  0.00  0.00    +0.000 HD
BRANCH  10  13
ATOM     13  C   UNL     1       5.062  -0.463  -0.073  0.00  0.00    +0.000 C 
ATOM     14  H   UNL     1       5.021  -1.080  -0.979  0.00  0.00    +0.000 HD
ATOM     15  H   UNL     1       5.127  -1.146   0.782  0.00  0.00    +0.000 HD
BRANCH  13  16
ATOM     16  C   UNL     1       6.310   0.403  -0.119  0.00  0.00    +0.000 C 
ATOM     17  H   UNL     1       6.398   1.012   0.787  0.00  0.00    +0.000 HD
ATOM     18  H   UNL     1       6.291   1.074  -0.984  0.00  0.00    +0.000 HD
ATOM     19  H   UNL     1       7.204  -0.224  -0.195  0.00  0.00    +0.000 HD
ENDBRANCH  13  16
ENDBRANCH  10  13
ENDBRANCH   7  10
ENDBRANCH   4   7
ENDBRANCH   1   4
BRANCH   1  20
ATOM     20  C   UNL     1      -1.288   0.403   0.056  0.00  0.00    +0.000 C 
ATOM     21  H   UNL     1      -1.276   1.066  -0.817  0.00  0.00    +0.000 HD
ATOM     22  H   UNL     1      -1.301   1.041   0.948  0.00  0.00    +0.000 HD
BRANCH  20  23
ATOM     23  C   UNL     1      -2.546  -0.468   0.028  0.00  0.00    +0.000 C 
ATOM     24  H   UNL     1      -2.566  -1.118   0.911  0.00  0.00    +0.000 HD
ATOM     25  H   UNL     1      -2.523  -1.120  -0.854  0.00  0.00    +0.000 HD
BRANCH  23  26
ATOM     26  C   UNL     1      -3.815   0.390  -0.006  0.00  0.00    +0.000 C 
ATOM     27  H   UNL     1      -3.855   1.038   0.878  0.00  0.00    +0.000 HD
ATOM     28  H   UNL     1      -3.792   1.065  -0.871  0.00  0.00    +0.000 HD
BRANCH  26  29
ATOM     29  C   UNL     1      -5.081  -0.456  -0.068  0.00  0.00    +0.000 C 
ATOM     30  H   UNL     1      -5.146  -1.116   0.803  0.00  0.00    +0.000 HD
ATOM     31  H   UNL     1      -5.092  -1.068  -0.976  0.00  0.00    +0.000 HD
BRANCH  29  32
ATOM     32  O   UNL     1      -6.225   0.385  -0.079  0.00  0.00    +0.000 OA
ATOM     33  H   UNL     1      -7.005  -0.195  -0.118  0.00  0.00    +0.000 HD
ENDBRANCH  29  32
ENDBRANCH  26  29
ENDBRANCH  23  26
ENDBRANCH  20  23
ENDBRANCH   1  20
TORSDOF 10
