REMARK  Name = 8193
REMARK  12 active torsions:
REMARK  status: ('A' for Active; 'I' for Inactive)
REMARK    1  A    between atoms: O_1  and  C_12
REMARK    2  A    between atoms: C_2  and  C_3
REMARK    3  A    between atoms: C_2  and  C_4
REMARK    4  A    between atoms: C_3  and  C_5
REMARK    5  A    between atoms: C_4  and  C_6
REMARK    6  A    between atoms: C_5  and  C_7
REMARK    7  A    between atoms: C_6  and  C_8
REMARK    8  A    between atoms: C_7  and  C_9
REMARK    9  A    between atoms: C_8  and  C_10
REMARK   10  A    between atoms: C_9  and  C_11
REMARK   11  A    between atoms: C_10  and  C_12
REMARK   12  A    between atoms: C_11  and  C_13
REMARK                            x       y       z     vdW  Elec       q    Type
REMARK                         _______ _______ _______ _____ _____    ______ ____
ROOT
ATOM      1  C   UNL     1      -0.033   0.429   0.005  0.00  0.00    +0.000 C 
ATOM      2  H   UNL     1      -0.047   1.064  -0.889  0.00  0.00    +0.000 HD
ATOM      3  H   UNL     1      -0.039   1.101   0.872  0.00  0.00    +0.000 HD
ENDROOT
BRANCH   1   4
ATOM      4  C   UNL     1       1.265  -0.387   0.017  0.00  0.00    +0.000 C 
ATOM      5  H   UNL     1       1.285  -1.020  -0.879  0.00  0.00    +0.000 HD
ATOM      6  H   UNL     1       1.243  -1.070   0.876  0.00  0.00    +0.000 HD
BRANCH   4   7
ATOM      7  C   UNL     1       2.565   0.423   0.078  0.00  0.00    +0.000 C 
ATOM      8  H   UNL     1       2.574   1.023   0.996  0.00  0.00    +0.000 HD
ATOM      9  H   UNL     1       2.580   1.128  -0.762  0.00  0.00    +0.000 HD
BRANCH   7  10
ATOM     10  C   UNL     1       3.825  -0.445   0.027  0.00  0.00    +0.000 C 
ATOM     11  H   UNL     1       3.787  -1.082  -0.865  0.00  0.00    +0.000 HD
ATOM     12  H   UNL     1       3.836  -1.116   0.895  0.00  0.00    +0.000 HD
BRANCH  10  13
ATOM     13  C   UNL     1       5.123   0.369  -0.001  0.00  0.00    +0.000 C 
ATOM     14  H   UNL     1       5.101   1.052  -0.859  0.00  0.00    +0.000 HD
ATOM     15  H   UNL     1       5.166   0.995   0.899  0.00  0.00    +0.000 HD
BRANCH  13  16
ATOM     16  C   UNL     1       6.383  -0.493  -0.079  0.00  0.00    +0.000 C 
ATOM     17  H   UNL     1       6.376  -1.078  -1.006  0.00  0.00    +0.000 HD
ATOM     18  H   UNL     1       6.397  -1.205   0.754  0.00  0.00    +0.000 HD
BRANCH  16  19
ATOM     19  C   UNL     1       7.642   0.360  -0.028  0.00  0.00    +0.000 C 
ATOM     20  H   UNL     1       7.692   0.929   0.906  0.00  0.00    +0.000 HD
ATOM     21  H   UNL     1       8.532  -0.275  -0.087  0.00  0.00    +0.000 HD
ATOM     22  H   UNL     1       7.671   1.066  -0.864  0.00  0.00    +0.000 HD
ENDBRANCH  16  19
ENDBRANCH  13  16
ENDBRANCH  10  13
ENDBRANCH   7  10
ENDBRANCH   4   7
ENDBRANCH   1   4
BRANCH   1  23
ATOM     23  C   UNL     1      -1.294  -0.438   0.035  0.00  0.00    +0.000 C 
ATOM     24  H   UNL     1      -1.280  -1.065   0.936  0.00  0.00    +0.000 HD
ATOM     25  H   UNL     1      -1.281  -1.119  -0.825  0.00  0.00    +0.000 HD
BRANCH  23  26
ATOM     26  C   UNL     1      -2.590   0.378   0.011  0.00  0.00    +0.000 C 
ATOM     27  H   UNL     1      -2.608   1.049   0.878  0.00  0.00    +0.000 HD
ATOM     28  H   UNL     1      -2.594   1.014  -0.883  0.00  0.00    +0.000 HD
BRANCH  26  29
ATOM     29  C   UNL     1      -3.852  -0.489   0.016  0.00  0.00    +0.000 C 
ATOM     30  H   UNL     1      -3.866  -1.109   0.920  0.00  0.00    +0.000 HD
ATOM     31  H   UNL     1      -3.836  -1.169  -0.844  0.00  0.00    +0.000 HD
BRANCH  29  32
ATOM     32  C   UNL     1      -5.117   0.375  -0.037  0.00  0.00    +0.000 C 
ATOM     33  H   UNL     1      -5.129   1.078   0.805  0.00  0.00    +0.000 HD
ATOM     34  H   UNL     1      -5.114   0.994  -0.943  0.00  0.00    +0.000 HD
BRANCH  32  35
ATOM     35  C   UNL     1      -6.389  -0.464  -0.007  0.00  0.00    +0.000 C 
ATOM     36  H   UNL     1      -6.430  -1.133  -0.872  0.00  0.00    +0.000 HD
ATOM     37  H   UNL     1      -6.432  -1.065   0.907  0.00  0.00    +0.000 HD
BRANCH  35  38
ATOM     38  O   UNL     1      -7.529   0.384  -0.039  0.00  0.00    +0.000 OA
ATOM     39  H   UNL     1      -8.312  -0.192  -0.018  0.00  0.00    +0.000 HD
ENDBRANCH  35  38
ENDBRANCH  32  35
ENDBRANCH  29  32
ENDBRANCH  26  29
ENDBRANCH  23  26
ENDBRANCH   1  23
TORSDOF 12
