REMARK  Name = 8192
REMARK  11 active torsions:
REMARK  status: ('A' for Active; 'I' for Inactive)
REMARK    1  A    between atoms: C_2  and  C_3
REMARK    2  A    between atoms: C_2  and  C_4
REMARK    3  A    between atoms: C_3  and  C_5
REMARK    4  A    between atoms: C_4  and  C_6
REMARK    5  A    between atoms: C_5  and  C_7
REMARK    6  A    between atoms: C_6  and  C_8
REMARK    7  A    between atoms: C_7  and  C_9
REMARK    8  A    between atoms: C_8  and  C_10
REMARK    9  A    between atoms: C_9  and  C_11
REMARK   10  A    between atoms: C_10  and  C_12
REMARK   11  A    between atoms: C_11  and  C_13
REMARK                            x       y       z     vdW  Elec       q    Type
REMARK                         _______ _______ _______ _____ _____    ______ ____
ROOT
ATOM      1  C   UNL     1      -0.027  -0.375  -0.035  0.00  0.00    +0.000 C 
ATOM      2  H   UNL     1      -0.028  -1.014  -0.925  0.00  0.00    +0.000 HD
ATOM      3  H   UNL     1      -0.021  -1.037   0.840  0.00  0.00    +0.000 HD
ENDROOT
BRANCH   1   4
ATOM      4  C   UNL     1      -1.292   0.489  -0.019  0.00  0.00    +0.000 C 
ATOM      5  H   UNL     1      -1.300   1.114   0.882  0.00  0.00    +0.000 HD
ATOM      6  H   UNL     1      -1.289   1.165  -0.882  0.00  0.00    +0.000 HD
BRANCH   4   7
ATOM      7  C   UNL     1      -2.554  -0.376  -0.055  0.00  0.00    +0.000 C 
ATOM      8  H   UNL     1      -2.541  -1.064   0.800  0.00  0.00    +0.000 HD
ATOM      9  H   UNL     1      -2.545  -0.996  -0.960  0.00  0.00    +0.000 HD
BRANCH   7  10
ATOM     10  C   UNL     1      -3.850   0.438  -0.019  0.00  0.00    +0.000 C 
ATOM     11  H   UNL     1      -3.838   1.092   0.862  0.00  0.00    +0.000 HD
ATOM     12  H   UNL     1      -3.885   1.093  -0.898  0.00  0.00    +0.000 HD
BRANCH  10  13
ATOM     13  C   UNL     1      -5.111  -0.428   0.020  0.00  0.00    +0.000 C 
ATOM     14  H   UNL     1      -5.087  -1.073   0.907  0.00  0.00    +0.000 HD
ATOM     15  H   UNL     1      -5.128  -1.086  -0.857  0.00  0.00    +0.000 HD
BRANCH  13  16
ATOM     16  C   UNL     1      -6.374   0.433   0.043  0.00  0.00    +0.000 C 
ATOM     17  H   UNL     1      -6.370   1.076   0.931  0.00  0.00    +0.000 HD
ATOM     18  H   UNL     1      -6.393   1.091  -0.834  0.00  0.00    +0.000 HD
BRANCH  16  19
ATOM     19  C   UNL     1      -7.632  -0.421   0.049  0.00  0.00    +0.000 C 
ATOM     20  H   UNL     1      -7.682  -1.052  -0.844  0.00  0.00    +0.000 HD
ATOM     21  H   UNL     1      -7.660  -1.070   0.931  0.00  0.00    +0.000 HD
ATOM     22  H   UNL     1      -8.522   0.215   0.067  0.00  0.00    +0.000 HD
ENDBRANCH  16  19
ENDBRANCH  13  16
ENDBRANCH  10  13
ENDBRANCH   7  10
ENDBRANCH   4   7
ENDBRANCH   1   4
BRANCH   1  23
ATOM     23  C   UNL     1       1.234   0.491  -0.031  0.00  0.00    +0.000 C 
ATOM     24  H   UNL     1       1.220   1.161  -0.900  0.00  0.00    +0.000 HD
ATOM     25  H   UNL     1       1.231   1.130   0.861  0.00  0.00    +0.000 HD
BRANCH  23  26
ATOM     26  C   UNL     1       2.533  -0.321  -0.054  0.00  0.00    +0.000 C 
ATOM     27  H   UNL     1       2.521  -1.020   0.793  0.00  0.00    +0.000 HD
ATOM     28  H   UNL     1       2.544  -0.938  -0.962  0.00  0.00    +0.000 HD
BRANCH  26  29
ATOM     29  C   UNL     1       3.830   0.490   0.005  0.00  0.00    +0.000 C 
ATOM     30  H   UNL     1       3.820   1.112   0.909  0.00  0.00    +0.000 HD
ATOM     31  H   UNL     1       3.858   1.176  -0.850  0.00  0.00    +0.000 HD
BRANCH  29  32
ATOM     32  C   UNL     1       5.092  -0.376   0.003  0.00  0.00    +0.000 C 
ATOM     33  H   UNL     1       5.074  -1.046   0.871  0.00  0.00    +0.000 HD
ATOM     34  H   UNL     1       5.099  -1.007  -0.894  0.00  0.00    +0.000 HD
BRANCH  32  36
ATOM     35 CL   UNL     1       7.803  -0.532   0.052  0.00  0.00    +0.000 Cl
ATOM     36  C   UNL     1       6.347   0.488   0.039  0.00  0.00    +0.000 C 
ATOM     37  H   UNL     1       6.371   1.113   0.937  0.00  0.00    +0.000 HD
ATOM     38  H   UNL     1       6.404   1.139  -0.839  0.00  0.00    +0.000 HD
ENDBRANCH  32  36
ENDBRANCH  29  32
ENDBRANCH  26  29
ENDBRANCH  23  26
ENDBRANCH   1  23
TORSDOF 11
