REMARK  Name = 8914
REMARK  9 active torsions:
REMARK  status: ('A' for Active; 'I' for Inactive)
REMARK    1  A    between atoms: O_1  and  C_9
REMARK    2  A    between atoms: C_2  and  C_3
REMARK    3  A    between atoms: C_2  and  C_4
REMARK    4  A    between atoms: C_3  and  C_5
REMARK    5  A    between atoms: C_4  and  C_6
REMARK    6  A    between atoms: C_5  and  C_7
REMARK    7  A    between atoms: C_6  and  C_8
REMARK    8  A    between atoms: C_7  and  C_9
REMARK    9  A    between atoms: C_8  and  C_10
REMARK                            x       y       z     vdW  Elec       q    Type
REMARK                         _______ _______ _______ _____ _____    ______ ____
ROOT
ATOM      1  C   UNL     1      -0.607  -0.419   0.061  0.00  0.00    +0.000 C 
ATOM      2  H   UNL     1      -0.610  -1.063   0.950  0.00  0.00    +0.000 HD
ATOM      3  H   UNL     1      -0.617  -1.085  -0.811  0.00  0.00    +0.000 HD
ENDROOT
BRANCH   1   4
ATOM      4  C   UNL     1       0.674   0.417   0.044  0.00  0.00    +0.000 C 
ATOM      5  H   UNL     1       0.700   1.066   0.928  0.00  0.00    +0.000 HD
ATOM      6  H   UNL     1       0.672   1.070  -0.837  0.00  0.00    +0.000 HD
BRANCH   4   7
ATOM      7  C   UNL     1       1.918  -0.474   0.020  0.00  0.00    +0.000 C 
ATOM      8  H   UNL     1       1.929  -1.114   0.911  0.00  0.00    +0.000 HD
ATOM      9  H   UNL     1       1.882  -1.136  -0.854  0.00  0.00    +0.000 HD
BRANCH   7  10
ATOM     10  C   UNL     1       3.200   0.362  -0.027  0.00  0.00    +0.000 C 
ATOM     11  H   UNL     1       3.203   1.001  -0.919  0.00  0.00    +0.000 HD
ATOM     12  H   UNL     1       3.231   1.046   0.831  0.00  0.00    +0.000 HD
BRANCH  10  13
ATOM     13  C   UNL     1       4.453  -0.504  -0.025  0.00  0.00    +0.000 C 
ATOM     14  H   UNL     1       4.498  -1.138   0.867  0.00  0.00    +0.000 HD
ATOM     15  H   UNL     1       4.479  -1.152  -0.907  0.00  0.00    +0.000 HD
BRANCH  13  16
ATOM     16  O   UNL     1       5.611   0.319  -0.050  0.00  0.00    +0.000 OA
ATOM     17  H   UNL     1       5.590   0.878   0.745  0.00  0.00    +0.000 HD
ENDBRANCH  13  16
ENDBRANCH  10  13
ENDBRANCH   7  10
ENDBRANCH   4   7
ENDBRANCH   1   4
BRANCH   1  18
ATOM     18  C   UNL     1      -1.887   0.423   0.054  0.00  0.00    +0.000 C 
ATOM     19  H   UNL     1      -1.877   1.085   0.929  0.00  0.00    +0.000 HD
ATOM     20  H   UNL     1      -1.866   1.077  -0.827  0.00  0.00    +0.000 HD
BRANCH  18  21
ATOM     21  C   UNL     1      -3.203  -0.360   0.048  0.00  0.00    +0.000 C 
ATOM     22  H   UNL     1      -3.250  -0.988   0.947  0.00  0.00    +0.000 HD
ATOM     23  H   UNL     1      -3.202  -1.041  -0.813  0.00  0.00    +0.000 HD
BRANCH  21  24
ATOM     24  C   UNL     1      -4.442   0.532  -0.016  0.00  0.00    +0.000 C 
ATOM     25  H   UNL     1      -4.486   1.170   0.875  0.00  0.00    +0.000 HD
ATOM     26  H   UNL     1      -4.379   1.194  -0.887  0.00  0.00    +0.000 HD
BRANCH  24  27
ATOM     27  C   UNL     1      -5.716  -0.294  -0.111  0.00  0.00    +0.000 C 
ATOM     28  H   UNL     1      -6.591   0.362  -0.152  0.00  0.00    +0.000 HD
ATOM     29  H   UNL     1      -5.715  -0.915  -1.012  0.00  0.00    +0.000 HD
ATOM     30  H   UNL     1      -5.824  -0.950   0.759  0.00  0.00    +0.000 HD
ENDBRANCH  24  27
ENDBRANCH  21  24
ENDBRANCH  18  21
ENDBRANCH   1  18
TORSDOF 9
