REMARK  Name = 18827
REMARK  7 active torsions:
REMARK  status: ('A' for Active; 'I' for Inactive)
REMARK    1  A    between atoms: O_1  and  C_6
REMARK    2  A    between atoms: C_2  and  C_3
REMARK    3  A    between atoms: C_2  and  C_4
REMARK    4  A    between atoms: C_3  and  C_5
REMARK    5  A    between atoms: C_4  and  C_6
REMARK    6  A    between atoms: C_5  and  C_7
REMARK    7  A    between atoms: C_6  and  C_8
REMARK                            x       y       z     vdW  Elec       q    Type
REMARK                         _______ _______ _______ _____ _____    ______ ____
ROOT
ATOM      1  C   UNL     1      -0.821  -0.323  -0.261  0.00  0.00    +0.000 C 
ATOM      2  H   UNL     1      -0.863  -1.388  -0.002  0.00  0.00    +0.000 HD
ATOM      3  H   UNL     1      -0.777  -0.257  -1.355  0.00  0.00    +0.000 HD
ENDROOT
BRANCH   1   4
ATOM      4  C   UNL     1      -2.087   0.375   0.242  0.00  0.00    +0.000 C 
ATOM      5  H   UNL     1      -2.039   1.445   0.003  0.00  0.00    +0.000 HD
ATOM      6  H   UNL     1      -2.142   0.291   1.334  0.00  0.00    +0.000 HD
BRANCH   4   7
ATOM      7  C   UNL     1      -3.343  -0.230  -0.386  0.00  0.00    +0.000 C 
ATOM      8  H   UNL     1      -3.303  -0.123  -1.476  0.00  0.00    +0.000 HD
ATOM      9  H   UNL     1      -3.389  -1.303  -0.166  0.00  0.00    +0.000 HD
BRANCH   7  10
ATOM     10  C   UNL     1      -4.604   0.439   0.137  0.00  0.00    +0.000 C 
ATOM     11  H   UNL     1      -4.691   0.321   1.221  0.00  0.00    +0.000 HD
ATOM     12  H   UNL     1      -4.605   1.509  -0.094  0.00  0.00    +0.000 HD
ATOM     13  H   UNL     1      -5.490  -0.009  -0.326  0.00  0.00    +0.000 HD
ENDBRANCH   7  10
ENDBRANCH   4   7
ENDBRANCH   1   4
BRANCH   1  14
ATOM     14  C   UNL     1       0.437   0.312   0.338  0.00  0.00    +0.000 C 
ATOM     15  H   UNL     1       0.396   0.192   1.429  0.00  0.00    +0.000 HD
ATOM     16  H   UNL     1       0.429   1.390   0.133  0.00  0.00    +0.000 HD
BRANCH  14  17
ATOM     17  C   UNL     1       1.747  -0.291  -0.190  0.00  0.00    +0.000 C 
ATOM     18  H   UNL     1       1.741  -0.233  -1.286  0.00  0.00    +0.000 HD
BRANCH  17  19
ATOM     19  C   UNL     1       2.973   0.402   0.346  0.00  0.00    +0.000 C 
ATOM     20  C   UNL     1       3.934   0.994  -0.375  0.00  0.00    +0.000 C 
ATOM     21  H   UNL     1       3.084   0.406   1.428  0.00  0.00    +0.000 HD
ATOM     22  H   UNL     1       4.781   1.460   0.114  0.00  0.00    +0.000 HD
ATOM     23  H   UNL     1       3.889   1.021  -1.458  0.00  0.00    +0.000 HD
ENDBRANCH  17  19
BRANCH  17  24
ATOM     24  O   UNL     1       1.765  -1.678   0.149  0.00  0.00    +0.000 OA
ATOM     25  H   UNL     1       2.592  -2.055  -0.195  0.00  0.00    +0.000 HD
ENDBRANCH  17  24
ENDBRANCH  14  17
ENDBRANCH   1  14
TORSDOF 7
