REMARK  Name = 12741
REMARK  9 active torsions:
REMARK  status: ('A' for Active; 'I' for Inactive)
REMARK    1  A    between atoms: C_2  and  C_3
REMARK    2  A    between atoms: C_2  and  C_4
REMARK    3  A    between atoms: C_3  and  C_5
REMARK    4  A    between atoms: C_4  and  C_6
REMARK    5  A    between atoms: C_5  and  C_7
REMARK    6  A    between atoms: C_6  and  C_8
REMARK    7  A    between atoms: C_7  and  C_9
REMARK    8  A    between atoms: C_8  and  C_10
REMARK    9  A    between atoms: C_10  and  C_11
REMARK                            x       y       z     vdW  Elec       q    Type
REMARK                         _______ _______ _______ _____ _____    ______ ____
ROOT
ATOM      1  C   UNL     1      -1.030   0.309   0.043  0.00  0.00    +0.000 C 
ATOM      2  H   UNL     1      -1.003   0.928   0.948  0.00  0.00    +0.000 HD
ATOM      3  H   UNL     1      -1.019   0.991  -0.816  0.00  0.00    +0.000 HD
ENDROOT
BRANCH   1   4
ATOM      4  C   UNL     1      -2.316  -0.518   0.024  0.00  0.00    +0.000 C 
ATOM      5  H   UNL     1      -2.337  -1.187   0.892  0.00  0.00    +0.000 HD
ATOM      6  H   UNL     1      -2.332  -1.150  -0.872  0.00  0.00    +0.000 HD
BRANCH   4   7
ATOM      7  C   UNL     1      -3.555   0.380   0.036  0.00  0.00    +0.000 C 
ATOM      8  H   UNL     1      -3.551   1.000   0.941  0.00  0.00    +0.000 HD
ATOM      9  H   UNL     1      -3.522   1.061  -0.822  0.00  0.00    +0.000 HD
BRANCH   7  10
ATOM     10  C   UNL     1      -4.840  -0.446  -0.016  0.00  0.00    +0.000 C 
ATOM     11  H   UNL     1      -4.840  -1.079  -0.911  0.00  0.00    +0.000 HD
ATOM     12  H   UNL     1      -4.890  -1.112   0.853  0.00  0.00    +0.000 HD
BRANCH  10  13
ATOM     13  C   UNL     1      -6.073   0.443  -0.038  0.00  0.00    +0.000 C 
ATOM     14  H   UNL     1      -6.120   1.069   0.859  0.00  0.00    +0.000 HD
ATOM     15  H   UNL     1      -6.980  -0.168  -0.074  0.00  0.00    +0.000 HD
ATOM     16  H   UNL     1      -6.069   1.099  -0.915  0.00  0.00    +0.000 HD
ENDBRANCH  10  13
ENDBRANCH   7  10
ENDBRANCH   4   7
ENDBRANCH   1   4
BRANCH   1  17
ATOM     17  C   UNL     1       0.209  -0.588  -0.003  0.00  0.00    +0.000 C 
ATOM     18  H   UNL     1       0.172  -1.222  -0.897  0.00  0.00    +0.000 HD
ATOM     19  H   UNL     1       0.209  -1.256   0.867  0.00  0.00    +0.000 HD
BRANCH  17  20
ATOM     20  C   UNL     1       1.495   0.239  -0.018  0.00  0.00    +0.000 C 
ATOM     21  H   UNL     1       1.504   0.895  -0.897  0.00  0.00    +0.000 HD
ATOM     22  H   UNL     1       1.522   0.893   0.863  0.00  0.00    +0.000 HD
BRANCH  20  23
ATOM     23  C   UNL     1       2.731  -0.656  -0.030  0.00  0.00    +0.000 C 
ATOM     24  H   UNL     1       2.733  -1.279  -0.932  0.00  0.00    +0.000 HD
ATOM     25  H   UNL     1       2.725  -1.312   0.847  0.00  0.00    +0.000 HD
BRANCH  23  27
ATOM     26  O   UNL     1       4.055   1.367  -0.008  0.00  0.00    +0.000 OA
ATOM     27  C   UNL     1       4.026   0.138  -0.007  0.00  0.00    +0.000 C 
BRANCH  27  28
ATOM     28  C   UNL     1       5.298  -0.669   0.017  0.00  0.00    +0.000 C 
ATOM     29  H   UNL     1       5.321  -1.290   0.915  0.00  0.00    +0.000 HD
ATOM     30  H   UNL     1       5.351  -1.295  -0.877  0.00  0.00    +0.000 HD
ATOM     31  H   UNL     1       6.161   0.003   0.030  0.00  0.00    +0.000 HD
ENDBRANCH  27  28
ENDBRANCH  23  27
ENDBRANCH  20  23
ENDBRANCH  17  20
ENDBRANCH   1  17
TORSDOF 9
