REMARK  Name = 22556
REMARK  11 active torsions:
REMARK  status: ('A' for Active; 'I' for Inactive)
REMARK    1  A    between atoms: C_2  and  C_3
REMARK    2  A    between atoms: C_2  and  C_4
REMARK    3  A    between atoms: C_3  and  C_5
REMARK    4  A    between atoms: C_4  and  C_6
REMARK    5  A    between atoms: C_5  and  C_7
REMARK    6  A    between atoms: C_6  and  C_8
REMARK    7  A    between atoms: C_7  and  C_9
REMARK    8  A    between atoms: C_8  and  C_10
REMARK    9  A    between atoms: C_9  and  C_11
REMARK   10  A    between atoms: C_10  and  C_12
REMARK   11  A    between atoms: C_12  and  C_13
REMARK                            x       y       z     vdW  Elec       q    Type
REMARK                         _______ _______ _______ _____ _____    ______ ____
ROOT
ATOM      1  C   UNL     1       1.104  -0.544  -0.019  0.00  0.00    +0.000 C 
ATOM      2  H   UNL     1       1.145  -1.257  -0.851  0.00  0.00    +0.000 HD
ATOM      3  H   UNL     1       1.098  -1.130   0.909  0.00  0.00    +0.000 HD
ENDROOT
BRANCH   1   4
ATOM      4  C   UNL     1       2.339   0.360  -0.049  0.00  0.00    +0.000 C 
ATOM      5  H   UNL     1       2.287   1.088   0.769  0.00  0.00    +0.000 HD
ATOM      6  H   UNL     1       2.357   0.927  -0.987  0.00  0.00    +0.000 HD
BRANCH   4   7
ATOM      7  C   UNL     1       3.627  -0.457   0.081  0.00  0.00    +0.000 C 
ATOM      8  H   UNL     1       3.609  -1.019   1.023  0.00  0.00    +0.000 HD
ATOM      9  H   UNL     1       3.664  -1.198  -0.728  0.00  0.00    +0.000 HD
BRANCH   7  10
ATOM     10  C   UNL     1       4.897   0.397   0.033  0.00  0.00    +0.000 C 
ATOM     11  H   UNL     1       4.883   1.110   0.867  0.00  0.00    +0.000 HD
ATOM     12  H   UNL     1       4.890   0.991  -0.890  0.00  0.00    +0.000 HD
BRANCH  10  13
ATOM     13  C   UNL     1       6.185  -0.425   0.088  0.00  0.00    +0.000 C 
ATOM     14  H   UNL     1       6.230  -0.981   1.032  0.00  0.00    +0.000 HD
ATOM     15  H   UNL     1       6.191  -1.162  -0.724  0.00  0.00    +0.000 HD
BRANCH  13  16
ATOM     16  C   UNL     1       7.415   0.462  -0.036  0.00  0.00    +0.000 C 
ATOM     17  H   UNL     1       7.453   1.194   0.777  0.00  0.00    +0.000 HD
ATOM     18  H   UNL     1       7.414   1.004  -0.987  0.00  0.00    +0.000 HD
ATOM     19  H   UNL     1       8.325  -0.144   0.009  0.00  0.00    +0.000 HD
ENDBRANCH  13  16
ENDBRANCH  10  13
ENDBRANCH   7  10
ENDBRANCH   4   7
ENDBRANCH   1   4
BRANCH   1  20
ATOM     20  C   UNL     1      -0.185   0.276  -0.110  0.00  0.00    +0.000 C 
ATOM     21  H   UNL     1      -0.181   0.858  -1.040  0.00  0.00    +0.000 HD
ATOM     22  H   UNL     1      -0.210   0.998   0.715  0.00  0.00    +0.000 HD
BRANCH  20  23
ATOM     23  C   UNL     1      -1.455  -0.579  -0.060  0.00  0.00    +0.000 C 
ATOM     24  H   UNL     1      -1.437  -1.196   0.847  0.00  0.00    +0.000 HD
ATOM     25  H   UNL     1      -1.456  -1.270  -0.913  0.00  0.00    +0.000 HD
BRANCH  23  26
ATOM     26  C   UNL     1      -2.745   0.248  -0.076  0.00  0.00    +0.000 C 
ATOM     27  H   UNL     1      -2.769   0.875  -0.976  0.00  0.00    +0.000 HD
ATOM     28  H   UNL     1      -2.746   0.932   0.781  0.00  0.00    +0.000 HD
BRANCH  26  29
ATOM     29  C   UNL     1      -3.996  -0.628  -0.033  0.00  0.00    +0.000 C 
ATOM     30  H   UNL     1      -3.961  -1.277   0.850  0.00  0.00    +0.000 HD
ATOM     31  H   UNL     1      -4.032  -1.262  -0.926  0.00  0.00    +0.000 HD
BRANCH  29  33
ATOM     32  O   UNL     1      -5.330   1.387   0.084  0.00  0.00    +0.000 OA
ATOM     33  C   UNL     1      -5.295   0.159   0.032  0.00  0.00    +0.000 C 
BRANCH  33  34
ATOM     34  C   UNL     1      -6.562  -0.654   0.066  0.00  0.00    +0.000 C 
ATOM     35  H   UNL     1      -6.616  -1.287  -0.824  0.00  0.00    +0.000 HD
ATOM     36  H   UNL     1      -7.429   0.012   0.074  0.00  0.00    +0.000 HD
ATOM     37  H   UNL     1      -6.578  -1.270   0.969  0.00  0.00    +0.000 HD
ENDBRANCH  33  34
ENDBRANCH  29  33
ENDBRANCH  26  29
ENDBRANCH  23  26
ENDBRANCH  20  23
ENDBRANCH   1  20
TORSDOF 11
