REMARK  Name = 12367
REMARK  9 active torsions:
REMARK  status: ('A' for Active; 'I' for Inactive)
REMARK    1  A    between atoms: O_1  and  C_7
REMARK    2  A    between atoms: C_2  and  C_3
REMARK    3  A    between atoms: C_2  and  C_4
REMARK    4  A    between atoms: C_3  and  C_5
REMARK    5  A    between atoms: C_4  and  C_6
REMARK    6  A    between atoms: C_5  and  C_7
REMARK    7  A    between atoms: C_6  and  C_8
REMARK    8  A    between atoms: C_7  and  C_9
REMARK    9  A    between atoms: C_8  and  C_10
REMARK                            x       y       z     vdW  Elec       q    Type
REMARK                         _______ _______ _______ _____ _____    ______ ____
ROOT
ATOM      1  C   UNL     1       0.388   0.507  -0.096  0.00  0.00    +0.000 C 
ATOM      2  H   UNL     1       0.376   0.719  -1.172  0.00  0.00    +0.000 HD
ATOM      3  H   UNL     1       0.455   1.471   0.423  0.00  0.00    +0.000 HD
ENDROOT
BRANCH   1   4
ATOM      4  C   UNL     1      -0.906  -0.204   0.306  0.00  0.00    +0.000 C 
ATOM      5  H   UNL     1      -0.901  -0.399   1.386  0.00  0.00    +0.000 HD
ATOM      6  H   UNL     1      -0.950  -1.177  -0.198  0.00  0.00    +0.000 HD
BRANCH   4   7
ATOM      7  C   UNL     1      -2.137   0.633  -0.057  0.00  0.00    +0.000 C 
ATOM      8  H   UNL     1      -2.091   1.601   0.457  0.00  0.00    +0.000 HD
ATOM      9  H   UNL     1      -2.114   0.832  -1.136  0.00  0.00    +0.000 HD
BRANCH   7  10
ATOM     10  C   UNL     1      -3.445  -0.079   0.298  0.00  0.00    +0.000 C 
ATOM     11  H   UNL     1      -3.477  -0.281   1.375  0.00  0.00    +0.000 HD
BRANCH  10  12
ATOM     12  C   UNL     1      -4.654   0.753  -0.107  0.00  0.00    +0.000 C 
ATOM     13  H   UNL     1      -4.653   1.726   0.394  0.00  0.00    +0.000 HD
ATOM     14  H   UNL     1      -4.673   0.915  -1.191  0.00  0.00    +0.000 HD
ATOM     15  H   UNL     1      -5.582   0.230   0.148  0.00  0.00    +0.000 HD
ENDBRANCH  10  12
BRANCH  10  16
ATOM     16  O   UNL     1      -3.497  -1.329  -0.385  0.00  0.00    +0.000 OA
ATOM     17  H   UNL     1      -4.325  -1.769  -0.129  0.00  0.00    +0.000 HD
ENDBRANCH  10  16
ENDBRANCH   7  10
ENDBRANCH   4   7
ENDBRANCH   1   4
BRANCH   1  18
ATOM     18  C   UNL     1       1.615  -0.343   0.241  0.00  0.00    +0.000 C 
ATOM     19  H   UNL     1       1.616  -0.572   1.313  0.00  0.00    +0.000 HD
ATOM     20  H   UNL     1       1.548  -1.301  -0.288  0.00  0.00    +0.000 HD
BRANCH  18  21
ATOM     21  C   UNL     1       2.942   0.332  -0.121  0.00  0.00    +0.000 C 
ATOM     22  H   UNL     1       3.008   1.288   0.414  0.00  0.00    +0.000 HD
ATOM     23  H   UNL     1       2.927   0.578  -1.191  0.00  0.00    +0.000 HD
BRANCH  21  24
ATOM     24  C   UNL     1       4.204  -0.482   0.173  0.00  0.00    +0.000 C 
ATOM     25  H   UNL     1       4.253  -0.696   1.248  0.00  0.00    +0.000 HD
ATOM     26  H   UNL     1       4.137  -1.449  -0.340  0.00  0.00    +0.000 HD
BRANCH  24  27
ATOM     27  C   UNL     1       5.489   0.211  -0.253  0.00  0.00    +0.000 C 
ATOM     28  H   UNL     1       6.355  -0.415  -0.017  0.00  0.00    +0.000 HD
ATOM     29  H   UNL     1       5.607   1.167   0.267  0.00  0.00    +0.000 HD
ATOM     30  H   UNL     1       5.489   0.404  -1.330  0.00  0.00    +0.000 HD
ENDBRANCH  24  27
ENDBRANCH  21  24
ENDBRANCH  18  21
ENDBRANCH   1  18
TORSDOF 9
