REMARK  Name = 13187
REMARK  8 active torsions:
REMARK  status: ('A' for Active; 'I' for Inactive)
REMARK    1  A    between atoms: C_2  and  C_3
REMARK    2  A    between atoms: C_2  and  C_4
REMARK    3  A    between atoms: C_3  and  C_5
REMARK    4  A    between atoms: C_4  and  C_6
REMARK    5  A    between atoms: C_5  and  C_7
REMARK    6  A    between atoms: C_6  and  C_8
REMARK    7  A    between atoms: C_7  and  C_9
REMARK    8  A    between atoms: C_9  and  C_10
REMARK                            x       y       z     vdW  Elec       q    Type
REMARK                         _______ _______ _______ _____ _____    ______ ____
ROOT
ATOM      1  C   UNL     1       0.420  -0.554  -0.015  0.00  0.00    +0.000 C 
ATOM      2  H   UNL     1       0.466  -1.159  -0.928  0.00  0.00    +0.000 HD
ATOM      3  H   UNL     1       0.451  -1.246   0.835  0.00  0.00    +0.000 HD
ENDROOT
BRANCH   1   4
ATOM      4  C   UNL     1       1.627   0.385   0.044  0.00  0.00    +0.000 C 
ATOM      5  H   UNL     1       1.589   0.976   0.967  0.00  0.00    +0.000 HD
ATOM      6  H   UNL     1       1.582   1.091  -0.794  0.00  0.00    +0.000 HD
BRANCH   4   7
ATOM      7  C   UNL     1       2.941  -0.395  -0.014  0.00  0.00    +0.000 C 
ATOM      8  H   UNL     1       2.970  -1.002  -0.927  0.00  0.00    +0.000 HD
ATOM      9  H   UNL     1       2.995  -1.086   0.836  0.00  0.00    +0.000 HD
BRANCH   7  10
ATOM     10  C   UNL     1       4.146   0.545   0.011  0.00  0.00    +0.000 C 
ATOM     11  H   UNL     1       4.114   1.168   0.912  0.00  0.00    +0.000 HD
ATOM     12  H   UNL     1       4.110   1.221  -0.852  0.00  0.00    +0.000 HD
BRANCH  10  13
ATOM     13  C   UNL     1       5.456  -0.227  -0.013  0.00  0.00    +0.000 C 
ATOM     14  H   UNL     1       5.534  -0.838  -0.918  0.00  0.00    +0.000 HD
ATOM     15  H   UNL     1       5.538  -0.887   0.856  0.00  0.00    +0.000 HD
ATOM     16  H   UNL     1       6.304   0.465   0.004  0.00  0.00    +0.000 HD
ENDBRANCH  10  13
ENDBRANCH   7  10
ENDBRANCH   4   7
ENDBRANCH   1   4
BRANCH   1  17
ATOM     17  C   UNL     1      -0.895   0.231   0.010  0.00  0.00    +0.000 C 
ATOM     18  H   UNL     1      -0.929   0.858   0.910  0.00  0.00    +0.000 HD
ATOM     19  H   UNL     1      -0.926   0.914  -0.848  0.00  0.00    +0.000 HD
BRANCH  17  20
ATOM     20  C   UNL     1      -2.119  -0.679  -0.018  0.00  0.00    +0.000 C 
ATOM     21  H   UNL     1      -2.102  -1.301  -0.920  0.00  0.00    +0.000 HD
ATOM     22  H   UNL     1      -2.111  -1.337   0.858  0.00  0.00    +0.000 HD
BRANCH  20  24
ATOM     23  O   UNL     1      -3.445   1.318  -0.024  0.00  0.00    +0.000 OA
ATOM     24  C   UNL     1      -3.427   0.087  -0.011  0.00  0.00    +0.000 C 
BRANCH  24  25
ATOM     25  C   UNL     1      -4.703  -0.712   0.030  0.00  0.00    +0.000 C 
ATOM     26  H   UNL     1      -5.563  -0.037   0.004  0.00  0.00    +0.000 HD
ATOM     27  H   UNL     1      -4.738  -1.297   0.953  0.00  0.00    +0.000 HD
ATOM     28  H   UNL     1      -4.747  -1.375  -0.838  0.00  0.00    +0.000 HD
ENDBRANCH  24  25
ENDBRANCH  20  24
ENDBRANCH  17  20
ENDBRANCH   1  17
TORSDOF 8
