REMARK  Name = 20083
REMARK  8 active torsions:
REMARK  status: ('A' for Active; 'I' for Inactive)
REMARK    1  A    between atoms: O_1  and  C_6
REMARK    2  A    between atoms: C_2  and  C_3
REMARK    3  A    between atoms: C_2  and  C_4
REMARK    4  A    between atoms: C_3  and  C_5
REMARK    5  A    between atoms: C_4  and  C_6
REMARK    6  A    between atoms: C_5  and  C_7
REMARK    7  A    between atoms: C_6  and  C_8
REMARK    8  A    between atoms: C_7  and  C_9
REMARK                            x       y       z     vdW  Elec       q    Type
REMARK                         _______ _______ _______ _____ _____    ______ ____
ROOT
ATOM      1  C   UNL     1       0.288   0.188   0.315  0.00  0.00    +0.000 C 
ATOM      2  H   UNL     1       0.276   0.347   1.400  0.00  0.00    +0.000 HD
ATOM      3  H   UNL     1       0.308   1.176  -0.159  0.00  0.00    +0.000 HD
ENDROOT
BRANCH   1   4
ATOM      4  C   UNL     1      -0.993  -0.530  -0.115  0.00  0.00    +0.000 C 
ATOM      5  H   UNL     1      -1.036  -1.517   0.363  0.00  0.00    +0.000 HD
ATOM      6  H   UNL     1      -0.960  -0.705  -1.198  0.00  0.00    +0.000 HD
BRANCH   4   7
ATOM      7  C   UNL     1      -2.269   0.245   0.224  0.00  0.00    +0.000 C 
ATOM      8  H   UNL     1      -2.328   0.384   1.311  0.00  0.00    +0.000 HD
ATOM      9  H   UNL     1      -2.203   1.247  -0.219  0.00  0.00    +0.000 HD
BRANCH   7  10
ATOM     10  C   UNL     1      -3.545  -0.437  -0.271  0.00  0.00    +0.000 C 
ATOM     11  H   UNL     1      -3.479  -0.608  -1.352  0.00  0.00    +0.000 HD
ATOM     12  H   UNL     1      -3.650  -1.418   0.207  0.00  0.00    +0.000 HD
BRANCH  10  13
ATOM     13  C   UNL     1      -4.776   0.406   0.026  0.00  0.00    +0.000 C 
ATOM     14  H   UNL     1      -4.713   1.380  -0.470  0.00  0.00    +0.000 HD
ATOM     15  H   UNL     1      -5.677  -0.101  -0.333  0.00  0.00    +0.000 HD
ATOM     16  H   UNL     1      -4.886   0.573   1.102  0.00  0.00    +0.000 HD
ENDBRANCH  10  13
ENDBRANCH   7  10
ENDBRANCH   4   7
ENDBRANCH   1   4
BRANCH   1  17
ATOM     17  C   UNL     1       1.533  -0.618  -0.076  0.00  0.00    +0.000 C 
ATOM     18  H   UNL     1       1.496  -1.606   0.396  0.00  0.00    +0.000 HD
ATOM     19  H   UNL     1       1.519  -0.770  -1.163  0.00  0.00    +0.000 HD
BRANCH  17  20
ATOM     20  C   UNL     1       2.830   0.096   0.318  0.00  0.00    +0.000 C 
ATOM     21  H   UNL     1       2.860   0.264   1.401  0.00  0.00    +0.000 HD
BRANCH  20  22
ATOM     22  C   UNL     1       4.052  -0.714  -0.092  0.00  0.00    +0.000 C 
ATOM     23  H   UNL     1       4.970  -0.182   0.179  0.00  0.00    +0.000 HD
ATOM     24  H   UNL     1       4.082  -0.857  -1.178  0.00  0.00    +0.000 HD
ATOM     25  H   UNL     1       4.060  -1.695   0.392  0.00  0.00    +0.000 HD
ENDBRANCH  20  22
BRANCH  20  26
ATOM     26  O   UNL     1       2.880   1.365  -0.328  0.00  0.00    +0.000 OA
ATOM     27  H   UNL     1       2.297   1.970   0.159  0.00  0.00    +0.000 HD
ENDBRANCH  20  26
ENDBRANCH  17  20
ENDBRANCH   1  17
TORSDOF 8
