REMARK  Name = 22386
REMARK  5 active torsions:
REMARK  status: ('A' for Active; 'I' for Inactive)
REMARK    1  A    between atoms: O_1  and  C_3
REMARK    2  A    between atoms: C_2  and  C_3
REMARK    3  A    between atoms: C_2  and  C_4
REMARK    4  A    between atoms: C_3  and  C_5
REMARK    5  A    between atoms: C_4  and  C_6
REMARK                            x       y       z     vdW  Elec       q    Type
REMARK                         _______ _______ _______ _____ _____    ______ ____
ROOT
ATOM      1  C   UNL     1      -0.291  -0.536   0.152  0.00  0.00    +0.000 C 
ATOM      2  H   UNL     1      -0.291  -0.602   1.247  0.00  0.00    +0.000 HD
ATOM      3  H   UNL     1      -0.433  -1.552  -0.238  0.00  0.00    +0.000 HD
ENDROOT
BRANCH   1   4
ATOM      4  C   UNL     1      -1.462   0.348  -0.283  0.00  0.00    +0.000 C 
ATOM      5  H   UNL     1      -1.465   0.450  -1.374  0.00  0.00    +0.000 HD
ATOM      6  H   UNL     1      -1.353   1.355   0.137  0.00  0.00    +0.000 HD
BRANCH   4   7
ATOM      7  C   UNL     1      -2.794  -0.232   0.167  0.00  0.00    +0.000 C 
ATOM      8  H   UNL     1      -3.617   0.414  -0.154  0.00  0.00    +0.000 HD
ATOM      9  H   UNL     1      -2.836  -0.319   1.257  0.00  0.00    +0.000 HD
ATOM     10  H   UNL     1      -2.954  -1.226  -0.264  0.00  0.00    +0.000 HD
ENDBRANCH   4   7
ENDBRANCH   1   4
BRANCH   1  11
ATOM     11  C   UNL     1       1.056   0.012  -0.330  0.00  0.00    +0.000 C 
ATOM     12  H   UNL     1       1.047   0.117  -1.421  0.00  0.00    +0.000 HD
BRANCH  11  13
ATOM     13  C   UNL     1       2.208  -0.899   0.073  0.00  0.00    +0.000 C 
ATOM     14  H   UNL     1       2.272  -0.993   1.163  0.00  0.00    +0.000 HD
ATOM     15  H   UNL     1       2.095  -1.898  -0.359  0.00  0.00    +0.000 HD
ATOM     16  H   UNL     1       3.162  -0.478  -0.262  0.00  0.00    +0.000 HD
ENDBRANCH  11  13
BRANCH  11  17
ATOM     17  O   UNL     1       1.283   1.307   0.221  0.00  0.00    +0.000 OA
ATOM     18  H   UNL     1       1.282   1.223   1.190  0.00  0.00    +0.000 HD
ENDBRANCH  11  17
ENDBRANCH   1  11
TORSDOF 5
