REMARK  Name = 179
REMARK  4 active torsions:
REMARK  status: ('A' for Active; 'I' for Inactive)
REMARK    1  A    between atoms: O_1  and  C_3
REMARK    2  A    between atoms: C_3  and  C_4
REMARK    3  A    between atoms: C_3  and  C_5
REMARK    4  A    between atoms: C_4  and  C_6
REMARK                            x       y       z     vdW  Elec       q    Type
REMARK                         _______ _______ _______ _____ _____    ______ ____
ROOT
ATOM      1  C   UNL     1      -0.723  -0.156  -0.401  0.00  0.00    +0.000 C 
ATOM      2  H   UNL     1      -0.776  -0.423  -1.462  0.00  0.00    +0.000 HD
ENDROOT
BRANCH   1   3
ATOM      3  C   UNL     1      -1.296  -1.267   0.461  0.00  0.00    +0.000 C 
ATOM      4  H   UNL     1      -1.205  -1.022   1.525  0.00  0.00    +0.000 HD
ATOM      5  H   UNL     1      -0.787  -2.219   0.286  0.00  0.00    +0.000 HD
ATOM      6  H   UNL     1      -2.363  -1.402   0.256  0.00  0.00    +0.000 HD
ENDBRANCH   1   3
BRANCH   1   7
ATOM      7  O   UNL     1      -1.505   1.010  -0.197  0.00  0.00    +0.000 OA
ATOM      8  H   UNL     1      -1.194   1.683  -0.826  0.00  0.00    +0.000 HD
ENDBRANCH   1   7
BRANCH   1  10
ATOM      9  O   UNL     1       1.075   1.237   0.405  0.00  0.00    +0.000 OA
ATOM     10  C   UNL     1       0.724   0.143  -0.036  0.00  0.00    +0.000 C 
BRANCH  10  11
ATOM     11  C   UNL     1       1.726  -0.967  -0.231  0.00  0.00    +0.000 C 
ATOM     12  H   UNL     1       1.607  -1.716   0.554  0.00  0.00    +0.000 HD
ATOM     13  H   UNL     1       2.739  -0.557  -0.184  0.00  0.00    +0.000 HD
ATOM     14  H   UNL     1       1.585  -1.423  -1.215  0.00  0.00    +0.000 HD
ENDBRANCH  10  11
ENDBRANCH   1  10
TORSDOF 4
