REMARK  Name = 11173
REMARK  4 active torsions:
REMARK  status: ('A' for Active; 'I' for Inactive)
REMARK    1  A    between atoms: O_1  and  C_6
REMARK    2  A    between atoms: C_2  and  C_4
REMARK    3  A    between atoms: C_2  and  C_5
REMARK    4  A    between atoms: C_3  and  C_6
REMARK                            x       y       z     vdW  Elec       q    Type
REMARK                         _______ _______ _______ _____ _____    ______ ____
ROOT
ATOM      1  C   UNL     1       0.947  -0.025  -0.021  0.00  0.00    +0.000 C 
ATOM      2  C   UNL     1      -0.284  -0.510  -0.275  0.00  0.00    +0.000 C 
ATOM      3  H   UNL     1      -0.397  -1.589  -0.369  0.00  0.00    +0.000 HD
ENDROOT
BRANCH   1   4
ATOM      4  C   UNL     1       2.115  -0.963   0.132  0.00  0.00    +0.000 C 
ATOM      5  H   UNL     1       2.880  -0.742  -0.620  0.00  0.00    +0.000 HD
ATOM      6  H   UNL     1       2.562  -0.852   1.126  0.00  0.00    +0.000 HD
ATOM      7  H   UNL     1       1.828  -2.013   0.014  0.00  0.00    +0.000 HD
ENDBRANCH   1   4
BRANCH   1   8
ATOM      8  C   UNL     1       1.297   1.427   0.136  0.00  0.00    +0.000 C 
ATOM      9  H   UNL     1       2.045   1.715  -0.611  0.00  0.00    +0.000 HD
ATOM     10  H   UNL     1       0.447   2.101   0.019  0.00  0.00    +0.000 HD
ATOM     11  H   UNL     1       1.719   1.605   1.131  0.00  0.00    +0.000 HD
ENDBRANCH   1   8
BRANCH   2  12
ATOM     12  C   UNL     1      -1.557   0.254  -0.464  0.00  0.00    +0.000 C 
ATOM     13  H   UNL     1      -1.953   0.052  -1.464  0.00  0.00    +0.000 HD
ATOM     14  H   UNL     1      -1.442   1.333  -0.355  0.00  0.00    +0.000 HD
BRANCH  12  15
ATOM     15  O   UNL     1      -2.518  -0.183   0.491  0.00  0.00    +0.000 OA
ATOM     16  H   UNL     1      -3.340   0.305   0.312  0.00  0.00    +0.000 HD
ENDBRANCH  12  15
ENDBRANCH   2  12
TORSDOF 4
