REMARK  Name = 11515
REMARK  8 active torsions:
REMARK  status: ('A' for Active; 'I' for Inactive)
REMARK    1  A    between atoms: O_1  and  C_2
REMARK    2  A    between atoms: C_2  and  C_3
REMARK    3  A    between atoms: C_2  and  C_4
REMARK    4  A    between atoms: C_3  and  C_5
REMARK    5  A    between atoms: C_4  and  C_6
REMARK    6  A    between atoms: C_5  and  C_7
REMARK    7  A    between atoms: C_6  and  C_8
REMARK    8  A    between atoms: C_7  and  C_9
REMARK                            x       y       z     vdW  Elec       q    Type
REMARK                         _______ _______ _______ _____ _____    ______ ____
ROOT
ATOM      1  C   UNL     1       0.542  -0.191  -0.327  0.00  0.00    +0.000 C 
ATOM      2  H   UNL     1       0.518  -0.377  -1.407  0.00  0.00    +0.000 HD
ENDROOT
BRANCH   1   3
ATOM      3  C   UNL     1      -0.708   0.587   0.100  0.00  0.00    +0.000 C 
ATOM      4  H   UNL     1      -0.667   0.782   1.179  0.00  0.00    +0.000 HD
ATOM      5  H   UNL     1      -0.724   1.559  -0.407  0.00  0.00    +0.000 HD
BRANCH   3   6
ATOM      6  C   UNL     1      -2.001  -0.180  -0.202  0.00  0.00    +0.000 C 
ATOM      7  H   UNL     1      -2.050  -0.408  -1.274  0.00  0.00    +0.000 HD
ATOM      8  H   UNL     1      -2.005  -1.137   0.333  0.00  0.00    +0.000 HD
BRANCH   6   9
ATOM      9  C   UNL     1      -3.233   0.627   0.207  0.00  0.00    +0.000 C 
ATOM     10  H   UNL     1      -3.181   0.872   1.274  0.00  0.00    +0.000 HD
ATOM     11  H   UNL     1      -3.257   1.575  -0.343  0.00  0.00    +0.000 HD
BRANCH   9  12
ATOM     12  C   UNL     1      -4.518  -0.141  -0.064  0.00  0.00    +0.000 C 
ATOM     13  H   UNL     1      -4.540  -1.079   0.499  0.00  0.00    +0.000 HD
ATOM     14  H   UNL     1      -5.386   0.456   0.234  0.00  0.00    +0.000 HD
ATOM     15  H   UNL     1      -4.617  -0.376  -1.128  0.00  0.00    +0.000 HD
ENDBRANCH   9  12
ENDBRANCH   6   9
ENDBRANCH   3   6
ENDBRANCH   1   3
BRANCH   1  16
ATOM     16  C   UNL     1       1.851   0.518   0.047  0.00  0.00    +0.000 C 
ATOM     17  H   UNL     1       1.877   1.497  -0.447  0.00  0.00    +0.000 HD
ATOM     18  H   UNL     1       1.844   0.713   1.128  0.00  0.00    +0.000 HD
BRANCH  16  19
ATOM     19  C   UNL     1       3.141  -0.237  -0.277  0.00  0.00    +0.000 C 
ATOM     20  H   UNL     1       3.117  -1.229   0.190  0.00  0.00    +0.000 HD
ATOM     21  H   UNL     1       3.201  -0.399  -1.359  0.00  0.00    +0.000 HD
BRANCH  19  22
ATOM     22  C   UNL     1       4.398   0.480   0.189  0.00  0.00    +0.000 C 
ATOM     23  H   UNL     1       5.287  -0.102  -0.073  0.00  0.00    +0.000 HD
ATOM     24  H   UNL     1       4.483   1.464  -0.282  0.00  0.00    +0.000 HD
ATOM     25  H   UNL     1       4.389   0.618   1.275  0.00  0.00    +0.000 HD
ENDBRANCH  19  22
ENDBRANCH  16  19
ENDBRANCH   1  16
BRANCH   1  26
ATOM     26  O   UNL     1       0.529  -1.463   0.327  0.00  0.00    +0.000 OA
ATOM     27  H   UNL     1       0.549  -1.305   1.286  0.00  0.00    +0.000 HD
ENDBRANCH   1  26
TORSDOF 8
