REMARK  Name = 9862
REMARK  6 active torsions:
REMARK  status: ('A' for Active; 'I' for Inactive)
REMARK    1  A    between atoms: C_2  and  C_3
REMARK    2  A    between atoms: C_2  and  C_4
REMARK    3  A    between atoms: C_3  and  C_6
REMARK    4  A    between atoms: C_5  and  C_7
REMARK    5  A    between atoms: C_5  and  C_8
REMARK    6  A    between atoms: C_6  and  C_9
REMARK                            x       y       z     vdW  Elec       q    Type
REMARK                         _______ _______ _______ _____ _____    ______ ____
ROOT
ATOM      1  C   UNL     1       0.047  -0.787  -0.271  0.00  0.00    +0.000 C 
ATOM      2  H   UNL     1       0.047  -0.437  -1.310  0.00  0.00    +0.000 HD
ATOM      3  H   UNL     1       0.388  -1.829  -0.315  0.00  0.00    +0.000 HD
ENDROOT
BRANCH   1   4
ATOM      4  C   UNL     1       1.011   0.044   0.572  0.00  0.00    +0.000 C 
ATOM      5  H   UNL     1       1.057  -0.351   1.594  0.00  0.00    +0.000 HD
ATOM      6  H   UNL     1       0.670   1.085   0.619  0.00  0.00    +0.000 HD
BRANCH   4   8
ATOM      7  O   UNL     1       2.741  -0.585  -0.996  0.00  0.00    +0.000 OA
ATOM      8  C   UNL     1       2.422   0.046   0.011  0.00  0.00    +0.000 C 
BRANCH   8   9
ATOM      9  C   UNL     1       3.433   0.875   0.760  0.00  0.00    +0.000 C 
ATOM     10  H   UNL     1       3.519   0.508   1.786  0.00  0.00    +0.000 HD
ATOM     11  H   UNL     1       4.409   0.796   0.273  0.00  0.00    +0.000 HD
ATOM     12  H   UNL     1       3.121   1.922   0.759  0.00  0.00    +0.000 HD
ENDBRANCH   8   9
ENDBRANCH   4   8
ENDBRANCH   1   4
BRANCH   1  13
ATOM     13  C   UNL     1      -1.340  -0.764   0.306  0.00  0.00    +0.000 C 
ATOM     14  C   UNL     1      -2.352   0.065  -0.015  0.00  0.00    +0.000 C 
ATOM     15  H   UNL     1      -1.520  -1.525   1.063  0.00  0.00    +0.000 HD
BRANCH  14  16
ATOM     16  C   UNL     1      -3.696  -0.081   0.646  0.00  0.00    +0.000 C 
ATOM     17  H   UNL     1      -4.470  -0.268  -0.105  0.00  0.00    +0.000 HD
ATOM     18  H   UNL     1      -3.952   0.835   1.189  0.00  0.00    +0.000 HD
ATOM     19  H   UNL     1      -3.722  -0.909   1.362  0.00  0.00    +0.000 HD
ENDBRANCH  14  16
BRANCH  14  20
ATOM     20  C   UNL     1      -2.267   1.186  -1.012  0.00  0.00    +0.000 C 
ATOM     21  H   UNL     1      -1.260   1.331  -1.411  0.00  0.00    +0.000 HD
ATOM     22  H   UNL     1      -2.565   2.130  -0.543  0.00  0.00    +0.000 HD
ATOM     23  H   UNL     1      -2.938   0.992  -1.855  0.00  0.00    +0.000 HD
ENDBRANCH  14  20
ENDBRANCH   1  13
TORSDOF 6
