REMARK  Name = 5365976
REMARK  8 active torsions:
REMARK  status: ('A' for Active; 'I' for Inactive)
REMARK    1  A    between atoms: C_2  and  C_7
REMARK    2  A    between atoms: C_2  and  C_8
REMARK    3  A    between atoms: C_3  and  C_10
REMARK    4  A    between atoms: C_6  and  C_11
REMARK    5  A    between atoms: C_12  and  C_13
REMARK    6  A    between atoms: C_13  and  C_14
REMARK    7  A    between atoms: C_14  and  C_15
REMARK    8  A    between atoms: C_15  and  C_16
REMARK                            x       y       z     vdW  Elec       q    Type
REMARK                         _______ _______ _______ _____ _____    ______ ____
ROOT
ATOM      1  C   UNL     1       2.565   1.203  -0.278  0.00  0.00    +0.000 C 
ATOM      2  C   UNL     1       1.713  -0.079  -0.589  0.00  0.00    +0.000 C 
ATOM      3  C   UNL     1       3.237   1.048   1.107  0.00  0.00    +0.000 C 
ATOM      4  C   UNL     1       4.103  -0.210   1.217  0.00  0.00    +0.000 C 
ATOM      5  C   UNL     1       2.485  -1.365  -0.324  0.00  0.00    +0.000 C 
ATOM      6  C   UNL     1       3.552  -1.402   0.494  0.00  0.00    +0.000 C 
ATOM      7  H   UNL     1       1.492  -0.050  -1.666  0.00  0.00    +0.000 HD
ATOM      8  H   UNL     1       2.468   1.014   1.889  0.00  0.00    +0.000 HD
ATOM      9  H   UNL     1       3.854   1.927   1.335  0.00  0.00    +0.000 HD
ATOM     10  H   UNL     1       4.237  -0.458   2.276  0.00  0.00    +0.000 HD
ATOM     11  H   UNL     1       5.103  -0.001   0.817  0.00  0.00    +0.000 HD
ATOM     12  H   UNL     1       4.082  -2.339   0.645  0.00  0.00    +0.000 HD
ENDROOT
BRANCH   1  13
ATOM     13  C   UNL     1       3.643   1.393  -1.374  0.00  0.00    +0.000 C 
ATOM     14  H   UNL     1       4.283   2.254  -1.148  0.00  0.00    +0.000 HD
ATOM     15  H   UNL     1       4.295   0.521  -1.484  0.00  0.00    +0.000 HD
ATOM     16  H   UNL     1       3.179   1.575  -2.350  0.00  0.00    +0.000 HD
ENDBRANCH   1  13
BRANCH   1  17
ATOM     17  C   UNL     1       1.701   2.483  -0.278  0.00  0.00    +0.000 C 
ATOM     18  H   UNL     1       2.325   3.376  -0.156  0.00  0.00    +0.000 HD
ATOM     19  H   UNL     1       1.151   2.588  -1.220  0.00  0.00    +0.000 HD
ATOM     20  H   UNL     1       0.975   2.489   0.542  0.00  0.00    +0.000 HD
ENDBRANCH   1  17
BRANCH   2  21
ATOM     21  C   UNL     1       0.408  -0.118   0.164  0.00  0.00    +0.000 C 
ATOM     22  C   UNL     1      -0.788  -0.114  -0.436  0.00  0.00    +0.000 C 
ATOM     23  H   UNL     1       0.468  -0.157   1.250  0.00  0.00    +0.000 HD
ATOM     24  H   UNL     1      -0.882  -0.078  -1.516  0.00  0.00    +0.000 HD
BRANCH  22  26
ATOM     25  O   UNL     1      -2.030  -0.195   1.592  0.00  0.00    +0.000 OA
ATOM     26  C   UNL     1      -2.046  -0.154   0.364  0.00  0.00    +0.000 C 
BRANCH  26  27
ATOM     27  C   UNL     1      -3.333  -0.145  -0.443  0.00  0.00    +0.000 C 
ATOM     28  H   UNL     1      -3.354   0.777  -1.037  0.00  0.00    +0.000 HD
ATOM     29  H   UNL     1      -3.312  -1.001  -1.129  0.00  0.00    +0.000 HD
BRANCH  27  30
ATOM     30  C   UNL     1      -4.576  -0.220   0.443  0.00  0.00    +0.000 C 
ATOM     31  H   UNL     1      -4.574   0.613   1.158  0.00  0.00    +0.000 HD
ATOM     32  H   UNL     1      -4.551  -1.141   1.038  0.00  0.00    +0.000 HD
BRANCH  30  33
ATOM     33  C   UNL     1      -5.832  -0.216  -0.377  0.00  0.00    +0.000 C 
ATOM     34  C   UNL     1      -6.808   0.690  -0.246  0.00  0.00    +0.000 C 
ATOM     35  H   UNL     1      -5.954  -1.010  -1.108  0.00  0.00    +0.000 HD
ATOM     36  H   UNL     1      -7.696   0.632  -0.865  0.00  0.00    +0.000 HD
ATOM     37  H   UNL     1      -6.740   1.498   0.474  0.00  0.00    +0.000 HD
ENDBRANCH  30  33
ENDBRANCH  27  30
ENDBRANCH  26  27
ENDBRANCH  22  26
ENDBRANCH   2  21
BRANCH   5  38
ATOM     38  C   UNL     1       2.006  -2.600  -1.036  0.00  0.00    +0.000 C 
ATOM     39  H   UNL     1       0.987  -2.854  -0.729  0.00  0.00    +0.000 HD
ATOM     40  H   UNL     1       2.640  -3.468  -0.827  0.00  0.00    +0.000 HD
ATOM     41  H   UNL     1       2.013  -2.439  -2.119  0.00  0.00    +0.000 HD
ENDBRANCH   5  38
TORSDOF 8
