REMARK  Name = 7222
REMARK  0 active torsions:
REMARK  status: ('A' for Active; 'I' for Inactive)
REMARK                            x       y       z     vdW  Elec       q    Type
REMARK                         _______ _______ _______ _____ _____    ______ ____
ROOT
ATOM      1  S   UNL     1      -1.813   1.371  -0.000  0.00  0.00    +0.000 S 
ATOM      2  N   UNL     1      -1.556  -1.195   0.000  0.00  0.00    +0.000 NA
ATOM      3  C   UNL     1      -0.211   0.734   0.000  0.00  0.00    +0.000 A 
ATOM      4  C   UNL     1      -0.275  -0.663   0.000  0.00  0.00    +0.000 A 
ATOM      5  C   UNL     1       1.014   1.420   0.000  0.00  0.00    +0.000 A 
ATOM      6  C   UNL     1       0.931  -1.396  -0.000  0.00  0.00    +0.000 A 
ATOM      7  C   UNL     1       2.193   0.671   0.000  0.00  0.00    +0.000 A 
ATOM      8  C   UNL     1       2.155  -0.720   0.000  0.00  0.00    +0.000 A 
ATOM      9  C   UNL     1      -2.437  -0.222   0.000  0.00  0.00    +0.000 A 
ATOM     10  H   UNL     1       1.051   2.505   0.000  0.00  0.00    +0.000 HD
ATOM     11  H   UNL     1       0.913  -2.482  -0.000  0.00  0.00    +0.000 HD
ATOM     12  H   UNL     1       3.152   1.182   0.000  0.00  0.00    +0.000 HD
ATOM     13  H   UNL     1       3.082  -1.286   0.000  0.00  0.00    +0.000 HD
ATOM     14  H   UNL     1      -3.501  -0.411   0.000  0.00  0.00    +0.000 HD
ENDROOT
TORSDOF 0
