REMARK  Name = 240
REMARK  1 active torsions:
REMARK  status: ('A' for Active; 'I' for Inactive)
REMARK    1  A    between atoms: C_2  and  C_8
REMARK                            x       y       z     vdW  Elec       q    Type
REMARK                         _______ _______ _______ _____ _____    ______ ____
ROOT
ATOM      1  C   UNL     1       0.564   0.237   0.000  0.00  0.00    +0.000 A 
ATOM      2  C   UNL     1      -0.344   1.296   0.000  0.00  0.00    +0.000 A 
ATOM      3  C   UNL     1       0.101  -1.079   0.000  0.00  0.00    +0.000 A 
ATOM      4  C   UNL     1      -1.715   1.039   0.000  0.00  0.00    +0.000 A 
ATOM      5  C   UNL     1      -1.270  -1.335  -0.000  0.00  0.00    +0.000 A 
ATOM      6  C   UNL     1      -2.178  -0.276   0.000  0.00  0.00    +0.000 A 
ATOM      7  H   UNL     1       0.002   2.327   0.000  0.00  0.00    +0.000 HD
ATOM      8  H   UNL     1       0.790  -1.919  -0.000  0.00  0.00    +0.000 HD
ATOM      9  H   UNL     1      -2.422   1.864   0.000  0.00  0.00    +0.000 HD
ATOM     10  H   UNL     1      -1.631  -2.360  -0.000  0.00  0.00    +0.000 HD
ATOM     11  H   UNL     1      -3.245  -0.476   0.000  0.00  0.00    +0.000 HD
ENDROOT
BRANCH   1  13
ATOM     12  O   UNL     1       2.847  -0.387   0.000  0.00  0.00    +0.000 OA
ATOM     13  C   UNL     1       1.994   0.505  -0.000  0.00  0.00    +0.000 C 
ATOM     14  H   UNL     1       2.299   1.565  -0.001  0.00  0.00    +0.000 HD
ENDBRANCH   1  13
TORSDOF 1
