REMARK  Name = 261
REMARK  3 active torsions:
REMARK  status: ('A' for Active; 'I' for Inactive)
REMARK    1  A    between atoms: C_2  and  C_3
REMARK    2  A    between atoms: C_2  and  C_4
REMARK    3  A    between atoms: C_3  and  C_5
REMARK                            x       y       z     vdW  Elec       q    Type
REMARK                         _______ _______ _______ _____ _____    ______ ____
ROOT
ATOM      1  C   UNL     1      -0.914  -0.461  -0.005  0.00  0.00    +0.000 C 
ATOM      2  H   UNL     1      -0.697  -1.075  -0.887  0.00  0.00    +0.000 HD
ATOM      3  H   UNL     1      -0.685  -1.077   0.873  0.00  0.00    +0.000 HD
ENDROOT
BRANCH   1   4
ATOM      4  C   UNL     1      -2.390  -0.101   0.007  0.00  0.00    +0.000 C 
ATOM      5  H   UNL     1      -2.658   0.486  -0.877  0.00  0.00    +0.000 HD
ATOM      6  H   UNL     1      -3.002  -1.009   0.009  0.00  0.00    +0.000 HD
ATOM      7  H   UNL     1      -2.645   0.482   0.898  0.00  0.00    +0.000 HD
ENDBRANCH   1   4
BRANCH   1   8
ATOM      8  C   UNL     1      -0.035   0.785  -0.011  0.00  0.00    +0.000 C 
ATOM      9  H   UNL     1      -0.227   1.387  -0.905  0.00  0.00    +0.000 HD
ATOM     10  H   UNL     1      -0.245   1.404   0.869  0.00  0.00    +0.000 HD
BRANCH   8  12
ATOM     11  O   UNL     1       1.901  -0.679  -0.002  0.00  0.00    +0.000 OA
ATOM     12  C   UNL     1       1.438   0.456   0.011  0.00  0.00    +0.000 C 
ATOM     13  H   UNL     1       2.109   1.332   0.034  0.00  0.00    +0.000 HD
ENDBRANCH   8  12
ENDBRANCH   1   8
TORSDOF 3
