REMARK  Name = 7983
REMARK  8 active torsions:
REMARK  status: ('A' for Active; 'I' for Inactive)
REMARK    1  A    between atoms: O_1  and  C_5
REMARK    2  A    between atoms: O_1  and  C_9
REMARK    3  A    between atoms: C_3  and  C_4
REMARK    4  A    between atoms: C_3  and  C_5
REMARK    5  A    between atoms: C_4  and  C_8
REMARK    6  A    between atoms: C_6  and  C_7
REMARK    7  A    between atoms: C_6  and  C_9
REMARK    8  A    between atoms: C_7  and  C_10
REMARK                            x       y       z     vdW  Elec       q    Type
REMARK                         _______ _______ _______ _____ _____    ______ ____
ROOT
ATOM      1  O   UNL     1       0.106   0.325   0.012  0.00  0.00    +0.000 OA
ENDROOT
BRANCH   1   2
ATOM      2  C   UNL     1       1.301  -0.461   0.012  0.00  0.00    +0.000 C 
ATOM      3  H   UNL     1       1.319  -1.091  -0.886  0.00  0.00    +0.000 HD
ATOM      4  H   UNL     1       1.314  -1.101   0.902  0.00  0.00    +0.000 HD
BRANCH   2   5
ATOM      5  C   UNL     1       2.504   0.472   0.020  0.00  0.00    +0.000 C 
ATOM      6  H   UNL     1       2.455   1.121   0.904  0.00  0.00    +0.000 HD
ATOM      7  H   UNL     1       2.447   1.142  -0.847  0.00  0.00    +0.000 HD
BRANCH   5   8
ATOM      8  C   UNL     1       3.818  -0.303   0.004  0.00  0.00    +0.000 C 
ATOM      9  H   UNL     1       3.853  -0.961  -0.872  0.00  0.00    +0.000 HD
ATOM     10  H   UNL     1       3.885  -0.942   0.892  0.00  0.00    +0.000 HD
BRANCH   8  11
ATOM     11  C   UNL     1       5.016   0.633  -0.030  0.00  0.00    +0.000 C 
ATOM     12  H   UNL     1       4.997   1.262  -0.926  0.00  0.00    +0.000 HD
ATOM     13  H   UNL     1       5.029   1.285   0.848  0.00  0.00    +0.000 HD
ATOM     14  H   UNL     1       5.947   0.057  -0.040  0.00  0.00    +0.000 HD
ENDBRANCH   8  11
ENDBRANCH   5   8
ENDBRANCH   2   5
ENDBRANCH   1   2
BRANCH   1  16
ATOM     15  O   UNL     1      -1.164  -1.601  -0.002  0.00  0.00    +0.000 OA
ATOM     16  C   UNL     1      -1.063  -0.382   0.004  0.00  0.00    +0.000 C 
BRANCH  16  17
ATOM     17  C   UNL     1      -2.222   0.589   0.005  0.00  0.00    +0.000 C 
ATOM     18  H   UNL     1      -2.152   1.202   0.911  0.00  0.00    +0.000 HD
ATOM     19  H   UNL     1      -2.127   1.237  -0.873  0.00  0.00    +0.000 HD
BRANCH  17  20
ATOM     20  C   UNL     1      -3.569  -0.128  -0.029  0.00  0.00    +0.000 C 
ATOM     21  H   UNL     1      -3.642  -0.744  -0.934  0.00  0.00    +0.000 HD
ATOM     22  H   UNL     1      -3.652  -0.811   0.825  0.00  0.00    +0.000 HD
BRANCH  20  23
ATOM     23  C   UNL     1      -4.726   0.857   0.004  0.00  0.00    +0.000 C 
ATOM     24  H   UNL     1      -5.681   0.322  -0.022  0.00  0.00    +0.000 HD
ATOM     25  H   UNL     1      -4.701   1.461   0.917  0.00  0.00    +0.000 HD
ATOM     26  H   UNL     1      -4.692   1.532  -0.856  0.00  0.00    +0.000 HD
ENDBRANCH  20  23
ENDBRANCH  17  20
ENDBRANCH  16  17
ENDBRANCH   1  16
TORSDOF 8
