REMARK  Name = 24433
REMARK  7 active torsions:
REMARK  status: ('A' for Active; 'I' for Inactive)
REMARK    1  A    between atoms: O_1  and  C_6
REMARK    2  A    between atoms: O_1  and  C_9
REMARK    3  A    between atoms: N_3  and  C_10
REMARK    4  A    between atoms: C_4  and  C_5
REMARK    5  A    between atoms: C_4  and  C_6
REMARK    6  A    between atoms: C_5  and  C_7
REMARK    7  A    between atoms: C_8  and  C_9
REMARK                            x       y       z     vdW  Elec       q    Type
REMARK                         _______ _______ _______ _____ _____    ______ ____
ROOT
ATOM      1  O   UNL     1       0.016   1.950  -0.640  0.00  0.00    +0.000 OA
ATOM      2  C   UNL     1      -0.037   0.775  -0.310  0.00  0.00    +0.000 C 
ENDROOT
BRANCH   2   3
ATOM      3  C   UNL     1      -1.312   0.034  -0.140  0.00  0.00    +0.000 A 
ATOM      4  C   UNL     1      -2.457   0.696   0.258  0.00  0.00    +0.000 A 
ATOM      5  C   UNL     1      -1.303  -1.324  -0.393  0.00  0.00    +0.000 A 
ATOM      6  C   UNL     1      -3.640  -0.028   0.409  0.00  0.00    +0.000 A 
ATOM      7  C   UNL     1      -2.486  -2.048  -0.242  0.00  0.00    +0.000 A 
ATOM      8  C   UNL     1      -3.654  -1.400   0.159  0.00  0.00    +0.000 A 
ATOM      9  H   UNL     1      -0.414  -1.854  -0.722  0.00  0.00    +0.000 HD
ATOM     10  H   UNL     1      -4.557   0.465   0.721  0.00  0.00    +0.000 HD
ATOM     11  H   UNL     1      -2.499  -3.116  -0.440  0.00  0.00    +0.000 HD
ATOM     12  H   UNL     1      -4.575  -1.963   0.276  0.00  0.00    +0.000 HD
BRANCH   4  13
ATOM     13  N   UNL     1      -2.463   2.085   0.516  0.00  0.00    +0.000 N 
ATOM     14  H   UNL     1      -1.619   2.633   0.429  0.00  0.00    +0.000 HD
ATOM     15  H   UNL     1      -3.320   2.537   0.808  0.00  0.00    +0.000 HD
ENDBRANCH   4  13
ENDBRANCH   2   3
BRANCH   2  16
ATOM     16  O   UNL     1       1.030  -0.031  -0.049  0.00  0.00    +0.000 OA
BRANCH  16  17
ATOM     17  C   UNL     1       2.312   0.568  -0.178  0.00  0.00    +0.000 C 
ATOM     18  H   UNL     1       2.389   1.415   0.515  0.00  0.00    +0.000 HD
ATOM     19  H   UNL     1       2.445   0.931  -1.204  0.00  0.00    +0.000 HD
BRANCH  17  20
ATOM     20  C   UNL     1       3.375  -0.471   0.149  0.00  0.00    +0.000 C 
ATOM     21  H   UNL     1       3.267  -1.328  -0.528  0.00  0.00    +0.000 HD
ATOM     22  H   UNL     1       3.199  -0.863   1.158  0.00  0.00    +0.000 HD
BRANCH  20  23
ATOM     23  C   UNL     1       4.782   0.110   0.046  0.00  0.00    +0.000 C 
ATOM     24  H   UNL     1       4.877   0.976   0.712  0.00  0.00    +0.000 HD
ATOM     25  H   UNL     1       4.964   0.466  -0.975  0.00  0.00    +0.000 HD
BRANCH  23  26
ATOM     26  C   UNL     1       5.838  -0.919   0.414  0.00  0.00    +0.000 C 
ATOM     27  H   UNL     1       5.704  -1.268   1.443  0.00  0.00    +0.000 HD
ATOM     28  H   UNL     1       5.791  -1.786  -0.253  0.00  0.00    +0.000 HD
ATOM     29  H   UNL     1       6.838  -0.481   0.333  0.00  0.00    +0.000 HD
ENDBRANCH  23  26
ENDBRANCH  20  23
ENDBRANCH  17  20
ENDBRANCH  16  17
ENDBRANCH   2  16
TORSDOF 7
