REMARK  Name = 2537
REMARK  3 active torsions:
REMARK  status: ('A' for Active; 'I' for Inactive)
REMARK    1  A    between atoms: C_2  and  C_9
REMARK    2  A    between atoms: C_2  and  C_10
REMARK    3  A    between atoms: C_3  and  C_11
REMARK                            x       y       z     vdW  Elec       q    Type
REMARK                         _______ _______ _______ _____ _____    ______ ____
ROOT
ATOM      1  O   UNL     1      -2.524   0.367   0.260  0.00  0.00    +0.000 OA
ATOM      2  C   UNL     1       0.968   0.288   0.411  0.00  0.00    +0.000 C 
ATOM      3  C   UNL     1      -0.214   0.521  -0.570  0.00  0.00    +0.000 C 
ATOM      4  C   UNL     1       0.603  -1.210   0.602  0.00  0.00    +0.000 C 
ATOM      5  C   UNL     1      -0.016  -0.564  -1.653  0.00  0.00    +0.000 C 
ATOM      6  C   UNL     1       0.569  -1.748  -0.852  0.00  0.00    +0.000 C 
ATOM      7  C   UNL     1      -0.858  -1.184   1.115  0.00  0.00    +0.000 C 
ATOM      8  C   UNL     1      -1.369  -0.032   0.272  0.00  0.00    +0.000 C 
ATOM      9  H   UNL     1       1.272  -1.778   1.253  0.00  0.00    +0.000 HD
ATOM     10  H   UNL     1       0.678  -0.245  -2.438  0.00  0.00    +0.000 HD
ATOM     11  H   UNL     1      -0.958  -0.848  -2.136  0.00  0.00    +0.000 HD
ATOM     12  H   UNL     1      -0.048  -2.648  -0.950  0.00  0.00    +0.000 HD
ATOM     13  H   UNL     1       1.573  -2.000  -1.208  0.00  0.00    +0.000 HD
ATOM     14  H   UNL     1      -0.922  -0.938   2.177  0.00  0.00    +0.000 HD
ATOM     15  H   UNL     1      -1.402  -2.105   0.894  0.00  0.00    +0.000 HD
ENDROOT
BRANCH   2  16
ATOM     16  C   UNL     1       2.368   0.515  -0.192  0.00  0.00    +0.000 C 
ATOM     17  H   UNL     1       2.534   0.012  -1.147  0.00  0.00    +0.000 HD
ATOM     18  H   UNL     1       3.141   0.157   0.497  0.00  0.00    +0.000 HD
ATOM     19  H   UNL     1       2.546   1.582  -0.367  0.00  0.00    +0.000 HD
ENDBRANCH   2  16
BRANCH   2  20
ATOM     20  C   UNL     1       0.906   1.128   1.704  0.00  0.00    +0.000 C 
ATOM     21  H   UNL     1       1.612   0.738   2.446  0.00  0.00    +0.000 HD
ATOM     22  H   UNL     1      -0.081   1.150   2.174  0.00  0.00    +0.000 HD
ATOM     23  H   UNL     1       1.175   2.171   1.502  0.00  0.00    +0.000 HD
ENDBRANCH   2  20
BRANCH   3  24
ATOM     24  C   UNL     1      -0.431   1.919  -1.096  0.00  0.00    +0.000 C 
ATOM     25  H   UNL     1       0.443   2.277  -1.650  0.00  0.00    +0.000 HD
ATOM     26  H   UNL     1      -1.292   1.952  -1.773  0.00  0.00    +0.000 HD
ATOM     27  H   UNL     1      -0.633   2.625  -0.284  0.00  0.00    +0.000 HD
ENDBRANCH   3  24
TORSDOF 3
