REMARK  Name = 10106
REMARK  4 active torsions:
REMARK  status: ('A' for Active; 'I' for Inactive)
REMARK    1  A    between atoms: C_2  and  C_8
REMARK    2  A    between atoms: C_3  and  C_9
REMARK    3  A    between atoms: C_8  and  C_10
REMARK    4  A    between atoms: C_8  and  C_11
REMARK                            x       y       z     vdW  Elec       q    Type
REMARK                         _______ _______ _______ _____ _____    ______ ____
ROOT
ATOM      1  O   UNL     1       0.458  -0.635   0.764  0.00  0.00    +0.000 OA
ATOM      2  C   UNL     1      -0.504   0.181   0.053  0.00  0.00    +0.000 C 
ATOM      3  C   UNL     1       1.637  -0.156   0.072  0.00  0.00    +0.000 C 
ATOM      4  C   UNL     1      -0.233  -0.228  -1.400  0.00  0.00    +0.000 C 
ATOM      5  C   UNL     1       0.038   1.590   0.318  0.00  0.00    +0.000 C 
ATOM      6  C   UNL     1       1.279  -0.465  -1.386  0.00  0.00    +0.000 C 
ATOM      7  C   UNL     1       1.549   1.352   0.333  0.00  0.00    +0.000 C 
ATOM      8  H   UNL     1      -0.521   0.545  -2.120  0.00  0.00    +0.000 HD
ATOM      9  H   UNL     1      -0.724  -1.159  -1.694  0.00  0.00    +0.000 HD
ATOM     10  H   UNL     1      -0.278   1.966   1.298  0.00  0.00    +0.000 HD
ATOM     11  H   UNL     1      -0.263   2.318  -0.441  0.00  0.00    +0.000 HD
ATOM     12  H   UNL     1       1.484  -1.513  -1.633  0.00  0.00    +0.000 HD
ATOM     13  H   UNL     1       1.816   0.166  -2.101  0.00  0.00    +0.000 HD
ATOM     14  H   UNL     1       2.080   1.946  -0.417  0.00  0.00    +0.000 HD
ATOM     15  H   UNL     1       1.948   1.612   1.320  0.00  0.00    +0.000 HD
ENDROOT
BRANCH   3  16
ATOM     16  C   UNL     1       2.905  -0.812   0.567  0.00  0.00    +0.000 C 
ATOM     17  H   UNL     1       3.783  -0.437   0.032  0.00  0.00    +0.000 HD
ATOM     18  H   UNL     1       3.044  -0.633   1.638  0.00  0.00    +0.000 HD
ATOM     19  H   UNL     1       2.856  -1.899   0.441  0.00  0.00    +0.000 HD
ENDBRANCH   3  16
BRANCH   2  20
ATOM     20  C   UNL     1      -1.921  -0.052   0.522  0.00  0.00    +0.000 C 
ATOM     21  H   UNL     1      -2.003   0.251   1.574  0.00  0.00    +0.000 HD
BRANCH  20  22
ATOM     22  C   UNL     1      -2.920   0.766  -0.305  0.00  0.00    +0.000 C 
ATOM     23  H   UNL     1      -2.918   0.471  -1.359  0.00  0.00    +0.000 HD
ATOM     24  H   UNL     1      -3.937   0.620   0.076  0.00  0.00    +0.000 HD
ATOM     25  H   UNL     1      -2.701   1.837  -0.248  0.00  0.00    +0.000 HD
ENDBRANCH  20  22
BRANCH  20  26
ATOM     26  C   UNL     1      -2.287  -1.540   0.462  0.00  0.00    +0.000 C 
ATOM     27  H   UNL     1      -2.372  -1.913  -0.563  0.00  0.00    +0.000 HD
ATOM     28  H   UNL     1      -3.261  -1.701   0.938  0.00  0.00    +0.000 HD
ATOM     29  H   UNL     1      -1.561  -2.159   0.998  0.00  0.00    +0.000 HD
ENDBRANCH  20  26
ENDBRANCH   2  20
TORSDOF 4
