REMARK  Name = 638011
REMARK  7 active torsions:
REMARK  status: ('A' for Active; 'I' for Inactive)
REMARK    1  A    between atoms: C_2  and  C_3
REMARK    2  A    between atoms: C_2  and  C_4
REMARK    3  A    between atoms: C_3  and  C_5
REMARK    4  A    between atoms: C_4  and  C_7
REMARK    5  A    between atoms: C_6  and  C_9
REMARK    6  A    between atoms: C_6  and  C_10
REMARK    7  A    between atoms: C_8  and  C_11
REMARK                            x       y       z     vdW  Elec       q    Type
REMARK                         _______ _______ _______ _____ _____    ______ ____
ROOT
ATOM      1  C   UNL     1       1.272   1.617   0.421  0.00  0.00    +0.000 C 
ATOM      2  H   UNL     1       1.482   1.871  -0.621  0.00  0.00    +0.000 HD
ATOM      3  H   UNL     1       1.827   2.346   1.025  0.00  0.00    +0.000 HD
ENDROOT
BRANCH   1   4
ATOM      4  C   UNL     1      -0.226   1.806   0.701  0.00  0.00    +0.000 C 
ATOM      5  H   UNL     1      -0.516   2.830   0.435  0.00  0.00    +0.000 HD
ATOM      6  H   UNL     1      -0.403   1.712   1.780  0.00  0.00    +0.000 HD
BRANCH   4   7
ATOM      7  C   UNL     1      -1.115   0.832  -0.047  0.00  0.00    +0.000 C 
ATOM      8  C   UNL     1      -1.951  -0.061   0.512  0.00  0.00    +0.000 C 
ATOM      9  H   UNL     1      -2.051  -0.099   1.593  0.00  0.00    +0.000 HD
BRANCH   7  10
ATOM     10  C   UNL     1      -1.044   0.938  -1.550  0.00  0.00    +0.000 C 
ATOM     11  H   UNL     1      -1.985   0.685  -2.048  0.00  0.00    +0.000 HD
ATOM     12  H   UNL     1      -0.251   0.295  -1.943  0.00  0.00    +0.000 HD
ATOM     13  H   UNL     1      -0.824   1.969  -1.849  0.00  0.00    +0.000 HD
ENDBRANCH   7  10
BRANCH   8  15
ATOM     14  O   UNL     1      -3.910  -1.353   0.222  0.00  0.00    +0.000 OA
ATOM     15  C   UNL     1      -2.837  -0.978  -0.236  0.00  0.00    +0.000 C 
ATOM     16  H   UNL     1      -2.495  -1.287  -1.237  0.00  0.00    +0.000 HD
ENDBRANCH   8  15
ENDBRANCH   4   7
ENDBRANCH   1   4
BRANCH   1  17
ATOM     17  C   UNL     1       1.763   0.245   0.794  0.00  0.00    +0.000 C 
ATOM     18  C   UNL     1       2.421  -0.640   0.022  0.00  0.00    +0.000 C 
ATOM     19  H   UNL     1       1.567  -0.030   1.830  0.00  0.00    +0.000 HD
BRANCH  18  20
ATOM     20  C   UNL     1       2.842  -1.972   0.583  0.00  0.00    +0.000 C 
ATOM     21  H   UNL     1       3.930  -2.082   0.521  0.00  0.00    +0.000 HD
ATOM     22  H   UNL     1       2.378  -2.786   0.016  0.00  0.00    +0.000 HD
ATOM     23  H   UNL     1       2.555  -2.094   1.633  0.00  0.00    +0.000 HD
ENDBRANCH  18  20
BRANCH  18  24
ATOM     24  C   UNL     1       2.785  -0.433  -1.421  0.00  0.00    +0.000 C 
ATOM     25  H   UNL     1       3.869  -0.520  -1.549  0.00  0.00    +0.000 HD
ATOM     26  H   UNL     1       2.490   0.539  -1.819  0.00  0.00    +0.000 HD
ATOM     27  H   UNL     1       2.304  -1.198  -2.041  0.00  0.00    +0.000 HD
ENDBRANCH  18  24
ENDBRANCH   1  17
TORSDOF 7
