REMARK  Name = 323
REMARK  0 active torsions:
REMARK  status: ('A' for Active; 'I' for Inactive)
REMARK                            x       y       z     vdW  Elec       q    Type
REMARK                         _______ _______ _______ _____ _____    ______ ____
ROOT
ATOM      1  O   UNL     1      -1.058   1.127   0.000  0.00  0.00    +0.000 OA
ATOM      2  O   UNL     1      -3.319   0.764  -0.001  0.00  0.00    +0.000 OA
ATOM      3  C   UNL     1       0.448  -0.786  -0.000  0.00  0.00    +0.000 A 
ATOM      4  C   UNL     1       0.247   0.592   0.000  0.00  0.00    +0.000 A 
ATOM      5  C   UNL     1       1.755  -1.278  -0.000  0.00  0.00    +0.000 A 
ATOM      6  C   UNL     1      -0.711  -1.663   0.000  0.00  0.00    +0.000 A 
ATOM      7  C   UNL     1       1.314   1.488   0.000  0.00  0.00    +0.000 A 
ATOM      8  C   UNL     1       2.835  -0.391  -0.000  0.00  0.00    +0.000 A 
ATOM      9  C   UNL     1       2.615   0.989   0.000  0.00  0.00    +0.000 A 
ATOM     10  C   UNL     1      -1.943  -1.148   0.000  0.00  0.00    +0.000 A 
ATOM     11  C   UNL     1      -2.182   0.307  -0.000  0.00  0.00    +0.000 A 
ATOM     12  H   UNL     1       1.948  -2.348  -0.001  0.00  0.00    +0.000 HD
ATOM     13  H   UNL     1      -0.559  -2.737   0.000  0.00  0.00    +0.000 HD
ATOM     14  H   UNL     1       1.141   2.560   0.000  0.00  0.00    +0.000 HD
ATOM     15  H   UNL     1       3.851  -0.776  -0.000  0.00  0.00    +0.000 HD
ATOM     16  H   UNL     1       3.459   1.672   0.000  0.00  0.00    +0.000 HD
ATOM     17  H   UNL     1      -2.813  -1.797   0.001  0.00  0.00    +0.000 HD
ENDROOT
TORSDOF 0
