REMARK  Name = 4284
REMARK  6 active torsions:
REMARK  status: ('A' for Active; 'I' for Inactive)
REMARK    1  A    between atoms: N_2  and  C_3
REMARK    2  A    between atoms: N_2  and  C_4
REMARK    3  A    between atoms: C_3  and  C_7
REMARK    4  A    between atoms: C_4  and  C_8
REMARK    5  A    between atoms: C_5  and  C_6
REMARK    6  A    between atoms: C_10  and  C_14
REMARK                            x       y       z     vdW  Elec       q    Type
REMARK                         _______ _______ _______ _____ _____    ______ ____
ROOT
ATOM      1  O   UNL     1      -1.217  -1.338   1.566  0.00  0.00    +0.000 OA
ATOM      2  N   UNL     1      -1.899   0.260   0.002  0.00  0.00    +0.000 N 
ATOM      3  C   UNL     1      -0.951  -0.562   0.639  0.00  0.00    +0.000 C 
ENDROOT
BRANCH   3   4
ATOM      4  C   UNL     1       0.430  -0.523   0.187  0.00  0.00    +0.000 A 
ATOM      5  C   UNL     1       1.328   0.377   0.761  0.00  0.00    +0.000 A 
ATOM      6  C   UNL     1       2.654   0.411   0.328  0.00  0.00    +0.000 A 
ATOM      7  C   UNL     1       0.858  -1.389  -0.820  0.00  0.00    +0.000 A 
ATOM      8  C   UNL     1       3.082  -0.454  -0.679  0.00  0.00    +0.000 A 
ATOM      9  C   UNL     1       2.184  -1.354  -1.253  0.00  0.00    +0.000 A 
ATOM     10  H   UNL     1       0.998   1.045   1.553  0.00  0.00    +0.000 HD
ATOM     11  H   UNL     1       0.167  -2.094  -1.274  0.00  0.00    +0.000 HD
ATOM     12  H   UNL     1       4.111  -0.436  -1.027  0.00  0.00    +0.000 HD
ATOM     13  H   UNL     1       2.516  -2.028  -2.037  0.00  0.00    +0.000 HD
BRANCH   6  14
ATOM     14  C   UNL     1       3.614   1.373   0.942  0.00  0.00    +0.000 C 
ATOM     15  H   UNL     1       3.390   1.529   2.002  0.00  0.00    +0.000 HD
ATOM     16  H   UNL     1       4.643   1.001   0.883  0.00  0.00    +0.000 HD
ATOM     17  H   UNL     1       3.562   2.337   0.425  0.00  0.00    +0.000 HD
ENDBRANCH   6  14
ENDBRANCH   3   4
BRANCH   2  18
ATOM     18  C   UNL     1      -3.304   0.266   0.387  0.00  0.00    +0.000 C 
ATOM     19  H   UNL     1      -3.372   0.021   1.453  0.00  0.00    +0.000 HD
ATOM     20  H   UNL     1      -3.718   1.270   0.255  0.00  0.00    +0.000 HD
BRANCH  18  21
ATOM     21  C   UNL     1      -4.099  -0.756  -0.399  0.00  0.00    +0.000 C 
ATOM     22  H   UNL     1      -4.068  -0.544  -1.472  0.00  0.00    +0.000 HD
ATOM     23  H   UNL     1      -3.702  -1.766  -0.248  0.00  0.00    +0.000 HD
ATOM     24  H   UNL     1      -5.146  -0.751  -0.081  0.00  0.00    +0.000 HD
ENDBRANCH  18  21
ENDBRANCH   2  18
BRANCH   2  25
ATOM     25  C   UNL     1      -1.539   1.162  -1.090  0.00  0.00    +0.000 C 
ATOM     26  H   UNL     1      -0.718   0.745  -1.680  0.00  0.00    +0.000 HD
ATOM     27  H   UNL     1      -2.391   1.252  -1.772  0.00  0.00    +0.000 HD
BRANCH  25  28
ATOM     28  C   UNL     1      -1.141   2.529  -0.571  0.00  0.00    +0.000 C 
ATOM     29  H   UNL     1      -1.969   2.999  -0.031  0.00  0.00    +0.000 HD
ATOM     30  H   UNL     1      -0.290   2.488   0.110  0.00  0.00    +0.000 HD
ATOM     31  H   UNL     1      -0.872   3.184  -1.406  0.00  0.00    +0.000 HD
ENDBRANCH  25  28
ENDBRANCH   2  25
TORSDOF 6
