REMARK  Name = 8194
REMARK  11 active torsions:
REMARK  status: ('A' for Active; 'I' for Inactive)
REMARK    1  A    between atoms: C_2  and  C_3
REMARK    2  A    between atoms: C_2  and  C_4
REMARK    3  A    between atoms: C_3  and  C_5
REMARK    4  A    between atoms: C_4  and  C_6
REMARK    5  A    between atoms: C_5  and  C_7
REMARK    6  A    between atoms: C_6  and  C_8
REMARK    7  A    between atoms: C_7  and  C_9
REMARK    8  A    between atoms: C_8  and  C_10
REMARK    9  A    between atoms: C_9  and  C_11
REMARK   10  A    between atoms: C_10  and  C_12
REMARK   11  A    between atoms: C_11  and  C_13
REMARK                            x       y       z     vdW  Elec       q    Type
REMARK                         _______ _______ _______ _____ _____    ______ ____
ROOT
ATOM      1  C   UNL     1       1.147   0.288   0.092  0.00  0.00    +0.000 C 
ATOM      2  H   UNL     1       1.124   0.894   1.006  0.00  0.00    +0.000 HD
ATOM      3  H   UNL     1       1.105   0.993  -0.748  0.00  0.00    +0.000 HD
ENDROOT
BRANCH   1   4
ATOM      4  C   UNL     1      -0.108  -0.589   0.051  0.00  0.00    +0.000 C 
ATOM      5  H   UNL     1      -0.095  -1.268   0.913  0.00  0.00    +0.000 HD
ATOM      6  H   UNL     1      -0.072  -1.218  -0.847  0.00  0.00    +0.000 HD
BRANCH   4   7
ATOM      7  C   UNL     1      -1.412   0.212   0.053  0.00  0.00    +0.000 C 
ATOM      8  H   UNL     1      -1.458   0.836   0.953  0.00  0.00    +0.000 HD
ATOM      9  H   UNL     1      -1.426   0.887  -0.811  0.00  0.00    +0.000 HD
BRANCH   7  10
ATOM     10  C   UNL     1      -2.630  -0.714   0.003  0.00  0.00    +0.000 C 
ATOM     11  H   UNL     1      -2.575  -1.353  -0.886  0.00  0.00    +0.000 HD
ATOM     12  H   UNL     1      -2.626  -1.374   0.878  0.00  0.00    +0.000 HD
BRANCH  10  13
ATOM     13  C   UNL     1      -3.935   0.088  -0.028  0.00  0.00    +0.000 C 
ATOM     14  H   UNL     1      -3.938   0.743  -0.909  0.00  0.00    +0.000 HD
ATOM     15  H   UNL     1      -3.972   0.747   0.849  0.00  0.00    +0.000 HD
BRANCH  13  16
ATOM     16  C   UNL     1      -5.175  -0.800  -0.049  0.00  0.00    +0.000 C 
ATOM     17  H   UNL     1      -5.194  -1.416  -0.954  0.00  0.00    +0.000 HD
ATOM     18  H   UNL     1      -5.184  -1.464   0.821  0.00  0.00    +0.000 HD
BRANCH  16  20
ATOM     19  O   UNL     1      -6.459   1.240  -0.032  0.00  0.00    +0.000 OA
ATOM     20  C   UNL     1      -6.444   0.013  -0.014  0.00  0.00    +0.000 C 
ATOM     21  H   UNL     1      -7.381  -0.568   0.019  0.00  0.00    +0.000 HD
ENDBRANCH  16  20
ENDBRANCH  13  16
ENDBRANCH  10  13
ENDBRANCH   7  10
ENDBRANCH   4   7
ENDBRANCH   1   4
BRANCH   1  22
ATOM     22  C   UNL     1       2.484  -0.459   0.030  0.00  0.00    +0.000 C 
ATOM     23  H   UNL     1       2.503  -1.086  -0.869  0.00  0.00    +0.000 HD
ATOM     24  H   UNL     1       2.554  -1.137   0.890  0.00  0.00    +0.000 HD
BRANCH  22  25
ATOM     25  C   UNL     1       3.698   0.473   0.018  0.00  0.00    +0.000 C 
ATOM     26  H   UNL     1       3.628   1.146  -0.846  0.00  0.00    +0.000 HD
ATOM     27  H   UNL     1       3.675   1.104   0.915  0.00  0.00    +0.000 HD
BRANCH  25  28
ATOM     28  C   UNL     1       5.035  -0.274  -0.036  0.00  0.00    +0.000 C 
ATOM     29  H   UNL     1       5.062  -0.894  -0.940  0.00  0.00    +0.000 HD
ATOM     30  H   UNL     1       5.095  -0.959   0.819  0.00  0.00    +0.000 HD
BRANCH  28  31
ATOM     31  C   UNL     1       6.249   0.655  -0.023  0.00  0.00    +0.000 C 
ATOM     32  H   UNL     1       6.232   1.276   0.880  0.00  0.00    +0.000 HD
ATOM     33  H   UNL     1       6.207   1.332  -0.885  0.00  0.00    +0.000 HD
BRANCH  31  34
ATOM     34  C   UNL     1       7.550  -0.133  -0.065  0.00  0.00    +0.000 C 
ATOM     35  H   UNL     1       7.610  -0.742  -0.972  0.00  0.00    +0.000 HD
ATOM     36  H   UNL     1       7.635  -0.796   0.801  0.00  0.00    +0.000 HD
ATOM     37  H   UNL     1       8.406   0.549  -0.056  0.00  0.00    +0.000 HD
ENDBRANCH  31  34
ENDBRANCH  28  31
ENDBRANCH  25  28
ENDBRANCH  22  25
ENDBRANCH   1  22
TORSDOF 11
