REMARK  Name = 5363374
REMARK  7 active torsions:
REMARK  status: ('A' for Active; 'I' for Inactive)
REMARK    1  A    between atoms: O_1  and  C_8
REMARK    2  A    between atoms: O_1  and  C_9
REMARK    3  A    between atoms: C_3  and  C_4
REMARK    4  A    between atoms: C_3  and  C_5
REMARK    5  A    between atoms: C_4  and  C_6
REMARK    6  A    between atoms: C_7  and  C_8
REMARK    7  A    between atoms: C_9  and  C_10
REMARK                            x       y       z     vdW  Elec       q    Type
REMARK                         _______ _______ _______ _____ _____    ______ ____
ROOT
ATOM      1  C   UNL     1       1.800   1.507   0.206  0.00  0.00    +0.000 C 
ATOM      2  C   UNL     1       0.485   1.764   0.154  0.00  0.00    +0.000 C 
ATOM      3  H   UNL     1       2.447   2.192   0.747  0.00  0.00    +0.000 HD
ATOM      4  H   UNL     1       0.107   2.658   0.644  0.00  0.00    +0.000 HD
ENDROOT
BRANCH   1   5
ATOM      5  C   UNL     1       2.442   0.305  -0.424  0.00  0.00    +0.000 C 
ATOM      6  H   UNL     1       3.472   0.578  -0.687  0.00  0.00    +0.000 HD
ATOM      7  H   UNL     1       1.972   0.032  -1.374  0.00  0.00    +0.000 HD
BRANCH   5   8
ATOM      8  C   UNL     1       2.467  -0.880   0.542  0.00  0.00    +0.000 C 
ATOM      9  H   UNL     1       1.446  -1.154   0.835  0.00  0.00    +0.000 HD
ATOM     10  H   UNL     1       3.002  -0.607   1.460  0.00  0.00    +0.000 HD
BRANCH   8  11
ATOM     11  C   UNL     1       3.140  -2.092  -0.083  0.00  0.00    +0.000 C 
ATOM     12  H   UNL     1       3.149  -2.928   0.624  0.00  0.00    +0.000 HD
ATOM     13  H   UNL     1       2.607  -2.416  -0.983  0.00  0.00    +0.000 HD
ATOM     14  H   UNL     1       4.176  -1.868  -0.357  0.00  0.00    +0.000 HD
ENDBRANCH   8  11
ENDBRANCH   5   8
ENDBRANCH   1   5
BRANCH   2  15
ATOM     15  C   UNL     1      -0.505   0.886  -0.539  0.00  0.00    +0.000 C 
ATOM     16  H   UNL     1      -1.017   1.483  -1.304  0.00  0.00    +0.000 HD
ATOM     17  H   UNL     1      -0.062   0.017  -1.031  0.00  0.00    +0.000 HD
BRANCH  15  18
ATOM     18  O   UNL     1      -1.459   0.435   0.412  0.00  0.00    +0.000 OA
BRANCH  18  20
ATOM     19  O   UNL     1      -2.562  -0.756  -1.232  0.00  0.00    +0.000 OA
ATOM     20  C   UNL     1      -2.440  -0.386  -0.072  0.00  0.00    +0.000 C 
BRANCH  20  21
ATOM     21  C   UNL     1      -3.368  -0.781   1.037  0.00  0.00    +0.000 C 
ATOM     22  H   UNL     1      -3.841   0.109   1.459  0.00  0.00    +0.000 HD
ATOM     23  H   UNL     1      -2.814  -1.326   1.806  0.00  0.00    +0.000 HD
ATOM     24  H   UNL     1      -4.149  -1.436   0.640  0.00  0.00    +0.000 HD
ENDBRANCH  20  21
ENDBRANCH  18  20
ENDBRANCH  15  18
ENDBRANCH   2  15
TORSDOF 7
