REMARK  Name = 8815
REMARK  4 active torsions:
REMARK  status: ('A' for Active; 'I' for Inactive)
REMARK    1  A    between atoms: O_1  and  C_6
REMARK    2  A    between atoms: O_1  and  C_10
REMARK    3  A    between atoms: C_2  and  C_3
REMARK    4  A    between atoms: C_3  and  C_9
REMARK                            x       y       z     vdW  Elec       q    Type
REMARK                         _______ _______ _______ _____ _____    ______ ____
ROOT
ATOM      1  C   UNL     1       0.920  -0.292  -0.425  0.00  0.00    +0.000 A 
ATOM      2  C   UNL     1       0.253  -1.451  -0.027  0.00  0.00    +0.000 A 
ATOM      3  C   UNL     1       0.217   0.905  -0.561  0.00  0.00    +0.000 A 
ATOM      4  C   UNL     1      -1.819  -0.215   0.099  0.00  0.00    +0.000 A 
ATOM      5  C   UNL     1      -1.116  -1.412   0.235  0.00  0.00    +0.000 A 
ATOM      6  C   UNL     1      -1.152   0.944  -0.299  0.00  0.00    +0.000 A 
ATOM      7  H   UNL     1       0.789  -2.390   0.085  0.00  0.00    +0.000 HD
ATOM      8  H   UNL     1       0.726   1.815  -0.869  0.00  0.00    +0.000 HD
ATOM      9  H   UNL     1      -1.630  -2.318   0.545  0.00  0.00    +0.000 HD
ATOM     10  H   UNL     1      -1.636   1.906  -0.424  0.00  0.00    +0.000 HD
ENDROOT
BRANCH   1  11
ATOM     11  C   UNL     1       2.384  -0.333  -0.705  0.00  0.00    +0.000 C 
ATOM     12  H   UNL     1       2.661  -1.323  -1.091  0.00  0.00    +0.000 HD
ATOM     13  H   UNL     1       2.622   0.366  -1.518  0.00  0.00    +0.000 HD
BRANCH  11  14
ATOM     14  C   UNL     1       3.226  -0.045   0.511  0.00  0.00    +0.000 C 
ATOM     15  C   UNL     1       4.056   0.999   0.621  0.00  0.00    +0.000 C 
ATOM     16  H   UNL     1       3.160  -0.744   1.341  0.00  0.00    +0.000 HD
ATOM     17  H   UNL     1       4.640   1.143   1.523  0.00  0.00    +0.000 HD
ATOM     18  H   UNL     1       4.166   1.722  -0.180  0.00  0.00    +0.000 HD
ENDBRANCH  11  14
ENDBRANCH   1  11
BRANCH   4  19
ATOM     19  O   UNL     1      -3.155  -0.178   0.355  0.00  0.00    +0.000 OA
BRANCH  19  20
ATOM     20  C   UNL     1      -3.812   1.079   0.196  0.00  0.00    +0.000 C 
ATOM     21  H   UNL     1      -3.772   1.426  -0.842  0.00  0.00    +0.000 HD
ATOM     22  H   UNL     1      -3.428   1.825   0.899  0.00  0.00    +0.000 HD
ATOM     23  H   UNL     1      -4.869   0.924   0.440  0.00  0.00    +0.000 HD
ENDBRANCH  19  20
ENDBRANCH   4  19
TORSDOF 4
