REMARK  Name = 7334
REMARK  9 active torsions:
REMARK  status: ('A' for Active; 'I' for Inactive)
REMARK    1  A    between atoms: O_1  and  C_9
REMARK    2  A    between atoms: O_1  and  C_13
REMARK    3  A    between atoms: C_3  and  C_6
REMARK    4  A    between atoms: C_3  and  C_7
REMARK    5  A    between atoms: C_4  and  C_8
REMARK    6  A    between atoms: C_5  and  C_9
REMARK    7  A    between atoms: C_10  and  C_11
REMARK    8  A    between atoms: C_10  and  C_12
REMARK    9  A    between atoms: C_13  and  C_14
REMARK                            x       y       z     vdW  Elec       q    Type
REMARK                         _______ _______ _______ _____ _____    ______ ____
ROOT
ATOM      1  C   UNL     1       0.263  -1.040  -0.045  0.00  0.00    +0.000 C 
ATOM      2  C   UNL     1       0.875   0.296  -0.290  0.00  0.00    +0.000 C 
ATOM      3  C   UNL     1      -0.394   0.200   0.486  0.00  0.00    +0.000 C 
ATOM      4  H   UNL     1       0.825   0.705  -1.295  0.00  0.00    +0.000 HD
ATOM      5  H   UNL     1      -0.345   0.365   1.559  0.00  0.00    +0.000 HD
ENDROOT
BRANCH   1   6
ATOM      6  C   UNL     1      -0.337  -1.732  -1.223  0.00  0.00    +0.000 C 
ATOM      7  H   UNL     1      -0.681  -1.040  -2.000  0.00  0.00    +0.000 HD
ATOM      8  H   UNL     1       0.398  -2.396  -1.690  0.00  0.00    +0.000 HD
ATOM      9  H   UNL     1      -1.194  -2.341  -0.916  0.00  0.00    +0.000 HD
ENDBRANCH   1   6
BRANCH   1  10
ATOM     10  C   UNL     1       0.866  -1.975   0.950  0.00  0.00    +0.000 C 
ATOM     11  H   UNL     1       1.733  -2.489   0.521  0.00  0.00    +0.000 HD
ATOM     12  H   UNL     1       1.192  -1.476   1.869  0.00  0.00    +0.000 HD
ATOM     13  H   UNL     1       0.137  -2.738   1.246  0.00  0.00    +0.000 HD
ENDBRANCH   1  10
BRANCH   2  14
ATOM     14  C   UNL     1       2.100   0.685   0.434  0.00  0.00    +0.000 C 
ATOM     15  C   UNL     1       3.377   0.428   0.091  0.00  0.00    +0.000 C 
ATOM     16  H   UNL     1       1.934   1.256   1.347  0.00  0.00    +0.000 HD
BRANCH  15  17
ATOM     17  C   UNL     1       4.521   0.898   0.946  0.00  0.00    +0.000 C 
ATOM     18  H   UNL     1       5.114   0.043   1.288  0.00  0.00    +0.000 HD
ATOM     19  H   UNL     1       5.173   1.566   0.373  0.00  0.00    +0.000 HD
ATOM     20  H   UNL     1       4.183   1.443   1.833  0.00  0.00    +0.000 HD
ENDBRANCH  15  17
BRANCH  15  21
ATOM     21  C   UNL     1       3.774  -0.331  -1.143  0.00  0.00    +0.000 C 
ATOM     22  H   UNL     1       4.403   0.295  -1.785  0.00  0.00    +0.000 HD
ATOM     23  H   UNL     1       4.341  -1.226  -0.869  0.00  0.00    +0.000 HD
ATOM     24  H   UNL     1       2.916  -0.654  -1.739  0.00  0.00    +0.000 HD
ENDBRANCH  15  21
ENDBRANCH   2  14
BRANCH   3  26
ATOM     25  O   UNL     1      -1.655   1.572  -1.003  0.00  0.00    +0.000 OA
ATOM     26  C   UNL     1      -1.630   0.713  -0.132  0.00  0.00    +0.000 C 
BRANCH  26  27
ATOM     27  O   UNL     1      -2.709   0.086   0.416  0.00  0.00    +0.000 OA
BRANCH  27  28
ATOM     28  C   UNL     1      -3.982   0.491  -0.096  0.00  0.00    +0.000 C 
ATOM     29  H   UNL     1      -4.123   1.563   0.082  0.00  0.00    +0.000 HD
ATOM     30  H   UNL     1      -4.022   0.293  -1.173  0.00  0.00    +0.000 HD
BRANCH  28  31
ATOM     31  C   UNL     1      -5.069  -0.292   0.609  0.00  0.00    +0.000 C 
ATOM     32  H   UNL     1      -6.059  -0.006   0.241  0.00  0.00    +0.000 HD
ATOM     33  H   UNL     1      -4.931  -1.367   0.455  0.00  0.00    +0.000 HD
ATOM     34  H   UNL     1      -5.030  -0.118   1.690  0.00  0.00    +0.000 HD
ENDBRANCH  28  31
ENDBRANCH  27  28
ENDBRANCH  26  27
ENDBRANCH   3  26
TORSDOF 9
