REMARK  Name = 31251
REMARK  11 active torsions:
REMARK  status: ('A' for Active; 'I' for Inactive)
REMARK    1  A    between atoms: O_1  and  C_11
REMARK    2  A    between atoms: O_1  and  C_12
REMARK    3  A    between atoms: C_3  and  C_4
REMARK    4  A    between atoms: C_3  and  C_5
REMARK    5  A    between atoms: C_4  and  C_6
REMARK    6  A    between atoms: C_5  and  C_7
REMARK    7  A    between atoms: C_6  and  C_8
REMARK    8  A    between atoms: C_7  and  C_9
REMARK    9  A    between atoms: C_8  and  C_10
REMARK   10  A    between atoms: C_9  and  C_11
REMARK   11  A    between atoms: C_12  and  C_13
REMARK                            x       y       z     vdW  Elec       q    Type
REMARK                         _______ _______ _______ _____ _____    ______ ____
ROOT
ATOM      1  C   UNL     1       0.815   0.565   0.058  0.00  0.00    +0.000 C 
ATOM      2  H   UNL     1       0.802   1.249  -0.799  0.00  0.00    +0.000 HD
ATOM      3  H   UNL     1       0.826   1.180   0.965  0.00  0.00    +0.000 HD
ENDROOT
BRANCH   1   4
ATOM      4  C   UNL     1       2.080  -0.296   0.004  0.00  0.00    +0.000 C 
ATOM      5  H   UNL     1       2.089  -0.981   0.861  0.00  0.00    +0.000 HD
ATOM      6  H   UNL     1       2.055  -0.919  -0.898  0.00  0.00    +0.000 HD
BRANCH   4   7
ATOM      7  C   UNL     1       3.374   0.523   0.006  0.00  0.00    +0.000 C 
ATOM      8  H   UNL     1       3.405   1.133   0.919  0.00  0.00    +0.000 HD
ATOM      9  H   UNL     1       3.360   1.222  -0.840  0.00  0.00    +0.000 HD
BRANCH   7  10
ATOM     10  C   UNL     1       4.638  -0.335  -0.072  0.00  0.00    +0.000 C 
ATOM     11  H   UNL     1       4.637  -0.907  -1.008  0.00  0.00    +0.000 HD
ATOM     12  H   UNL     1       4.638  -1.061   0.750  0.00  0.00    +0.000 HD
BRANCH  10  13
ATOM     13  C   UNL     1       5.899   0.527   0.007  0.00  0.00    +0.000 C 
ATOM     14  H   UNL     1       5.917   1.237  -0.828  0.00  0.00    +0.000 HD
ATOM     15  H   UNL     1       5.893   1.113   0.933  0.00  0.00    +0.000 HD
BRANCH  13  16
ATOM     16  C   UNL     1       7.159  -0.324  -0.033  0.00  0.00    +0.000 C 
ATOM     17  H   UNL     1       7.213  -0.902  -0.961  0.00  0.00    +0.000 HD
ATOM     18  H   UNL     1       7.188  -1.022   0.810  0.00  0.00    +0.000 HD
ATOM     19  H   UNL     1       8.048   0.313   0.023  0.00  0.00    +0.000 HD
ENDBRANCH  13  16
ENDBRANCH  10  13
ENDBRANCH   7  10
ENDBRANCH   4   7
ENDBRANCH   1   4
BRANCH   1  20
ATOM     20  C   UNL     1      -0.446  -0.305   0.040  0.00  0.00    +0.000 C 
ATOM     21  H   UNL     1      -0.434  -0.983   0.903  0.00  0.00    +0.000 HD
ATOM     22  H   UNL     1      -0.439  -0.940  -0.855  0.00  0.00    +0.000 HD
BRANCH  20  23
ATOM     23  C   UNL     1      -1.727   0.525   0.062  0.00  0.00    +0.000 C 
ATOM     24  H   UNL     1      -1.758   1.132   0.973  0.00  0.00    +0.000 HD
ATOM     25  H   UNL     1      -1.747   1.190  -0.809  0.00  0.00    +0.000 HD
BRANCH  23  27
ATOM     26  O   UNL     1      -2.953  -1.554   0.023  0.00  0.00    +0.000 OA
ATOM     27  C   UNL     1      -2.970  -0.329   0.026  0.00  0.00    +0.000 C 
BRANCH  27  28
ATOM     28  O   UNL     1      -4.081   0.461  -0.004  0.00  0.00    +0.000 OA
BRANCH  28  29
ATOM     29  C   UNL     1      -5.331  -0.235  -0.043  0.00  0.00    +0.000 C 
ATOM     30  H   UNL     1      -5.425  -0.867   0.847  0.00  0.00    +0.000 HD
ATOM     31  H   UNL     1      -5.372  -0.862  -0.941  0.00  0.00    +0.000 HD
BRANCH  29  32
ATOM     32  C   UNL     1      -6.457   0.776  -0.073  0.00  0.00    +0.000 C 
ATOM     33  H   UNL     1      -7.430   0.277  -0.104  0.00  0.00    +0.000 HD
ATOM     34  H   UNL     1      -6.418   1.423   0.809  0.00  0.00    +0.000 HD
ATOM     35  H   UNL     1      -6.367   1.428  -0.949  0.00  0.00    +0.000 HD
ENDBRANCH  29  32
ENDBRANCH  28  29
ENDBRANCH  27  28
ENDBRANCH  23  27
ENDBRANCH  20  23
ENDBRANCH   1  20
TORSDOF 11
