REMARK  Name = 7799
REMARK  10 active torsions:
REMARK  status: ('A' for Active; 'I' for Inactive)
REMARK    1  A    between atoms: O_1  and  C_10
REMARK    2  A    between atoms: O_1  and  C_11
REMARK    3  A    between atoms: C_3  and  C_4
REMARK    4  A    between atoms: C_3  and  C_5
REMARK    5  A    between atoms: C_4  and  C_6
REMARK    6  A    between atoms: C_5  and  C_7
REMARK    7  A    between atoms: C_6  and  C_8
REMARK    8  A    between atoms: C_7  and  C_9
REMARK    9  A    between atoms: C_8  and  C_10
REMARK   10  A    between atoms: C_11  and  C_12
REMARK                            x       y       z     vdW  Elec       q    Type
REMARK                         _______ _______ _______ _____ _____    ______ ____
ROOT
ATOM      1  C   UNL     1       1.431   0.483   0.028  0.00  0.00    +0.000 C 
ATOM      2  H   UNL     1       1.419   1.105   0.931  0.00  0.00    +0.000 HD
ATOM      3  H   UNL     1       1.448   1.162  -0.834  0.00  0.00    +0.000 HD
ENDROOT
BRANCH   1   4
ATOM      4  C   UNL     1       2.687  -0.390   0.019  0.00  0.00    +0.000 C 
ATOM      5  H   UNL     1       2.678  -1.057   0.890  0.00  0.00    +0.000 HD
ATOM      6  H   UNL     1       2.685  -1.025  -0.875  0.00  0.00    +0.000 HD
BRANCH   4   7
ATOM      7  C   UNL     1       3.957   0.463   0.038  0.00  0.00    +0.000 C 
ATOM      8  H   UNL     1       3.970   1.085   0.941  0.00  0.00    +0.000 HD
ATOM      9  H   UNL     1       3.954   1.142  -0.823  0.00  0.00    +0.000 HD
BRANCH   7  10
ATOM     10  C   UNL     1       5.212  -0.409  -0.004  0.00  0.00    +0.000 C 
ATOM     11  H   UNL     1       5.195  -1.044  -0.897  0.00  0.00    +0.000 HD
ATOM     12  H   UNL     1       5.233  -1.073   0.867  0.00  0.00    +0.000 HD
BRANCH  10  13
ATOM     13  C   UNL     1       6.476   0.436  -0.021  0.00  0.00    +0.000 C 
ATOM     14  H   UNL     1       6.540   1.063   0.875  0.00  0.00    +0.000 HD
ATOM     15  H   UNL     1       6.501   1.088  -0.899  0.00  0.00    +0.000 HD
ATOM     16  H   UNL     1       7.361  -0.207  -0.049  0.00  0.00    +0.000 HD
ENDBRANCH  10  13
ENDBRANCH   7  10
ENDBRANCH   4   7
ENDBRANCH   1   4
BRANCH   1  17
ATOM     17  C   UNL     1       0.160  -0.371  -0.024  0.00  0.00    +0.000 C 
ATOM     18  H   UNL     1       0.183  -1.013  -0.914  0.00  0.00    +0.000 HD
ATOM     19  H   UNL     1       0.139  -1.043   0.844  0.00  0.00    +0.000 HD
BRANCH  17  20
ATOM     20  C   UNL     1      -1.112   0.475  -0.045  0.00  0.00    +0.000 C 
ATOM     21  H   UNL     1      -1.127   1.131   0.833  0.00  0.00    +0.000 HD
ATOM     22  H   UNL     1      -1.124   1.094  -0.950  0.00  0.00    +0.000 HD
BRANCH  20  24
ATOM     23  O   UNL     1      -2.422  -1.574   0.011  0.00  0.00    +0.000 OA
ATOM     24  C   UNL     1      -2.379  -0.352  -0.026  0.00  0.00    +0.000 C 
BRANCH  24  25
ATOM     25  O   UNL     1      -3.457   0.487  -0.024  0.00  0.00    +0.000 OA
BRANCH  25  26
ATOM     26  C   UNL     1      -4.736  -0.153   0.026  0.00  0.00    +0.000 C 
ATOM     27  H   UNL     1      -4.852  -0.804  -0.847  0.00  0.00    +0.000 HD
ATOM     28  H   UNL     1      -4.809  -0.753   0.940  0.00  0.00    +0.000 HD
BRANCH  26  29
ATOM     29  C   UNL     1      -5.818   0.906   0.022  0.00  0.00    +0.000 C 
ATOM     30  H   UNL     1      -6.811   0.451   0.059  0.00  0.00    +0.000 HD
ATOM     31  H   UNL     1      -5.703   1.577   0.880  0.00  0.00    +0.000 HD
ATOM     32  H   UNL     1      -5.746   1.526  -0.878  0.00  0.00    +0.000 HD
ENDBRANCH  26  29
ENDBRANCH  25  26
ENDBRANCH  24  25
ENDBRANCH  20  24
ENDBRANCH  17  20
ENDBRANCH   1  17
TORSDOF 10
