REMARK  Name = 7749
REMARK  5 active torsions:
REMARK  status: ('A' for Active; 'I' for Inactive)
REMARK    1  A    between atoms: O_1  and  C_4
REMARK    2  A    between atoms: O_1  and  C_5
REMARK    3  A    between atoms: C_3  and  C_5
REMARK    4  A    between atoms: C_3  and  C_6
REMARK    5  A    between atoms: C_4  and  C_7
REMARK                            x       y       z     vdW  Elec       q    Type
REMARK                         _______ _______ _______ _____ _____    ______ ____
ROOT
ATOM      1  O   UNL     1      -0.660   1.395  -0.002  0.00  0.00    +0.000 OA
ATOM      2  C   UNL     1      -0.488   0.184  -0.003  0.00  0.00    +0.000 C 
ENDROOT
BRANCH   2   3
ATOM      3  C   UNL     1      -1.588  -0.852  -0.007  0.00  0.00    +0.000 C 
ATOM      4  H   UNL     1      -1.482  -1.467  -0.907  0.00  0.00    +0.000 HD
ATOM      5  H   UNL     1      -1.470  -1.486   0.877  0.00  0.00    +0.000 HD
BRANCH   3   6
ATOM      6  C   UNL     1      -2.969  -0.220   0.009  0.00  0.00    +0.000 C 
ATOM      7  H   UNL     1      -3.120   0.418  -0.868  0.00  0.00    +0.000 HD
ATOM      8  H   UNL     1      -3.743  -0.993   0.007  0.00  0.00    +0.000 HD
ATOM      9  H   UNL     1      -3.107   0.401   0.901  0.00  0.00    +0.000 HD
ENDBRANCH   3   6
ENDBRANCH   2   3
BRANCH   2  10
ATOM     10  O   UNL     1       0.720  -0.454  -0.001  0.00  0.00    +0.000 OA
BRANCH  10  11
ATOM     11  C   UNL     1       1.868   0.400   0.002  0.00  0.00    +0.000 C 
ATOM     12  H   UNL     1       1.854   1.034  -0.892  0.00  0.00    +0.000 HD
ATOM     13  H   UNL     1       1.850   1.032   0.896  0.00  0.00    +0.000 HD
BRANCH  11  14
ATOM     14  C   UNL     1       3.118  -0.454   0.003  0.00  0.00    +0.000 C 
ATOM     15  H   UNL     1       4.017   0.169   0.006  0.00  0.00    +0.000 HD
ATOM     16  H   UNL     1       3.138  -1.106   0.882  0.00  0.00    +0.000 HD
ATOM     17  H   UNL     1       3.141  -1.105  -0.877  0.00  0.00    +0.000 HD
ENDBRANCH  11  14
ENDBRANCH  10  11
ENDBRANCH   2  10
TORSDOF 5
