REMARK  Name = 429065
REMARK  5 active torsions:
REMARK  status: ('A' for Active; 'I' for Inactive)
REMARK    1  A    between atoms: O_1  and  C_3
REMARK    2  A    between atoms: O_1  and  C_5
REMARK    3  A    between atoms: C_3  and  C_4
REMARK    4  A    between atoms: C_5  and  C_6
REMARK    5  A    between atoms: C_7  and  C_8
REMARK                            x       y       z     vdW  Elec       q    Type
REMARK                         _______ _______ _______ _____ _____    ______ ____
ROOT
ATOM      1  O   UNL     1      -0.063  -1.620   0.000  0.00  0.00    +0.000 OA
ATOM      2  C   UNL     1      -0.055  -0.399  -0.001  0.00  0.00    +0.000 C 
ENDROOT
BRANCH   2   3
ATOM      3  C   UNL     1       1.156   0.450  -0.001  0.00  0.00    +0.000 C 
ATOM      4  C   UNL     1       2.370  -0.116   0.000  0.00  0.00    +0.000 C 
ATOM      5  H   UNL     1       1.034   1.528  -0.001  0.00  0.00    +0.000 HD
ATOM      6  H   UNL     1       2.476  -1.197   0.001  0.00  0.00    +0.000 HD
BRANCH   4   7
ATOM      7  C   UNL     1       3.641   0.668   0.001  0.00  0.00    +0.000 C 
ATOM      8  H   UNL     1       4.231   0.420   0.888  0.00  0.00    +0.000 HD
ATOM      9  H   UNL     1       3.463   1.748   0.000  0.00  0.00    +0.000 HD
ATOM     10  H   UNL     1       4.232   0.419  -0.886  0.00  0.00    +0.000 HD
ENDBRANCH   4   7
ENDBRANCH   2   3
BRANCH   2  11
ATOM     11  O   UNL     1      -1.137   0.426  -0.001  0.00  0.00    +0.000 OA
BRANCH  11  12
ATOM     12  C   UNL     1      -2.410  -0.229   0.000  0.00  0.00    +0.000 C 
ATOM     13  H   UNL     1      -2.498  -0.856  -0.893  0.00  0.00    +0.000 HD
ATOM     14  H   UNL     1      -2.497  -0.855   0.895  0.00  0.00    +0.000 HD
BRANCH  12  15
ATOM     15  C   UNL     1      -3.503   0.819   0.000  0.00  0.00    +0.000 C 
ATOM     16  H   UNL     1      -4.492   0.352   0.001  0.00  0.00    +0.000 HD
ATOM     17  H   UNL     1      -3.416   1.466   0.880  0.00  0.00    +0.000 HD
ATOM     18  H   UNL     1      -3.417   1.465  -0.879  0.00  0.00    +0.000 HD
ENDBRANCH  12  15
ENDBRANCH  11  12
ENDBRANCH   2  11
TORSDOF 5
