REMARK  Name = 7797
REMARK  9 active torsions:
REMARK  status: ('A' for Active; 'I' for Inactive)
REMARK    1  A    between atoms: O_1  and  C_9
REMARK    2  A    between atoms: O_1  and  C_10
REMARK    3  A    between atoms: C_3  and  C_4
REMARK    4  A    between atoms: C_3  and  C_5
REMARK    5  A    between atoms: C_4  and  C_6
REMARK    6  A    between atoms: C_5  and  C_7
REMARK    7  A    between atoms: C_6  and  C_8
REMARK    8  A    between atoms: C_7  and  C_9
REMARK    9  A    between atoms: C_10  and  C_11
REMARK                            x       y       z     vdW  Elec       q    Type
REMARK                         _______ _______ _______ _____ _____    ______ ____
ROOT
ATOM      1  C   UNL     1      -0.756   0.311  -0.013  0.00  0.00    +0.000 C 
ATOM      2  H   UNL     1      -0.755   0.921  -0.926  0.00  0.00    +0.000 HD
ATOM      3  H   UNL     1      -0.786   1.012   0.830  0.00  0.00    +0.000 HD
ENDROOT
BRANCH   1   4
ATOM      4  C   UNL     1      -2.007  -0.573   0.012  0.00  0.00    +0.000 C 
ATOM      5  H   UNL     1      -1.990  -1.258  -0.844  0.00  0.00    +0.000 HD
ATOM      6  H   UNL     1      -2.001  -1.188   0.920  0.00  0.00    +0.000 HD
BRANCH   4   7
ATOM      7  C   UNL     1      -3.283   0.271  -0.027  0.00  0.00    +0.000 C 
ATOM      8  H   UNL     1      -3.289   0.970   0.819  0.00  0.00    +0.000 HD
ATOM      9  H   UNL     1      -3.295   0.874  -0.944  0.00  0.00    +0.000 HD
BRANCH   7  10
ATOM     10  C   UNL     1      -4.532  -0.607   0.027  0.00  0.00    +0.000 C 
ATOM     11  H   UNL     1      -4.536  -1.192   0.954  0.00  0.00    +0.000 HD
ATOM     12  H   UNL     1      -4.523  -1.319  -0.806  0.00  0.00    +0.000 HD
BRANCH  10  13
ATOM     13  C   UNL     1      -5.802   0.226  -0.045  0.00  0.00    +0.000 C 
ATOM     14  H   UNL     1      -5.858   0.929   0.792  0.00  0.00    +0.000 HD
ATOM     15  H   UNL     1      -6.683  -0.422  -0.004  0.00  0.00    +0.000 HD
ATOM     16  H   UNL     1      -5.844   0.798  -0.977  0.00  0.00    +0.000 HD
ENDBRANCH  10  13
ENDBRANCH   7  10
ENDBRANCH   4   7
ENDBRANCH   1   4
BRANCH   1  17
ATOM     17  C   UNL     1       0.536  -0.504   0.053  0.00  0.00    +0.000 C 
ATOM     18  H   UNL     1       0.547  -1.099   0.974  0.00  0.00    +0.000 HD
ATOM     19  H   UNL     1       0.579  -1.183  -0.807  0.00  0.00    +0.000 HD
BRANCH  17  21
ATOM     20  O   UNL     1       1.797   1.575   0.021  0.00  0.00    +0.000 OA
ATOM     21  C   UNL     1       1.782   0.352   0.038  0.00  0.00    +0.000 C 
BRANCH  21  22
ATOM     22  O   UNL     1       2.880  -0.462   0.016  0.00  0.00    +0.000 OA
BRANCH  22  23
ATOM     23  C   UNL     1       4.143   0.209  -0.031  0.00  0.00    +0.000 C 
ATOM     24  H   UNL     1       4.190   0.828  -0.934  0.00  0.00    +0.000 HD
ATOM     25  H   UNL     1       4.243   0.853   0.850  0.00  0.00    +0.000 HD
BRANCH  23  26
ATOM     26  C   UNL     1       5.241  -0.799  -0.050  0.00  0.00    +0.000 C 
ATOM     27  H   UNL     1       6.222  -0.316  -0.086  0.00  0.00    +0.000 HD
ATOM     28  H   UNL     1       5.199  -1.438   0.839  0.00  0.00    +0.000 HD
ATOM     29  H   UNL     1       5.147  -1.462  -0.917  0.00  0.00    +0.000 HD
ENDBRANCH  23  26
ENDBRANCH  22  23
ENDBRANCH  21  22
ENDBRANCH  17  21
ENDBRANCH   1  17
TORSDOF 9
