REMARK  Name = 31265
REMARK  8 active torsions:
REMARK  status: ('A' for Active; 'I' for Inactive)
REMARK    1  A    between atoms: O_1  and  C_8
REMARK    2  A    between atoms: O_1  and  C_9
REMARK    3  A    between atoms: C_3  and  C_4
REMARK    4  A    between atoms: C_3  and  C_5
REMARK    5  A    between atoms: C_4  and  C_6
REMARK    6  A    between atoms: C_5  and  C_7
REMARK    7  A    between atoms: C_6  and  C_8
REMARK    8  A    between atoms: C_9  and  C_10
REMARK                            x       y       z     vdW  Elec       q    Type
REMARK                         _______ _______ _______ _____ _____    ______ ____
ROOT
ATOM      1  C   UNL     1      -1.333  -0.356  -0.006  0.00  0.00    +0.000 C 
ATOM      2  H   UNL     1      -1.327  -0.950   0.916  0.00  0.00    +0.000 HD
ATOM      3  H   UNL     1      -1.348  -1.072  -0.837  0.00  0.00    +0.000 HD
ENDROOT
BRANCH   1   4
ATOM      4  C   UNL     1      -2.597   0.508  -0.054  0.00  0.00    +0.000 C 
ATOM      5  H   UNL     1      -2.617   1.081  -0.989  0.00  0.00    +0.000 HD
ATOM      6  H   UNL     1      -2.575   1.232   0.770  0.00  0.00    +0.000 HD
BRANCH   4   7
ATOM      7  C   UNL     1      -3.857  -0.351   0.053  0.00  0.00    +0.000 C 
ATOM      8  H   UNL     1      -3.899  -1.056  -0.785  0.00  0.00    +0.000 HD
ATOM      9  H   UNL     1      -3.829  -0.943   0.975  0.00  0.00    +0.000 HD
BRANCH   7  10
ATOM     10  C   UNL     1      -5.115   0.503   0.051  0.00  0.00    +0.000 C 
ATOM     11  H   UNL     1      -5.120   1.196   0.899  0.00  0.00    +0.000 HD
ATOM     12  H   UNL     1      -5.191   1.088  -0.871  0.00  0.00    +0.000 HD
ATOM     13  H   UNL     1      -6.004  -0.131   0.126  0.00  0.00    +0.000 HD
ENDBRANCH   7  10
ENDBRANCH   4   7
ENDBRANCH   1   4
BRANCH   1  14
ATOM     14  C   UNL     1      -0.053   0.477  -0.077  0.00  0.00    +0.000 C 
ATOM     15  H   UNL     1      -0.044   1.058  -1.006  0.00  0.00    +0.000 HD
ATOM     16  H   UNL     1      -0.025   1.169   0.773  0.00  0.00    +0.000 HD
BRANCH  14  18
ATOM     17  O   UNL     1       1.239  -1.582  -0.005  0.00  0.00    +0.000 OA
ATOM     18  C   UNL     1       1.206  -0.360  -0.041  0.00  0.00    +0.000 C 
BRANCH  18  19
ATOM     19  O   UNL     1       2.291   0.470  -0.022  0.00  0.00    +0.000 OA
BRANCH  19  20
ATOM     20  C   UNL     1       3.564  -0.180   0.044  0.00  0.00    +0.000 C 
ATOM     21  H   UNL     1       3.620  -0.782   0.958  0.00  0.00    +0.000 HD
ATOM     22  H   UNL     1       3.688  -0.831  -0.828  0.00  0.00    +0.000 HD
BRANCH  20  23
ATOM     23  C   UNL     1       4.654   0.870   0.057  0.00  0.00    +0.000 C 
ATOM     24  H   UNL     1       5.643   0.407   0.107  0.00  0.00    +0.000 HD
ATOM     25  H   UNL     1       4.601   1.492  -0.843  0.00  0.00    +0.000 HD
ATOM     26  H   UNL     1       4.534   1.541   0.914  0.00  0.00    +0.000 HD
ENDBRANCH  20  23
ENDBRANCH  19  20
ENDBRANCH  18  19
ENDBRANCH  14  18
ENDBRANCH   1  14
TORSDOF 8
