REMARK  Name = 7762
REMARK  6 active torsions:
REMARK  status: ('A' for Active; 'I' for Inactive)
REMARK    1  A    between atoms: O_1  and  C_6
REMARK    2  A    between atoms: O_1  and  C_7
REMARK    3  A    between atoms: C_3  and  C_4
REMARK    4  A    between atoms: C_3  and  C_5
REMARK    5  A    between atoms: C_4  and  C_6
REMARK    6  A    between atoms: C_7  and  C_8
REMARK                            x       y       z     vdW  Elec       q    Type
REMARK                         _______ _______ _______ _____ _____    ______ ____
ROOT
ATOM      1  C   UNL     1      -1.156   0.556   0.002  0.00  0.00    +0.000 C 
ATOM      2  H   UNL     1      -1.123   1.180   0.903  0.00  0.00    +0.000 HD
ATOM      3  H   UNL     1      -1.108   1.203  -0.882  0.00  0.00    +0.000 HD
ENDROOT
BRANCH   1   4
ATOM      4  C   UNL     1      -2.454  -0.248  -0.021  0.00  0.00    +0.000 C 
ATOM      5  H   UNL     1      -2.489  -0.874  -0.920  0.00  0.00    +0.000 HD
ATOM      6  H   UNL     1      -2.488  -0.928   0.839  0.00  0.00    +0.000 HD
BRANCH   4   7
ATOM      7  C   UNL     1      -3.673   0.658   0.011  0.00  0.00    +0.000 C 
ATOM      8  H   UNL     1      -4.590   0.061  -0.007  0.00  0.00    +0.000 HD
ATOM      9  H   UNL     1      -3.684   1.270   0.919  0.00  0.00    +0.000 HD
ATOM     10  H   UNL     1      -3.686   1.328  -0.855  0.00  0.00    +0.000 HD
ENDBRANCH   4   7
ENDBRANCH   1   4
BRANCH   1  12
ATOM     11  O   UNL     1       0.043  -1.559   0.006  0.00  0.00    +0.000 OA
ATOM     12  C   UNL     1       0.064  -0.336   0.004  0.00  0.00    +0.000 C 
BRANCH  12  13
ATOM     13  O   UNL     1       1.184   0.447   0.000  0.00  0.00    +0.000 OA
BRANCH  13  14
ATOM     14  C   UNL     1       2.429  -0.260   0.001  0.00  0.00    +0.000 C 
ATOM     15  H   UNL     1       2.492  -0.888   0.896  0.00  0.00    +0.000 HD
ATOM     16  H   UNL     1       2.490  -0.892  -0.892  0.00  0.00    +0.000 HD
BRANCH  14  17
ATOM     17  C   UNL     1       3.564   0.742  -0.003  0.00  0.00    +0.000 C 
ATOM     18  H   UNL     1       4.532   0.235  -0.003  0.00  0.00    +0.000 HD
ATOM     19  H   UNL     1       3.503   1.389  -0.884  0.00  0.00    +0.000 HD
ATOM     20  H   UNL     1       3.505   1.394   0.875  0.00  0.00    +0.000 HD
ENDBRANCH  14  17
ENDBRANCH  13  14
ENDBRANCH  12  13
ENDBRANCH   1  12
TORSDOF 6
