REMARK  Name = 8048
REMARK  12 active torsions:
REMARK  status: ('A' for Active; 'I' for Inactive)
REMARK    1  A    between atoms: O_1  and  C_12
REMARK    2  A    between atoms: O_1  and  C_13
REMARK    3  A    between atoms: C_3  and  C_4
REMARK    4  A    between atoms: C_3  and  C_5
REMARK    5  A    between atoms: C_4  and  C_6
REMARK    6  A    between atoms: C_5  and  C_7
REMARK    7  A    between atoms: C_6  and  C_8
REMARK    8  A    between atoms: C_7  and  C_9
REMARK    9  A    between atoms: C_8  and  C_10
REMARK   10  A    between atoms: C_9  and  C_11
REMARK   11  A    between atoms: C_10  and  C_12
REMARK   12  A    between atoms: C_13  and  C_14
REMARK                            x       y       z     vdW  Elec       q    Type
REMARK                         _______ _______ _______ _____ _____    ______ ____
ROOT
ATOM      1  C   UNL     1       1.466   0.363   0.033  0.00  0.00    +0.000 C 
ATOM      2  H   UNL     1       1.461   1.003  -0.858  0.00  0.00    +0.000 HD
ATOM      3  H   UNL     1       1.455   1.025   0.907  0.00  0.00    +0.000 HD
ENDROOT
BRANCH   1   4
ATOM      4  C   UNL     1       2.740  -0.485   0.047  0.00  0.00    +0.000 C 
ATOM      5  H   UNL     1       2.757  -1.112   0.946  0.00  0.00    +0.000 HD
ATOM      6  H   UNL     1       2.743  -1.159  -0.818  0.00  0.00    +0.000 HD
BRANCH   4   7
ATOM      7  C   UNL     1       3.991   0.395   0.011  0.00  0.00    +0.000 C 
ATOM      8  H   UNL     1       3.990   1.061   0.883  0.00  0.00    +0.000 HD
ATOM      9  H   UNL     1       3.955   1.038  -0.878  0.00  0.00    +0.000 HD
BRANCH   7  10
ATOM     10  C   UNL     1       5.297  -0.404  -0.009  0.00  0.00    +0.000 C 
ATOM     11  H   UNL     1       5.291  -1.083  -0.871  0.00  0.00    +0.000 HD
ATOM     12  H   UNL     1       5.340  -1.034   0.889  0.00  0.00    +0.000 HD
BRANCH  10  13
ATOM     13  C   UNL     1       6.547   0.475  -0.070  0.00  0.00    +0.000 C 
ATOM     14  H   UNL     1       6.545   1.181   0.768  0.00  0.00    +0.000 HD
ATOM     15  H   UNL     1       6.540   1.066  -0.993  0.00  0.00    +0.000 HD
BRANCH  13  16
ATOM     16  C   UNL     1       7.816  -0.362  -0.014  0.00  0.00    +0.000 C 
ATOM     17  H   UNL     1       7.866  -0.937   0.916  0.00  0.00    +0.000 HD
ATOM     18  H   UNL     1       8.698   0.284  -0.062  0.00  0.00    +0.000 HD
ATOM     19  H   UNL     1       7.862  -1.061  -0.855  0.00  0.00    +0.000 HD
ENDBRANCH  13  16
ENDBRANCH  10  13
ENDBRANCH   7  10
ENDBRANCH   4   7
ENDBRANCH   1   4
BRANCH   1  20
ATOM     20  C   UNL     1       0.213  -0.514   0.037  0.00  0.00    +0.000 C 
ATOM     21  H   UNL     1       0.234  -1.192  -0.826  0.00  0.00    +0.000 HD
ATOM     22  H   UNL     1       0.207  -1.139   0.938  0.00  0.00    +0.000 HD
BRANCH  20  23
ATOM     23  C   UNL     1      -1.059   0.332  -0.011  0.00  0.00    +0.000 C 
ATOM     24  H   UNL     1      -1.060   0.945  -0.921  0.00  0.00    +0.000 HD
ATOM     25  H   UNL     1      -1.066   1.027   0.839  0.00  0.00    +0.000 HD
BRANCH  23  26
ATOM     26  C   UNL     1      -2.308  -0.541   0.026  0.00  0.00    +0.000 C 
ATOM     27  H   UNL     1      -2.330  -1.198  -0.850  0.00  0.00    +0.000 HD
ATOM     28  H   UNL     1      -2.314  -1.152   0.936  0.00  0.00    +0.000 HD
BRANCH  26  30
ATOM     29  O   UNL     1      -3.541   1.533   0.016  0.00  0.00    +0.000 OA
ATOM     30  C   UNL     1      -3.553   0.309   0.020  0.00  0.00    +0.000 C 
BRANCH  30  31
ATOM     31  O   UNL     1      -4.660  -0.487  -0.002  0.00  0.00    +0.000 OA
BRANCH  31  32
ATOM     32  C   UNL     1      -5.913   0.202  -0.031  0.00  0.00    +0.000 C 
ATOM     33  H   UNL     1      -5.965   0.828  -0.929  0.00  0.00    +0.000 HD
ATOM     34  H   UNL     1      -6.004   0.834   0.859  0.00  0.00    +0.000 HD
BRANCH  32  35
ATOM     35  C   UNL     1      -7.035  -0.815  -0.052  0.00  0.00    +0.000 C 
ATOM     36  H   UNL     1      -6.947  -1.467  -0.928  0.00  0.00    +0.000 HD
ATOM     37  H   UNL     1      -6.986  -1.461   0.831  0.00  0.00    +0.000 HD
ATOM     38  H   UNL     1      -8.010  -0.322  -0.075  0.00  0.00    +0.000 HD
ENDBRANCH  32  35
ENDBRANCH  31  32
ENDBRANCH  30  31
ENDBRANCH  26  30
ENDBRANCH  23  26
ENDBRANCH  20  23
ENDBRANCH   1  20
TORSDOF 12
