REMARK  Name = 6877
REMARK  5 active torsions:
REMARK  status: ('A' for Active; 'I' for Inactive)
REMARK    1  A    between atoms: O_1  and  C_8
REMARK    2  A    between atoms: O_1  and  C_10
REMARK    3  A    between atoms: N_3  and  C_5
REMARK    4  A    between atoms: C_4  and  C_8
REMARK    5  A    between atoms: C_10  and  C_12
REMARK                            x       y       z     vdW  Elec       q    Type
REMARK                         _______ _______ _______ _____ _____    ______ ____
ROOT
ATOM      1  C   UNL     1      -0.406  -0.026   0.127  0.00  0.00    +0.000 A 
ATOM      2  C   UNL     1      -1.491  -0.849  -0.175  0.00  0.00    +0.000 A 
ATOM      3  C   UNL     1      -0.600   1.342   0.316  0.00  0.00    +0.000 A 
ATOM      4  C   UNL     1      -2.770  -0.304  -0.287  0.00  0.00    +0.000 A 
ATOM      5  C   UNL     1      -1.879   1.887   0.203  0.00  0.00    +0.000 A 
ATOM      6  C   UNL     1      -2.964   1.065  -0.098  0.00  0.00    +0.000 A 
ATOM      7  H   UNL     1       0.221   2.010   0.566  0.00  0.00    +0.000 HD
ATOM      8  H   UNL     1      -3.624  -0.934  -0.521  0.00  0.00    +0.000 HD
ATOM      9  H   UNL     1      -2.030   2.952   0.354  0.00  0.00    +0.000 HD
ATOM     10  H   UNL     1      -3.960   1.489  -0.185  0.00  0.00    +0.000 HD
ENDROOT
BRANCH   2  11
ATOM     11  N   UNL     1      -1.316  -2.238  -0.370  0.00  0.00    +0.000 N 
ATOM     12  H   UNL     1      -0.400  -2.659  -0.307  0.00  0.00    +0.000 HD
ATOM     13  H   UNL     1      -2.116  -2.817  -0.589  0.00  0.00    +0.000 HD
ENDBRANCH   2  11
BRANCH   1  15
ATOM     14  O   UNL     1       1.203  -1.712   0.631  0.00  0.00    +0.000 OA
ATOM     15  C   UNL     1       0.943  -0.565   0.251  0.00  0.00    +0.000 C 
BRANCH  15  16
ATOM     16  O   UNL     1       1.885   0.359  -0.107  0.00  0.00    +0.000 OA
BRANCH  16  17
ATOM     17  C   UNL     1       3.254  -0.054  -0.029  0.00  0.00    +0.000 C 
ATOM     18  H   UNL     1       3.489  -0.337   1.003  0.00  0.00    +0.000 HD
ATOM     19  H   UNL     1       3.413  -0.914  -0.688  0.00  0.00    +0.000 HD
BRANCH  17  20
ATOM     20  C   UNL     1       4.140   1.095  -0.461  0.00  0.00    +0.000 C 
ATOM     21  H   UNL     1       5.196   0.814  -0.413  0.00  0.00    +0.000 HD
ATOM     22  H   UNL     1       3.902   1.401  -1.485  0.00  0.00    +0.000 HD
ATOM     23  H   UNL     1       3.977   1.969   0.178  0.00  0.00    +0.000 HD
ENDBRANCH  17  20
ENDBRANCH  16  17
ENDBRANCH  15  16
ENDBRANCH   1  15
TORSDOF 5
