REMARK  Name = 12813
REMARK  6 active torsions:
REMARK  status: ('A' for Active; 'I' for Inactive)
REMARK    1  A    between atoms: C_3  and  C_4
REMARK    2  A    between atoms: C_4  and  C_6
REMARK    3  A    between atoms: C_6  and  C_7
REMARK    4  A    between atoms: C_7  and  C_9
REMARK    5  A    between atoms: C_9  and  C_11
REMARK    6  A    between atoms: C_11  and  C_12
REMARK                            x       y       z     vdW  Elec       q    Type
REMARK                         _______ _______ _______ _____ _____    ______ ____
ROOT
ATOM      1  C   UNL     1      -0.922   0.218  -0.356  0.00  0.00    +0.000 C 
ATOM      2  H   UNL     1      -0.989   0.370  -1.440  0.00  0.00    +0.000 HD
ATOM      3  H   UNL     1      -0.726  -0.848  -0.190  0.00  0.00    +0.000 HD
ENDROOT
BRANCH   1   4
ATOM      4  C   UNL     1       0.224   1.056   0.210  0.00  0.00    +0.000 C 
ATOM      5  H   UNL     1       0.027   2.121   0.036  0.00  0.00    +0.000 HD
ATOM      6  H   UNL     1       0.262   0.901   1.296  0.00  0.00    +0.000 HD
BRANCH   4   9
ATOM      7  O   UNL     1       1.856  -0.697  -0.100  0.00  0.00    +0.000 OA
ATOM      8  O   UNL     1       3.780  -1.899   0.241  0.00  0.00    +0.000 OA
ATOM      9  C   UNL     1       1.553   0.670  -0.409  0.00  0.00    +0.000 C 
ATOM     10  C   UNL     1       2.722   1.449   0.150  0.00  0.00    +0.000 C 
ATOM     11  C   UNL     1       3.875   0.500  -0.075  0.00  0.00    +0.000 C 
ATOM     12  C   UNL     1       3.209  -0.837   0.056  0.00  0.00    +0.000 C 
ATOM     13  H   UNL     1       1.508   0.764  -1.502  0.00  0.00    +0.000 HD
ATOM     14  H   UNL     1       2.600   1.622   1.226  0.00  0.00    +0.000 HD
ATOM     15  H   UNL     1       2.861   2.420  -0.334  0.00  0.00    +0.000 HD
ATOM     16  H   UNL     1       4.654   0.629   0.680  0.00  0.00    +0.000 HD
ATOM     17  H   UNL     1       4.291   0.596  -1.082  0.00  0.00    +0.000 HD
ENDBRANCH   4   9
ENDBRANCH   1   4
BRANCH   1  18
ATOM     18  C   UNL     1      -2.257   0.588   0.296  0.00  0.00    +0.000 C 
ATOM     19  H   UNL     1      -2.479   1.646   0.110  0.00  0.00    +0.000 HD
ATOM     20  H   UNL     1      -2.186   0.458   1.383  0.00  0.00    +0.000 HD
BRANCH  18  21
ATOM     21  C   UNL     1      -3.397  -0.278  -0.245  0.00  0.00    +0.000 C 
ATOM     22  H   UNL     1      -3.160  -1.336  -0.077  0.00  0.00    +0.000 HD
ATOM     23  H   UNL     1      -3.471  -0.140  -1.331  0.00  0.00    +0.000 HD
BRANCH  21  24
ATOM     24  C   UNL     1      -4.752   0.035   0.393  0.00  0.00    +0.000 C 
ATOM     25  H   UNL     1      -4.688  -0.123   1.476  0.00  0.00    +0.000 HD
ATOM     26  H   UNL     1      -4.988   1.095   0.239  0.00  0.00    +0.000 HD
BRANCH  24  27
ATOM     27  C   UNL     1      -5.892  -0.806  -0.160  0.00  0.00    +0.000 C 
ATOM     28  H   UNL     1      -6.833  -0.540   0.331  0.00  0.00    +0.000 HD
ATOM     29  H   UNL     1      -5.708  -1.871   0.008  0.00  0.00    +0.000 HD
ATOM     30  H   UNL     1      -6.011  -0.643  -1.236  0.00  0.00    +0.000 HD
ENDBRANCH  24  27
ENDBRANCH  21  24
ENDBRANCH  18  21
ENDBRANCH   1  18
TORSDOF 6
