REMARK  Name = 637566
REMARK  8 active torsions:
REMARK  status: ('A' for Active; 'I' for Inactive)
REMARK    1  A    between atoms: O_1  and  C_11
REMARK    2  A    between atoms: C_2  and  C_3
REMARK    3  A    between atoms: C_2  and  C_4
REMARK    4  A    between atoms: C_3  and  C_5
REMARK    5  A    between atoms: C_4  and  C_7
REMARK    6  A    between atoms: C_6  and  C_9
REMARK    7  A    between atoms: C_6  and  C_10
REMARK    8  A    between atoms: C_8  and  C_11
REMARK                            x       y       z     vdW  Elec       q    Type
REMARK                         _______ _______ _______ _____ _____    ______ ____
ROOT
ATOM      1  C   UNL     1       0.051   0.636   0.631  0.00  0.00    +0.000 C 
ATOM      2  H   UNL     1      -0.121   1.449   1.349  0.00  0.00    +0.000 HD
ATOM      3  H   UNL     1      -0.153  -0.295   1.177  0.00  0.00    +0.000 HD
ENDROOT
BRANCH   1   4
ATOM      4  C   UNL     1      -0.938   0.757  -0.536  0.00  0.00    +0.000 C 
ATOM      5  H   UNL     1      -0.738  -0.023  -1.279  0.00  0.00    +0.000 HD
ATOM      6  H   UNL     1      -0.788   1.708  -1.062  0.00  0.00    +0.000 HD
BRANCH   4   7
ATOM      7  C   UNL     1      -2.372   0.711  -0.086  0.00  0.00    +0.000 C 
ATOM      8  C   UNL     1      -3.197  -0.352  -0.046  0.00  0.00    +0.000 C 
ATOM      9  H   UNL     1      -2.762   1.673   0.246  0.00  0.00    +0.000 HD
BRANCH   8  10
ATOM     10  C   UNL     1      -4.616  -0.197   0.432  0.00  0.00    +0.000 C 
ATOM     11  H   UNL     1      -4.790  -0.821   1.315  0.00  0.00    +0.000 HD
ATOM     12  H   UNL     1      -4.854   0.837   0.705  0.00  0.00    +0.000 HD
ATOM     13  H   UNL     1      -5.315  -0.502  -0.353  0.00  0.00    +0.000 HD
ENDBRANCH   8  10
BRANCH   8  14
ATOM     14  C   UNL     1      -2.826  -1.755  -0.435  0.00  0.00    +0.000 C 
ATOM     15  H   UNL     1      -3.415  -2.075  -1.301  0.00  0.00    +0.000 HD
ATOM     16  H   UNL     1      -1.769  -1.864  -0.690  0.00  0.00    +0.000 HD
ATOM     17  H   UNL     1      -3.029  -2.442   0.393  0.00  0.00    +0.000 HD
ENDBRANCH   8  14
ENDBRANCH   4   7
ENDBRANCH   1   4
BRANCH   1  18
ATOM     18  C   UNL     1       1.504   0.666   0.206  0.00  0.00    +0.000 C 
ATOM     19  C   UNL     1       2.387  -0.330   0.413  0.00  0.00    +0.000 C 
ATOM     20  H   UNL     1       2.018  -1.212   0.935  0.00  0.00    +0.000 HD
BRANCH  18  21
ATOM     21  C   UNL     1       1.949   1.941  -0.464  0.00  0.00    +0.000 C 
ATOM     22  H   UNL     1       1.513   2.807   0.047  0.00  0.00    +0.000 HD
ATOM     23  H   UNL     1       1.620   1.957  -1.508  0.00  0.00    +0.000 HD
ATOM     24  H   UNL     1       3.031   2.091  -0.444  0.00  0.00    +0.000 HD
ENDBRANCH  18  21
BRANCH  19  25
ATOM     25  C   UNL     1       3.838  -0.362   0.053  0.00  0.00    +0.000 C 
ATOM     26  H   UNL     1       4.450   0.039   0.866  0.00  0.00    +0.000 HD
ATOM     27  H   UNL     1       4.053   0.187  -0.867  0.00  0.00    +0.000 HD
BRANCH  25  28
ATOM     28  O   UNL     1       4.220  -1.713  -0.169  0.00  0.00    +0.000 OA
ATOM     29  H   UNL     1       4.151  -2.185   0.679  0.00  0.00    +0.000 HD
ENDBRANCH  25  28
ENDBRANCH  19  25
ENDBRANCH   1  18
TORSDOF 8
