REMARK  Name = 460
REMARK  3 active torsions:
REMARK  status: ('A' for Active; 'I' for Inactive)
REMARK    1  A    between atoms: O_1  and  C_3
REMARK    2  A    between atoms: O_1  and  C_9
REMARK    3  A    between atoms: O_2  and  C_4
REMARK                            x       y       z     vdW  Elec       q    Type
REMARK                         _______ _______ _______ _____ _____    ______ ____
ROOT
ATOM      1  C   UNL     1       0.572  -0.022  -0.000  0.00  0.00    +0.000 A 
ATOM      2  C   UNL     1      -0.404  -1.018  -0.000  0.00  0.00    +0.000 A 
ATOM      3  C   UNL     1       0.198   1.322   0.000  0.00  0.00    +0.000 A 
ATOM      4  C   UNL     1      -1.755  -0.670  -0.000  0.00  0.00    +0.000 A 
ATOM      5  C   UNL     1      -1.153   1.669   0.000  0.00  0.00    +0.000 A 
ATOM      6  C   UNL     1      -2.130   0.673   0.000  0.00  0.00    +0.000 A 
ATOM      7  H   UNL     1       0.900   2.148   0.000  0.00  0.00    +0.000 HD
ATOM      8  H   UNL     1      -2.521  -1.442  -0.000  0.00  0.00    +0.000 HD
ATOM      9  H   UNL     1      -1.446   2.715   0.001  0.00  0.00    +0.000 HD
ATOM     10  H   UNL     1      -3.181   0.944   0.000  0.00  0.00    +0.000 HD
ENDROOT
BRANCH   2  11
ATOM     11  O   UNL     1      -0.051  -2.334   0.001  0.00  0.00    +0.000 OA
ATOM     12  H   UNL     1       0.920  -2.389   0.001  0.00  0.00    +0.000 HD
ENDBRANCH   2  11
BRANCH   1  13
ATOM     13  O   UNL     1       1.895  -0.349  -0.000  0.00  0.00    +0.000 OA
BRANCH  13  14
ATOM     14  C   UNL     1       2.829   0.729   0.000  0.00  0.00    +0.000 C 
ATOM     15  H   UNL     1       2.748   1.333   0.910  0.00  0.00    +0.000 HD
ATOM     16  H   UNL     1       2.748   1.334  -0.910  0.00  0.00    +0.000 HD
ATOM     17  H   UNL     1       3.831   0.287  -0.000  0.00  0.00    +0.000 HD
ENDBRANCH  13  14
ENDBRANCH   1  13
TORSDOF 3
