REMARK  Name = 4763
REMARK  3 active torsions:
REMARK  status: ('A' for Active; 'I' for Inactive)
REMARK    1  A    between atoms: C_6  and  C_7
REMARK    2  A    between atoms: C_6  and  C_8
REMARK    3  A    between atoms: C_7  and  C_11
REMARK                            x       y       z     vdW  Elec       q    Type
REMARK                         _______ _______ _______ _____ _____    ______ ____
ROOT
ATOM      1  O   UNL     1       0.575  -0.767   2.365  0.00  0.00    +0.000 OA
ATOM      2  O   UNL     1       0.580  -0.558  -2.424  0.00  0.00    +0.000 OA
ATOM      3  O   UNL     1       3.409   2.023   0.091  0.00  0.00    +0.000 OA
ATOM      4  N   UNL     1       1.949   0.643   1.202  0.00  0.00    +0.000 N 
ATOM      5  N   UNL     1       1.954   0.744  -1.139  0.00  0.00    +0.000 N 
ATOM      6  C   UNL     1       0.226  -0.636  -0.029  0.00  0.00    +0.000 C 
ATOM      7  C   UNL     1       0.925  -0.282   1.287  0.00  0.00    +0.000 C 
ATOM      8  C   UNL     1       0.928  -0.170  -1.307  0.00  0.00    +0.000 C 
ATOM      9  C   UNL     1       2.494   1.198   0.054  0.00  0.00    +0.000 C 
ATOM     10  H   UNL     1       2.373   0.926   2.081  0.00  0.00    +0.000 HD
ATOM     11  H   UNL     1       2.381   1.101  -1.990  0.00  0.00    +0.000 HD
ENDROOT
BRANCH   6  12
ATOM     12  C   UNL     1      -1.164  -0.065  -0.006  0.00  0.00    +0.000 A 
ATOM     13  C   UNL     1      -1.340   1.313  -0.022  0.00  0.00    +0.000 A 
ATOM     14  C   UNL     1      -2.257  -0.921   0.029  0.00  0.00    +0.000 A 
ATOM     15  C   UNL     1      -2.630   1.843  -0.001  0.00  0.00    +0.000 A 
ATOM     16  C   UNL     1      -3.547  -0.391   0.050  0.00  0.00    +0.000 A 
ATOM     17  C   UNL     1      -3.734   0.992   0.035  0.00  0.00    +0.000 A 
ATOM     18  H   UNL     1      -0.496   1.996  -0.046  0.00  0.00    +0.000 HD
ATOM     19  H   UNL     1      -2.212  -2.002   0.041  0.00  0.00    +0.000 HD
ATOM     20  H   UNL     1      -2.775   2.920  -0.012  0.00  0.00    +0.000 HD
ATOM     21  H   UNL     1      -4.408  -1.053   0.077  0.00  0.00    +0.000 HD
ATOM     22  H   UNL     1      -4.738   1.404   0.051  0.00  0.00    +0.000 HD
ENDBRANCH   6  12
BRANCH   6  23
ATOM     23  C   UNL     1       0.130  -2.166  -0.096  0.00  0.00    +0.000 C 
ATOM     24  H   UNL     1      -0.380  -2.514  -1.005  0.00  0.00    +0.000 HD
ATOM     25  H   UNL     1      -0.391  -2.590   0.774  0.00  0.00    +0.000 HD
BRANCH  23  26
ATOM     26  C   UNL     1       1.504  -2.800  -0.088  0.00  0.00    +0.000 C 
ATOM     27  H   UNL     1       2.112  -2.491  -0.944  0.00  0.00    +0.000 HD
ATOM     28  H   UNL     1       2.064  -2.583   0.827  0.00  0.00    +0.000 HD
ATOM     29  H   UNL     1       1.405  -3.890  -0.146  0.00  0.00    +0.000 HD
ENDBRANCH  23  26
ENDBRANCH   6  23
TORSDOF 3
