REMARK  Name = 8130
REMARK  6 active torsions:
REMARK  status: ('A' for Active; 'I' for Inactive)
REMARK    1  A    between atoms: C_2  and  C_3
REMARK    2  A    between atoms: C_2  and  C_4
REMARK    3  A    between atoms: C_3  and  C_5
REMARK    4  A    between atoms: C_4  and  C_6
REMARK    5  A    between atoms: C_5  and  C_7
REMARK    6  A    between atoms: C_6  and  C_8
REMARK                            x       y       z     vdW  Elec       q    Type
REMARK                         _______ _______ _______ _____ _____    ______ ____
ROOT
ATOM      1  C   UNL     1      -0.535  -0.654   0.009  0.00  0.00    +0.000 C 
ATOM      2  H   UNL     1      -0.607  -1.321   0.876  0.00  0.00    +0.000 HD
ATOM      3  H   UNL     1      -0.593  -1.283  -0.888  0.00  0.00    +0.000 HD
ENDROOT
BRANCH   1   4
ATOM      4  C   UNL     1      -1.703   0.334   0.018  0.00  0.00    +0.000 C 
ATOM      5  H   UNL     1      -1.619   1.013  -0.839  0.00  0.00    +0.000 HD
ATOM      6  H   UNL     1      -1.654   0.949   0.925  0.00  0.00    +0.000 HD
BRANCH   4   7
ATOM      7  C   UNL     1      -3.047  -0.393  -0.038  0.00  0.00    +0.000 C 
ATOM      8  H   UNL     1      -3.110  -0.989  -0.955  0.00  0.00    +0.000 HD
ATOM      9  H   UNL     1      -3.131  -1.087   0.807  0.00  0.00    +0.000 HD
BRANCH   7  10
ATOM     10  C   UNL     1      -4.211   0.585   0.005  0.00  0.00    +0.000 C 
ATOM     11  H   UNL     1      -5.162   0.044  -0.037  0.00  0.00    +0.000 HD
ATOM     12  H   UNL     1      -4.175   1.275  -0.844  0.00  0.00    +0.000 HD
ATOM     13  H   UNL     1      -4.196   1.173   0.928  0.00  0.00    +0.000 HD
ENDBRANCH   7  10
ENDBRANCH   4   7
ENDBRANCH   1   4
BRANCH   1  14
ATOM     14  C   UNL     1       0.810   0.076   0.034  0.00  0.00    +0.000 C 
ATOM     15  H   UNL     1       0.870   0.699   0.936  0.00  0.00    +0.000 HD
ATOM     16  H   UNL     1       0.865   0.761  -0.822  0.00  0.00    +0.000 HD
BRANCH  14  17
ATOM     17  C   UNL     1       1.994  -0.885  -0.006  0.00  0.00    +0.000 C 
ATOM     18  H   UNL     1       1.963  -1.502  -0.909  0.00  0.00    +0.000 HD
ATOM     19  H   UNL     1       1.979  -1.547   0.866  0.00  0.00    +0.000 HD
BRANCH  17  21
ATOM     20  O   UNL     1       3.387   1.081  -0.024  0.00  0.00    +0.000 OA
ATOM     21  C   UNL     1       3.305  -0.143   0.002  0.00  0.00    +0.000 C 
ATOM     22  H   UNL     1       4.210  -0.775   0.019  0.00  0.00    +0.000 HD
ENDBRANCH  17  21
ENDBRANCH  14  17
ENDBRANCH   1  14
TORSDOF 6
