REMARK  Name = 6184
REMARK  5 active torsions:
REMARK  status: ('A' for Active; 'I' for Inactive)
REMARK    1  A    between atoms: C_2  and  C_3
REMARK    2  A    between atoms: C_2  and  C_4
REMARK    3  A    between atoms: C_3  and  C_5
REMARK    4  A    between atoms: C_4  and  C_6
REMARK    5  A    between atoms: C_5  and  C_7
REMARK                            x       y       z     vdW  Elec       q    Type
REMARK                         _______ _______ _______ _____ _____    ______ ____
ROOT
ATOM      1  C   UNL     1       1.199   0.468  -0.018  0.00  0.00    +0.000 C 
ATOM      2  H   UNL     1       1.303   1.087  -0.917  0.00  0.00    +0.000 HD
ATOM      3  H   UNL     1       1.318   1.132   0.848  0.00  0.00    +0.000 HD
ENDROOT
BRANCH   1   4
ATOM      4  C   UNL     1      -0.197  -0.163   0.013  0.00  0.00    +0.000 C 
ATOM      5  H   UNL     1      -0.293  -0.803   0.899  0.00  0.00    +0.000 HD
ATOM      6  H   UNL     1      -0.319  -0.819  -0.859  0.00  0.00    +0.000 HD
BRANCH   4   7
ATOM      7  C   UNL     1      -1.309   0.882   0.022  0.00  0.00    +0.000 C 
ATOM      8  H   UNL     1      -1.241   1.501   0.923  0.00  0.00    +0.000 HD
ATOM      9  H   UNL     1      -1.211   1.540  -0.848  0.00  0.00    +0.000 HD
BRANCH   7  11
ATOM     10  O   UNL     1      -2.961  -0.901   0.003  0.00  0.00    +0.000 OA
ATOM     11  C   UNL     1      -2.702   0.297  -0.021  0.00  0.00    +0.000 C 
ATOM     12  H   UNL     1      -3.515   1.041  -0.064  0.00  0.00    +0.000 HD
ENDBRANCH   7  11
ENDBRANCH   4   7
ENDBRANCH   1   4
BRANCH   1  13
ATOM     13  C   UNL     1       2.291  -0.601   0.002  0.00  0.00    +0.000 C 
ATOM     14  H   UNL     1       2.181  -1.231   0.892  0.00  0.00    +0.000 HD
ATOM     15  H   UNL     1       2.187  -1.255  -0.872  0.00  0.00    +0.000 HD
BRANCH  13  16
ATOM     16  C   UNL     1       3.679   0.019  -0.000  0.00  0.00    +0.000 C 
ATOM     17  H   UNL     1       4.444  -0.763   0.013  0.00  0.00    +0.000 HD
ATOM     18  H   UNL     1       3.826   0.653   0.880  0.00  0.00    +0.000 HD
ATOM     19  H   UNL     1       3.834   0.631  -0.894  0.00  0.00    +0.000 HD
ENDBRANCH  13  16
ENDBRANCH   1  13
TORSDOF 5
