REMARK  Name = 8892
REMARK  6 active torsions:
REMARK  status: ('A' for Active; 'I' for Inactive)
REMARK    1  A    between atoms: O_1  and  C_8
REMARK    2  A    between atoms: C_3  and  C_4
REMARK    3  A    between atoms: C_3  and  C_5
REMARK    4  A    between atoms: C_4  and  C_6
REMARK    5  A    between atoms: C_5  and  C_7
REMARK    6  A    between atoms: C_6  and  C_8
REMARK                            x       y       z     vdW  Elec       q    Type
REMARK                         _______ _______ _______ _____ _____    ______ ____
ROOT
ATOM      1  C   UNL     1       1.615  -0.408  -0.038  0.00  0.00    +0.000 C 
ATOM      2  H   UNL     1       1.660  -1.011  -0.955  0.00  0.00    +0.000 HD
ATOM      3  H   UNL     1       1.679  -1.115   0.799  0.00  0.00    +0.000 HD
ENDROOT
BRANCH   1   4
ATOM      4  C   UNL     1       0.256   0.294   0.022  0.00  0.00    +0.000 C 
ATOM      5  H   UNL     1       0.215   0.925   0.919  0.00  0.00    +0.000 HD
ATOM      6  H   UNL     1       0.170   0.972  -0.836  0.00  0.00    +0.000 HD
BRANCH   4   7
ATOM      7  C   UNL     1      -0.928  -0.673   0.033  0.00  0.00    +0.000 C 
ATOM      8  H   UNL     1      -0.896  -1.288   0.939  0.00  0.00    +0.000 HD
ATOM      9  H   UNL     1      -0.879  -1.326  -0.845  0.00  0.00    +0.000 HD
BRANCH   7  11
ATOM     10  O   UNL     1      -2.393   1.272  -0.011  0.00  0.00    +0.000 OA
ATOM     11  C   UNL     1      -2.252   0.057  -0.001  0.00  0.00    +0.000 C 
BRANCH  11  12
ATOM     12  O   UNL     1      -3.297  -0.812  -0.012  0.00  0.00    +0.000 OA
ATOM     13  H   UNL     1      -4.160  -0.345  -0.032  0.00  0.00    +0.000 HD
ENDBRANCH  11  12
ENDBRANCH   7  11
ENDBRANCH   4   7
ENDBRANCH   1   4
BRANCH   1  14
ATOM     14  C   UNL     1       2.838   0.510   0.008  0.00  0.00    +0.000 C 
ATOM     15  H   UNL     1       2.790   1.131   0.911  0.00  0.00    +0.000 HD
ATOM     16  H   UNL     1       2.809   1.194  -0.849  0.00  0.00    +0.000 HD
BRANCH  14  17
ATOM     17  C   UNL     1       4.161  -0.239  -0.001  0.00  0.00    +0.000 C 
ATOM     18  H   UNL     1       4.998   0.466   0.032  0.00  0.00    +0.000 HD
ATOM     19  H   UNL     1       4.240  -0.903   0.866  0.00  0.00    +0.000 HD
ATOM     20  H   UNL     1       4.260  -0.844  -0.907  0.00  0.00    +0.000 HD
ENDBRANCH  14  17
ENDBRANCH   1  14
TORSDOF 6
