REMARK  Name = 6590
REMARK  4 active torsions:
REMARK  status: ('A' for Active; 'I' for Inactive)
REMARK    1  A    between atoms: O_1  and  C_6
REMARK    2  A    between atoms: C_3  and  C_4
REMARK    3  A    between atoms: C_3  and  C_5
REMARK    4  A    between atoms: C_3  and  C_6
REMARK                            x       y       z     vdW  Elec       q    Type
REMARK                         _______ _______ _______ _____ _____    ______ ____
ROOT
ATOM      1  C   UNL     1       0.683  -0.216   0.362  0.00  0.00    +0.000 C 
ATOM      2  H   UNL     1       0.688  -0.686   1.354  0.00  0.00    +0.000 HD
ENDROOT
BRANCH   1   3
ATOM      3  C   UNL     1       1.277  -1.178  -0.659  0.00  0.00    +0.000 C 
ATOM      4  H   UNL     1       2.307  -1.441  -0.397  0.00  0.00    +0.000 HD
ATOM      5  H   UNL     1       1.280  -0.740  -1.663  0.00  0.00    +0.000 HD
ATOM      6  H   UNL     1       0.694  -2.104  -0.708  0.00  0.00    +0.000 HD
ENDBRANCH   1   3
BRANCH   1   7
ATOM      7  C   UNL     1       1.512   1.062   0.455  0.00  0.00    +0.000 C 
ATOM      8  H   UNL     1       1.568   1.575  -0.511  0.00  0.00    +0.000 HD
ATOM      9  H   UNL     1       2.534   0.841   0.782  0.00  0.00    +0.000 HD
ATOM     10  H   UNL     1       1.069   1.761   1.173  0.00  0.00    +0.000 HD
ENDBRANCH   1   7
BRANCH   1  12
ATOM     11  O   UNL     1      -1.121   1.024  -0.717  0.00  0.00    +0.000 OA
ATOM     12  C   UNL     1      -0.752   0.102  -0.005  0.00  0.00    +0.000 C 
BRANCH  12  13
ATOM     13  O   UNL     1      -1.600  -0.794   0.563  0.00  0.00    +0.000 OA
ATOM     14  H   UNL     1      -2.535  -0.608   0.334  0.00  0.00    +0.000 HD
ENDBRANCH  12  13
ENDBRANCH   1  12
TORSDOF 4
