REMARK  Name = 6549
REMARK  8 active torsions:
REMARK  status: ('A' for Active; 'I' for Inactive)
REMARK    1  A    between atoms: O_1  and  C_2
REMARK    2  A    between atoms: C_2  and  C_3
REMARK    3  A    between atoms: C_2  and  C_5
REMARK    4  A    between atoms: C_2  and  C_6
REMARK    5  A    between atoms: C_3  and  C_4
REMARK    6  A    between atoms: C_4  and  C_7
REMARK    7  A    between atoms: C_8  and  C_9
REMARK    8  A    between atoms: C_8  and  C_10
REMARK                            x       y       z     vdW  Elec       q    Type
REMARK                         _______ _______ _______ _____ _____    ______ ____
ROOT
ATOM      1  C   UNL     1       0.369  -0.715  -0.344  0.00  0.00    +0.000 C 
ATOM      2  H   UNL     1      -0.009  -0.315  -1.296  0.00  0.00    +0.000 HD
ATOM      3  H   UNL     1       0.233  -1.803  -0.429  0.00  0.00    +0.000 HD
ENDROOT
BRANCH   1   4
ATOM      4  C   UNL     1      -0.487  -0.180   0.809  0.00  0.00    +0.000 C 
ATOM      5  H   UNL     1      -0.390   0.906   0.909  0.00  0.00    +0.000 HD
ATOM      6  H   UNL     1      -0.137  -0.593   1.763  0.00  0.00    +0.000 HD
BRANCH   4   7
ATOM      7  C   UNL     1      -1.925  -0.586   0.647  0.00  0.00    +0.000 C 
ATOM      8  C   UNL     1      -2.902   0.089   0.011  0.00  0.00    +0.000 C 
ATOM      9  H   UNL     1      -2.183  -1.544   1.096  0.00  0.00    +0.000 HD
BRANCH   8  10
ATOM     10  C   UNL     1      -4.326  -0.373  -0.118  0.00  0.00    +0.000 C 
ATOM     11  H   UNL     1      -4.592  -0.503  -1.171  0.00  0.00    +0.000 HD
ATOM     12  H   UNL     1      -5.005   0.360   0.328  0.00  0.00    +0.000 HD
ATOM     13  H   UNL     1      -4.486  -1.330   0.389  0.00  0.00    +0.000 HD
ENDBRANCH   8  10
BRANCH   8  14
ATOM     14  C   UNL     1      -2.610   1.406  -0.657  0.00  0.00    +0.000 C 
ATOM     15  H   UNL     1      -3.127   2.214  -0.128  0.00  0.00    +0.000 HD
ATOM     16  H   UNL     1      -1.550   1.665  -0.711  0.00  0.00    +0.000 HD
ATOM     17  H   UNL     1      -2.976   1.388  -1.690  0.00  0.00    +0.000 HD
ENDBRANCH   8  14
ENDBRANCH   4   7
ENDBRANCH   1   4
BRANCH   1  18
ATOM     18  C   UNL     1       1.883  -0.412  -0.234  0.00  0.00    +0.000 C 
BRANCH  18  19
ATOM     19  C   UNL     1       2.141   1.080  -0.276  0.00  0.00    +0.000 C 
ATOM     20  C   UNL     1       2.841   1.811   0.601  0.00  0.00    +0.000 C 
ATOM     21  H   UNL     1       1.714   1.610  -1.126  0.00  0.00    +0.000 HD
ATOM     22  H   UNL     1       2.955   2.879   0.449  0.00  0.00    +0.000 HD
ATOM     23  H   UNL     1       3.310   1.379   1.476  0.00  0.00    +0.000 HD
ENDBRANCH  18  19
BRANCH  18  24
ATOM     24  C   UNL     1       2.507  -1.143   0.961  0.00  0.00    +0.000 C 
ATOM     25  H   UNL     1       2.288  -2.216   0.915  0.00  0.00    +0.000 HD
ATOM     26  H   UNL     1       3.601  -1.060   0.945  0.00  0.00    +0.000 HD
ATOM     27  H   UNL     1       2.148  -0.762   1.922  0.00  0.00    +0.000 HD
ENDBRANCH  18  24
BRANCH  18  28
ATOM     28  O   UNL     1       2.508  -0.977  -1.400  0.00  0.00    +0.000 OA
ATOM     29  H   UNL     1       2.107  -0.572  -2.188  0.00  0.00    +0.000 HD
ENDBRANCH  18  28
ENDBRANCH   1  18
TORSDOF 8
