REMARK  Name = 91604
REMARK  8 active torsions:
REMARK  status: ('A' for Active; 'I' for Inactive)
REMARK    1  A    between atoms: O_1  and  C_11
REMARK    2  A    between atoms: C_3  and  C_7
REMARK    3  A    between atoms: C_4  and  C_15
REMARK    4  A    between atoms: C_7  and  C_8
REMARK    5  A    between atoms: C_8  and  C_10
REMARK    6  A    between atoms: C_10  and  C_11
REMARK    7  A    between atoms: C_11  and  C_13
REMARK    8  A    between atoms: C_11  and  C_14
REMARK                            x       y       z     vdW  Elec       q    Type
REMARK                         _______ _______ _______ _____ _____    ______ ____
ROOT
ATOM      1  C   UNL     1       0.186  -2.186   0.368  0.00  0.00    +0.000 C 
ATOM      2  H   UNL     1       0.368  -2.418   1.425  0.00  0.00    +0.000 HD
ATOM      3  H   UNL     1       0.005  -3.147  -0.130  0.00  0.00    +0.000 HD
ENDROOT
BRANCH   1   4
ATOM      4  C   UNL     1      -1.025  -1.316   0.204  0.00  0.00    +0.000 C 
ATOM      5  C   UNL     1      -3.136   0.634  -0.233  0.00  0.00    +0.000 C 
ATOM      6  C   UNL     1      -1.389  -0.946  -1.210  0.00  0.00    +0.000 C 
ATOM      7  C   UNL     1      -2.795  -0.351  -1.351  0.00  0.00    +0.000 C 
ATOM      8  C   UNL     1      -2.935   0.014   1.153  0.00  0.00    +0.000 C 
ATOM      9  C   UNL     1      -1.739  -0.888   1.259  0.00  0.00    +0.000 C 
ATOM     10  H   UNL     1      -4.183   0.946  -0.331  0.00  0.00    +0.000 HD
ATOM     11  H   UNL     1      -0.663  -0.216  -1.589  0.00  0.00    +0.000 HD
ATOM     12  H   UNL     1      -1.325  -1.829  -1.856  0.00  0.00    +0.000 HD
ATOM     13  H   UNL     1      -2.887   0.128  -2.334  0.00  0.00    +0.000 HD
ATOM     14  H   UNL     1      -3.528  -1.169  -1.332  0.00  0.00    +0.000 HD
ATOM     15  H   UNL     1      -3.818  -0.592   1.398  0.00  0.00    +0.000 HD
ATOM     16  H   UNL     1      -2.872   0.787   1.928  0.00  0.00    +0.000 HD
ATOM     17  H   UNL     1      -1.453  -1.191   2.263  0.00  0.00    +0.000 HD
BRANCH   5  19
ATOM     18  O   UNL     1      -1.571   2.316   0.484  0.00  0.00    +0.000 OA
ATOM     19  C   UNL     1      -2.323   1.888  -0.386  0.00  0.00    +0.000 C 
ATOM     20  H   UNL     1      -2.450   2.432  -1.338  0.00  0.00    +0.000 HD
ENDBRANCH   5  19
ENDBRANCH   1   4
BRANCH   1  21
ATOM     21  C   UNL     1       1.438  -1.540  -0.231  0.00  0.00    +0.000 C 
ATOM     22  H   UNL     1       1.318  -1.398  -1.310  0.00  0.00    +0.000 HD
ATOM     23  H   UNL     1       2.268  -2.243  -0.100  0.00  0.00    +0.000 HD
BRANCH  21  24
ATOM     24  C   UNL     1       1.762  -0.213   0.468  0.00  0.00    +0.000 C 
ATOM     25  H   UNL     1       0.933   0.495   0.352  0.00  0.00    +0.000 HD
ATOM     26  H   UNL     1       1.859  -0.419   1.542  0.00  0.00    +0.000 HD
BRANCH  24  27
ATOM     27  C   UNL     1       3.056   0.468  -0.021  0.00  0.00    +0.000 C 
BRANCH  27  28
ATOM     28  C   UNL     1       2.987   0.869  -1.496  0.00  0.00    +0.000 C 
ATOM     29  H   UNL     1       2.899  -0.004  -2.151  0.00  0.00    +0.000 HD
ATOM     30  H   UNL     1       2.142   1.537  -1.691  0.00  0.00    +0.000 HD
ATOM     31  H   UNL     1       3.908   1.379  -1.801  0.00  0.00    +0.000 HD
ENDBRANCH  27  28
BRANCH  27  32
ATOM     32  C   UNL     1       3.345   1.701   0.842  0.00  0.00    +0.000 C 
ATOM     33  H   UNL     1       2.549   2.448   0.760  0.00  0.00    +0.000 HD
ATOM     34  H   UNL     1       4.292   2.169   0.548  0.00  0.00    +0.000 HD
ATOM     35  H   UNL     1       3.455   1.423   1.897  0.00  0.00    +0.000 HD
ENDBRANCH  27  32
BRANCH  27  36
ATOM     36  O   UNL     1       4.139  -0.449   0.149  0.00  0.00    +0.000 OA
ATOM     37  H   UNL     1       4.087  -1.123  -0.550  0.00  0.00    +0.000 HD
ENDBRANCH  27  36
ENDBRANCH  24  27
ENDBRANCH  21  24
ENDBRANCH   1  21
TORSDOF 8
