REMARK  Name = 16666
REMARK  5 active torsions:
REMARK  status: ('A' for Active; 'I' for Inactive)
REMARK    1  A    between atoms: O_1  and  C_3
REMARK    2  A    between atoms: C_2  and  C_8
REMARK    3  A    between atoms: C_5  and  C_9
REMARK    4  A    between atoms: C_8  and  C_10
REMARK    5  A    between atoms: C_8  and  C_11
REMARK                            x       y       z     vdW  Elec       q    Type
REMARK                         _______ _______ _______ _____ _____    ______ ____
ROOT
ATOM      1  C   UNL     1       0.706  -0.035   0.428  0.00  0.00    +0.000 C 
ATOM      2  C   UNL     1      -0.070   1.157  -0.156  0.00  0.00    +0.000 C 
ATOM      3  C   UNL     1       0.119  -1.364  -0.067  0.00  0.00    +0.000 C 
ATOM      4  C   UNL     1      -2.149  -0.282  -0.374  0.00  0.00    +0.000 C 
ATOM      5  C   UNL     1      -1.571   1.045   0.126  0.00  0.00    +0.000 C 
ATOM      6  C   UNL     1      -1.377  -1.467   0.220  0.00  0.00    +0.000 C 
ATOM      7  H   UNL     1       0.611   0.001   1.523  0.00  0.00    +0.000 HD
ATOM      8  H   UNL     1       0.051   1.237  -1.239  0.00  0.00    +0.000 HD
ATOM      9  H   UNL     1       0.606  -2.217   0.416  0.00  0.00    +0.000 HD
ATOM     10  H   UNL     1       0.246  -1.486  -1.147  0.00  0.00    +0.000 HD
ATOM     11  H   UNL     1      -2.048  -0.315  -1.467  0.00  0.00    +0.000 HD
ATOM     12  H   UNL     1      -2.091   1.889  -0.344  0.00  0.00    +0.000 HD
ATOM     13  H   UNL     1      -1.751   1.154   1.204  0.00  0.00    +0.000 HD
ATOM     14  H   UNL     1      -1.761  -2.407  -0.193  0.00  0.00    +0.000 HD
ATOM     15  H   UNL     1      -1.534  -1.510   1.305  0.00  0.00    +0.000 HD
ENDROOT
BRANCH   4  16
ATOM     16  C   UNL     1      -3.636  -0.384  -0.038  0.00  0.00    +0.000 C 
ATOM     17  H   UNL     1      -4.193   0.445  -0.487  0.00  0.00    +0.000 HD
ATOM     18  H   UNL     1      -4.057  -1.319  -0.423  0.00  0.00    +0.000 HD
ATOM     19  H   UNL     1      -3.803  -0.358   1.044  0.00  0.00    +0.000 HD
ENDBRANCH   4  16
BRANCH   2  20
ATOM     20  O   UNL     1       0.417   2.366   0.421  0.00  0.00    +0.000 OA
ATOM     21  H   UNL     1       0.287   2.313   1.384  0.00  0.00    +0.000 HD
ENDBRANCH   2  20
BRANCH   1  22
ATOM     22  C   UNL     1       2.196   0.048   0.087  0.00  0.00    +0.000 C 
ATOM     23  H   UNL     1       2.599   0.999   0.458  0.00  0.00    +0.000 HD
BRANCH  22  24
ATOM     24  C   UNL     1       2.964  -1.076   0.777  0.00  0.00    +0.000 C 
ATOM     25  H   UNL     1       2.772  -2.057   0.332  0.00  0.00    +0.000 HD
ATOM     26  H   UNL     1       4.042  -0.897   0.690  0.00  0.00    +0.000 HD
ATOM     27  H   UNL     1       2.727  -1.124   1.845  0.00  0.00    +0.000 HD
ENDBRANCH  22  24
BRANCH  22  28
ATOM     28  C   UNL     1       2.401  -0.007  -1.424  0.00  0.00    +0.000 C 
ATOM     29  H   UNL     1       2.102  -0.957  -1.874  0.00  0.00    +0.000 HD
ATOM     30  H   UNL     1       3.472   0.098  -1.640  0.00  0.00    +0.000 HD
ATOM     31  H   UNL     1       1.913   0.811  -1.959  0.00  0.00    +0.000 HD
ENDBRANCH  22  28
ENDBRANCH   1  22
TORSDOF 5
