REMARK  Name = 15606
REMARK  10 active torsions:
REMARK  status: ('A' for Active; 'I' for Inactive)
REMARK    1  A    between atoms: O_1  and  C_11
REMARK    2  A    between atoms: O_1  and  C_12
REMARK    3  A    between atoms: C_3  and  C_4
REMARK    4  A    between atoms: C_3  and  C_5
REMARK    5  A    between atoms: C_4  and  C_6
REMARK    6  A    between atoms: C_5  and  C_7
REMARK    7  A    between atoms: C_6  and  C_8
REMARK    8  A    between atoms: C_7  and  C_9
REMARK    9  A    between atoms: C_8  and  C_10
REMARK   10  A    between atoms: C_9  and  C_11
REMARK                            x       y       z     vdW  Elec       q    Type
REMARK                         _______ _______ _______ _____ _____    ______ ____
ROOT
ATOM      1  C   UNL     1       1.534  -0.277   0.008  0.00  0.00    +0.000 C 
ATOM      2  H   UNL     1       1.520  -0.945   0.877  0.00  0.00    +0.000 HD
ATOM      3  H   UNL     1       1.493  -0.916  -0.883  0.00  0.00    +0.000 HD
ENDROOT
BRANCH   1   4
ATOM      4  C   UNL     1       2.852   0.503  -0.001  0.00  0.00    +0.000 C 
ATOM      5  H   UNL     1       2.861   1.186  -0.860  0.00  0.00    +0.000 HD
ATOM      6  H   UNL     1       2.899   1.128   0.899  0.00  0.00    +0.000 HD
BRANCH   4   7
ATOM      7  C   UNL     1       4.091  -0.394  -0.060  0.00  0.00    +0.000 C 
ATOM      8  H   UNL     1       4.074  -0.983  -0.985  0.00  0.00    +0.000 HD
ATOM      9  H   UNL     1       4.066  -1.103   0.776  0.00  0.00    +0.000 HD
BRANCH   7  10
ATOM     10  C   UNL     1       5.376   0.432   0.007  0.00  0.00    +0.000 C 
ATOM     11  H   UNL     1       5.385   1.036   0.922  0.00  0.00    +0.000 HD
ATOM     12  H   UNL     1       5.417   1.126  -0.840  0.00  0.00    +0.000 HD
BRANCH  10  13
ATOM     13  C   UNL     1       6.610  -0.456  -0.012  0.00  0.00    +0.000 C 
ATOM     14  H   UNL     1       6.649  -1.053  -0.929  0.00  0.00    +0.000 HD
ATOM     15  H   UNL     1       6.616  -1.139   0.844  0.00  0.00    +0.000 HD
ATOM     16  H   UNL     1       7.517   0.154   0.035  0.00  0.00    +0.000 HD
ENDBRANCH  10  13
ENDBRANCH   7  10
ENDBRANCH   4   7
ENDBRANCH   1   4
BRANCH   1  17
ATOM     17  C   UNL     1       0.296   0.622   0.041  0.00  0.00    +0.000 C 
ATOM     18  H   UNL     1       0.322   1.254   0.936  0.00  0.00    +0.000 HD
ATOM     19  H   UNL     1       0.305   1.290  -0.829  0.00  0.00    +0.000 HD
BRANCH  17  20
ATOM     20  C   UNL     1      -0.991  -0.210   0.035  0.00  0.00    +0.000 C 
ATOM     21  H   UNL     1      -1.001  -0.872   0.911  0.00  0.00    +0.000 HD
ATOM     22  H   UNL     1      -1.000  -0.862  -0.848  0.00  0.00    +0.000 HD
BRANCH  20  23
ATOM     23  C   UNL     1      -2.247   0.658   0.037  0.00  0.00    +0.000 C 
ATOM     24  H   UNL     1      -2.262   1.283   0.937  0.00  0.00    +0.000 HD
ATOM     25  H   UNL     1      -2.244   1.306  -0.846  0.00  0.00    +0.000 HD
BRANCH  23  27
ATOM     26  O   UNL     1      -3.534  -1.384   0.033  0.00  0.00    +0.000 OA
ATOM     27  C   UNL     1      -3.515  -0.160   0.013  0.00  0.00    +0.000 C 
BRANCH  27  28
ATOM     28  O   UNL     1      -4.601   0.663  -0.036  0.00  0.00    +0.000 OA
BRANCH  28  29
ATOM     29  C   UNL     1      -5.871   0.004  -0.066  0.00  0.00    +0.000 C 
ATOM     30  H   UNL     1      -5.951  -0.624  -0.958  0.00  0.00    +0.000 HD
ATOM     31  H   UNL     1      -6.651   0.769  -0.103  0.00  0.00    +0.000 HD
ATOM     32  H   UNL     1      -6.010  -0.594   0.841  0.00  0.00    +0.000 HD
ENDBRANCH  28  29
ENDBRANCH  27  28
ENDBRANCH  23  27
ENDBRANCH  20  23
ENDBRANCH  17  20
ENDBRANCH   1  17
TORSDOF 10
