REMARK  Name = 8050
REMARK  11 active torsions:
REMARK  status: ('A' for Active; 'I' for Inactive)
REMARK    1  A    between atoms: O_1  and  C_12
REMARK    2  A    between atoms: O_1  and  C_13
REMARK    3  A    between atoms: C_3  and  C_4
REMARK    4  A    between atoms: C_3  and  C_5
REMARK    5  A    between atoms: C_4  and  C_6
REMARK    6  A    between atoms: C_5  and  C_7
REMARK    7  A    between atoms: C_6  and  C_8
REMARK    8  A    between atoms: C_7  and  C_9
REMARK    9  A    between atoms: C_8  and  C_10
REMARK   10  A    between atoms: C_9  and  C_11
REMARK   11  A    between atoms: C_10  and  C_12
REMARK                            x       y       z     vdW  Elec       q    Type
REMARK                         _______ _______ _______ _____ _____    ______ ____
ROOT
ATOM      1  C   UNL     1       0.916   0.324   0.035  0.00  0.00    +0.000 C 
ATOM      2  H   UNL     1       0.887   0.974   0.918  0.00  0.00    +0.000 HD
ATOM      3  H   UNL     1       0.897   0.976  -0.847  0.00  0.00    +0.000 HD
ENDROOT
BRANCH   1   4
ATOM      4  C   UNL     1       2.212  -0.491   0.040  0.00  0.00    +0.000 C 
ATOM      5  H   UNL     1       2.245  -1.129   0.931  0.00  0.00    +0.000 HD
ATOM      6  H   UNL     1       2.234  -1.153  -0.834  0.00  0.00    +0.000 HD
BRANCH   4   7
ATOM      7  C   UNL     1       3.440   0.422   0.018  0.00  0.00    +0.000 C 
ATOM      8  H   UNL     1       3.421   1.075   0.899  0.00  0.00    +0.000 HD
ATOM      9  H   UNL     1       3.389   1.075  -0.862  0.00  0.00    +0.000 HD
BRANCH   7  10
ATOM     10  C   UNL     1       4.766  -0.343  -0.009  0.00  0.00    +0.000 C 
ATOM     11  H   UNL     1       4.780  -1.010  -0.880  0.00  0.00    +0.000 HD
ATOM     12  H   UNL     1       4.824  -0.983   0.880  0.00  0.00    +0.000 HD
BRANCH  10  13
ATOM     13  C   UNL     1       5.993   0.569  -0.057  0.00  0.00    +0.000 C 
ATOM     14  H   UNL     1       5.973   1.171  -0.972  0.00  0.00    +0.000 HD
ATOM     15  H   UNL     1       5.972   1.264   0.791  0.00  0.00    +0.000 HD
BRANCH  13  16
ATOM     16  C   UNL     1       7.283  -0.235  -0.009  0.00  0.00    +0.000 C 
ATOM     17  H   UNL     1       7.347  -0.822   0.913  0.00  0.00    +0.000 HD
ATOM     18  H   UNL     1       8.148   0.434  -0.046  0.00  0.00    +0.000 HD
ATOM     19  H   UNL     1       7.348  -0.922  -0.859  0.00  0.00    +0.000 HD
ENDBRANCH  13  16
ENDBRANCH  10  13
ENDBRANCH   7  10
ENDBRANCH   4   7
ENDBRANCH   1   4
BRANCH   1  20
ATOM     20  C   UNL     1      -0.313  -0.586   0.024  0.00  0.00    +0.000 C 
ATOM     21  H   UNL     1      -0.273  -1.250  -0.847  0.00  0.00    +0.000 HD
ATOM     22  H   UNL     1      -0.304  -1.223   0.917  0.00  0.00    +0.000 HD
BRANCH  20  23
ATOM     23  C   UNL     1      -1.607   0.228  -0.015  0.00  0.00    +0.000 C 
ATOM     24  H   UNL     1      -1.622   0.853  -0.916  0.00  0.00    +0.000 HD
ATOM     25  H   UNL     1      -1.633   0.911   0.844  0.00  0.00    +0.000 HD
BRANCH  23  26
ATOM     26  C   UNL     1      -2.833  -0.678   0.009  0.00  0.00    +0.000 C 
ATOM     27  H   UNL     1      -2.824  -1.301   0.910  0.00  0.00    +0.000 HD
ATOM     28  H   UNL     1      -2.836  -1.323  -0.877  0.00  0.00    +0.000 HD
BRANCH  26  30
ATOM     29  O   UNL     1      -4.119   1.364   0.023  0.00  0.00    +0.000 OA
ATOM     30  C   UNL     1      -4.099   0.140   0.011  0.00  0.00    +0.000 C 
BRANCH  30  31
ATOM     31  O   UNL     1      -5.185  -0.685  -0.024  0.00  0.00    +0.000 OA
BRANCH  31  32
ATOM     32  C   UNL     1      -6.456  -0.028  -0.046  0.00  0.00    +0.000 C 
ATOM     33  H   UNL     1      -6.545   0.594  -0.942  0.00  0.00    +0.000 HD
ATOM     34  H   UNL     1      -6.587   0.575   0.858  0.00  0.00    +0.000 HD
ATOM     35  H   UNL     1      -7.234  -0.795  -0.073  0.00  0.00    +0.000 HD
ENDBRANCH  31  32
ENDBRANCH  30  31
ENDBRANCH  26  30
ENDBRANCH  23  26
ENDBRANCH  20  23
ENDBRANCH   1  20
TORSDOF 11
