REMARK  Name = 82336
REMARK  6 active torsions:
REMARK  status: ('A' for Active; 'I' for Inactive)
REMARK    1  A    between atoms: O_1  and  C_12
REMARK    2  A    between atoms: O_1  and  C_13
REMARK    3  A    between atoms: N_3  and  C_4
REMARK    4  A    between atoms: N_3  and  C_8
REMARK    5  A    between atoms: N_3  and  C_9
REMARK    6  A    between atoms: C_5  and  C_12
REMARK                            x       y       z     vdW  Elec       q    Type
REMARK                         _______ _______ _______ _____ _____    ______ ____
ROOT
ATOM      1  C   UNL     1      -0.789  -0.585   0.025  0.00  0.00    +0.000 A 
ATOM      2  C   UNL     1      -0.129   0.639   0.135  0.00  0.00    +0.000 A 
ATOM      3  C   UNL     1      -2.175  -0.619  -0.127  0.00  0.00    +0.000 A 
ATOM      4  C   UNL     1      -0.855   1.829   0.094  0.00  0.00    +0.000 A 
ATOM      5  C   UNL     1      -2.901   0.571  -0.168  0.00  0.00    +0.000 A 
ATOM      6  C   UNL     1      -2.241   1.795  -0.057  0.00  0.00    +0.000 A 
ATOM      7  H   UNL     1      -2.707  -1.563  -0.208  0.00  0.00    +0.000 HD
ATOM      8  H   UNL     1      -0.352   2.789   0.179  0.00  0.00    +0.000 HD
ATOM      9  H   UNL     1      -3.981   0.545  -0.284  0.00  0.00    +0.000 HD
ATOM     10  H   UNL     1      -2.807   2.722  -0.089  0.00  0.00    +0.000 HD
ENDROOT
BRANCH   2  12
ATOM     11  O   UNL     1       1.901   0.709   1.385  0.00  0.00    +0.000 OA
ATOM     12  C   UNL     1       1.318   0.708   0.294  0.00  0.00    +0.000 C 
BRANCH  12  13
ATOM     13  O   UNL     1       1.952   0.770  -0.916  0.00  0.00    +0.000 OA
BRANCH  13  14
ATOM     14  C   UNL     1       3.381   0.841  -0.892  0.00  0.00    +0.000 C 
ATOM     15  H   UNL     1       3.794  -0.052  -0.414  0.00  0.00    +0.000 HD
ATOM     16  H   UNL     1       3.706   1.745  -0.367  0.00  0.00    +0.000 HD
ATOM     17  H   UNL     1       3.738   0.885  -1.924  0.00  0.00    +0.000 HD
ENDBRANCH  13  14
ENDBRANCH  12  13
ENDBRANCH   2  12
BRANCH   1  18
ATOM     18  N   UNL     1      -0.072  -1.802   0.064  0.00  0.00    +0.000 N 
BRANCH  18  19
ATOM     19  C   UNL     1      -0.118  -2.715  -1.059  0.00  0.00    +0.000 C 
ATOM     20  H   UNL     1       0.001  -2.177  -2.006  0.00  0.00    +0.000 HD
ATOM     21  H   UNL     1      -1.070  -3.256  -1.081  0.00  0.00    +0.000 HD
ATOM     22  H   UNL     1       0.686  -3.456  -1.001  0.00  0.00    +0.000 HD
ENDBRANCH  18  19
BRANCH  18  23
ATOM     23  C   UNL     1       0.728  -2.143   1.222  0.00  0.00    +0.000 C 
ATOM     24  H   UNL     1       0.595  -3.201   1.474  0.00  0.00    +0.000 HD
ATOM     25  H   UNL     1       0.441  -1.567   2.109  0.00  0.00    +0.000 HD
ATOM     26  H   UNL     1       1.792  -1.983   1.019  0.00  0.00    +0.000 HD
ENDBRANCH  18  23
ENDBRANCH   1  18
TORSDOF 6
