REMARK  Name = 8091
REMARK  9 active torsions:
REMARK  status: ('A' for Active; 'I' for Inactive)
REMARK    1  A    between atoms: O_1  and  C_10
REMARK    2  A    between atoms: O_1  and  C_11
REMARK    3  A    between atoms: C_3  and  C_4
REMARK    4  A    between atoms: C_3  and  C_5
REMARK    5  A    between atoms: C_4  and  C_6
REMARK    6  A    between atoms: C_5  and  C_7
REMARK    7  A    between atoms: C_6  and  C_8
REMARK    8  A    between atoms: C_7  and  C_9
REMARK    9  A    between atoms: C_8  and  C_10
REMARK                            x       y       z     vdW  Elec       q    Type
REMARK                         _______ _______ _______ _____ _____    ______ ____
ROOT
ATOM      1  C   UNL     1       0.925   0.526   0.033  0.00  0.00    +0.000 C 
ATOM      2  H   UNL     1       0.941   1.142   0.940  0.00  0.00    +0.000 HD
ATOM      3  H   UNL     1       0.971   1.210  -0.824  0.00  0.00    +0.000 HD
ENDROOT
BRANCH   1   4
ATOM      4  C   UNL     1       2.143  -0.400   0.017  0.00  0.00    +0.000 C 
ATOM      5  H   UNL     1       2.107  -1.072   0.883  0.00  0.00    +0.000 HD
ATOM      6  H   UNL     1       2.113  -1.028  -0.882  0.00  0.00    +0.000 HD
BRANCH   4   7
ATOM      7  C   UNL     1       3.448   0.398   0.039  0.00  0.00    +0.000 C 
ATOM      8  H   UNL     1       3.489   1.012   0.946  0.00  0.00    +0.000 HD
ATOM      9  H   UNL     1       3.474   1.083  -0.817  0.00  0.00    +0.000 HD
BRANCH   7  10
ATOM     10  C   UNL     1       4.665  -0.526  -0.011  0.00  0.00    +0.000 C 
ATOM     11  H   UNL     1       4.620  -1.155  -0.908  0.00  0.00    +0.000 HD
ATOM     12  H   UNL     1       4.658  -1.198   0.856  0.00  0.00    +0.000 HD
BRANCH  10  13
ATOM     13  C   UNL     1       5.964   0.263  -0.022  0.00  0.00    +0.000 C 
ATOM     14  H   UNL     1       6.056   0.881   0.877  0.00  0.00    +0.000 HD
ATOM     15  H   UNL     1       6.016   0.920  -0.897  0.00  0.00    +0.000 HD
ATOM     16  H   UNL     1       6.821  -0.417  -0.057  0.00  0.00    +0.000 HD
ENDBRANCH  10  13
ENDBRANCH   7  10
ENDBRANCH   4   7
ENDBRANCH   1   4
BRANCH   1  17
ATOM     17  C   UNL     1      -0.381  -0.273  -0.024  0.00  0.00    +0.000 C 
ATOM     18  H   UNL     1      -0.387  -0.909  -0.918  0.00  0.00    +0.000 HD
ATOM     19  H   UNL     1      -0.430  -0.949   0.839  0.00  0.00    +0.000 HD
BRANCH  17  20
ATOM     20  C   UNL     1      -1.616   0.627  -0.037  0.00  0.00    +0.000 C 
ATOM     21  H   UNL     1      -1.601   1.277   0.845  0.00  0.00    +0.000 HD
ATOM     22  H   UNL     1      -1.602   1.253  -0.937  0.00  0.00    +0.000 HD
BRANCH  20  24
ATOM     23  O   UNL     1      -3.012  -1.365   0.006  0.00  0.00    +0.000 OA
ATOM     24  C   UNL     1      -2.917  -0.145  -0.022  0.00  0.00    +0.000 C 
BRANCH  24  25
ATOM     25  O   UNL     1      -3.957   0.739  -0.012  0.00  0.00    +0.000 OA
BRANCH  25  26
ATOM     26  C   UNL     1      -5.263   0.154   0.034  0.00  0.00    +0.000 C 
ATOM     27  H   UNL     1      -5.998   0.964   0.037  0.00  0.00    +0.000 HD
ATOM     28  H   UNL     1      -5.383  -0.432   0.950  0.00  0.00    +0.000 HD
ATOM     29  H   UNL     1      -5.430  -0.469  -0.849  0.00  0.00    +0.000 HD
ENDBRANCH  25  26
ENDBRANCH  24  25
ENDBRANCH  20  24
ENDBRANCH  17  20
ENDBRANCH   1  17
TORSDOF 9
