REMARK  Name = 7826
REMARK  8 active torsions:
REMARK  status: ('A' for Active; 'I' for Inactive)
REMARK    1  A    between atoms: O_1  and  C_9
REMARK    2  A    between atoms: O_1  and  C_10
REMARK    3  A    between atoms: C_3  and  C_4
REMARK    4  A    between atoms: C_3  and  C_5
REMARK    5  A    between atoms: C_4  and  C_6
REMARK    6  A    between atoms: C_5  and  C_7
REMARK    7  A    between atoms: C_6  and  C_8
REMARK    8  A    between atoms: C_7  and  C_9
REMARK                            x       y       z     vdW  Elec       q    Type
REMARK                         _______ _______ _______ _____ _____    ______ ____
ROOT
ATOM      1  C   UNL     1      -1.513  -0.580   0.003  0.00  0.00    +0.000 C 
ATOM      2  H   UNL     1      -1.531  -1.252  -0.864  0.00  0.00    +0.000 HD
ATOM      3  H   UNL     1      -1.534  -1.209   0.901  0.00  0.00    +0.000 HD
ENDROOT
BRANCH   1   4
ATOM      4  C   UNL     1      -2.746   0.325  -0.019  0.00  0.00    +0.000 C 
ATOM      5  H   UNL     1      -2.716   1.010   0.837  0.00  0.00    +0.000 HD
ATOM      6  H   UNL     1      -2.732   0.941  -0.926  0.00  0.00    +0.000 HD
BRANCH   4   7
ATOM      7  C   UNL     1      -4.037  -0.493   0.026  0.00  0.00    +0.000 C 
ATOM      8  H   UNL     1      -4.066  -1.091   0.944  0.00  0.00    +0.000 HD
ATOM      9  H   UNL     1      -4.064  -1.192  -0.818  0.00  0.00    +0.000 HD
BRANCH   7  10
ATOM     10  C   UNL     1      -5.265   0.401  -0.028  0.00  0.00    +0.000 C 
ATOM     11  H   UNL     1      -5.284   1.093   0.820  0.00  0.00    +0.000 HD
ATOM     12  H   UNL     1      -6.176  -0.204   0.006  0.00  0.00    +0.000 HD
ATOM     13  H   UNL     1      -5.282   0.989  -0.952  0.00  0.00    +0.000 HD
ENDBRANCH   7  10
ENDBRANCH   4   7
ENDBRANCH   1   4
BRANCH   1  14
ATOM     14  C   UNL     1      -0.220   0.242  -0.014  0.00  0.00    +0.000 C 
ATOM     15  H   UNL     1      -0.193   0.865  -0.917  0.00  0.00    +0.000 HD
ATOM     16  H   UNL     1      -0.214   0.931   0.840  0.00  0.00    +0.000 HD
BRANCH  14  17
ATOM     17  C   UNL     1       1.030  -0.635   0.035  0.00  0.00    +0.000 C 
ATOM     18  H   UNL     1       1.016  -1.244   0.947  0.00  0.00    +0.000 HD
ATOM     19  H   UNL     1       1.039  -1.302  -0.835  0.00  0.00    +0.000 HD
BRANCH  17  21
ATOM     20  O   UNL     1       2.391   1.381   0.030  0.00  0.00    +0.000 OA
ATOM     21  C   UNL     1       2.317   0.160   0.029  0.00  0.00    +0.000 C 
BRANCH  21  22
ATOM     22  O   UNL     1       3.374  -0.705  -0.010  0.00  0.00    +0.000 OA
BRANCH  22  23
ATOM     23  C   UNL     1       4.668  -0.096  -0.051  0.00  0.00    +0.000 C 
ATOM     24  H   UNL     1       4.771   0.514  -0.953  0.00  0.00    +0.000 HD
ATOM     25  H   UNL     1       5.417  -0.892  -0.079  0.00  0.00    +0.000 HD
ATOM     26  H   UNL     1       4.831   0.508   0.846  0.00  0.00    +0.000 HD
ENDBRANCH  22  23
ENDBRANCH  21  22
ENDBRANCH  17  21
ENDBRANCH  14  17
ENDBRANCH   1  14
TORSDOF 8
