REMARK  Name = 31289
REMARK  8 active torsions:
REMARK  status: ('A' for Active; 'I' for Inactive)
REMARK    1  A    between atoms: C_2  and  C_3
REMARK    2  A    between atoms: C_2  and  C_4
REMARK    3  A    between atoms: C_3  and  C_5
REMARK    4  A    between atoms: C_4  and  C_6
REMARK    5  A    between atoms: C_5  and  C_7
REMARK    6  A    between atoms: C_6  and  C_8
REMARK    7  A    between atoms: C_7  and  C_9
REMARK    8  A    between atoms: C_8  and  C_10
REMARK                            x       y       z     vdW  Elec       q    Type
REMARK                         _______ _______ _______ _____ _____    ______ ____
ROOT
ATOM      1  C   UNL     1       0.490  -0.272  -0.044  0.00  0.00    +0.000 C 
ATOM      2  H   UNL     1       0.451  -0.878  -0.957  0.00  0.00    +0.000 HD
ATOM      3  H   UNL     1       0.444  -0.964   0.806  0.00  0.00    +0.000 HD
ENDROOT
BRANCH   1   4
ATOM      4  C   UNL     1       1.809   0.502   0.001  0.00  0.00    +0.000 C 
ATOM      5  H   UNL     1       1.857   1.185  -0.856  0.00  0.00    +0.000 HD
ATOM      6  H   UNL     1       1.831   1.125   0.904  0.00  0.00    +0.000 HD
BRANCH   4   7
ATOM      7  C   UNL     1       3.046  -0.401  -0.008  0.00  0.00    +0.000 C 
ATOM      8  H   UNL     1       2.990  -1.096   0.839  0.00  0.00    +0.000 HD
ATOM      9  H   UNL     1       3.031  -1.011  -0.920  0.00  0.00    +0.000 HD
BRANCH   7  10
ATOM     10  C   UNL     1       4.363   0.373   0.062  0.00  0.00    +0.000 C 
ATOM     11  H   UNL     1       4.413   1.096  -0.760  0.00  0.00    +0.000 HD
ATOM     12  H   UNL     1       4.410   0.941   0.999  0.00  0.00    +0.000 HD
BRANCH  10  13
ATOM     13  C   UNL     1       5.560  -0.562  -0.023  0.00  0.00    +0.000 C 
ATOM     14  H   UNL     1       5.557  -1.118  -0.966  0.00  0.00    +0.000 HD
ATOM     15  H   UNL     1       6.491   0.009   0.032  0.00  0.00    +0.000 HD
ATOM     16  H   UNL     1       5.554  -1.282   0.802  0.00  0.00    +0.000 HD
ENDBRANCH  10  13
ENDBRANCH   7  10
ENDBRANCH   4   7
ENDBRANCH   1   4
BRANCH   1  17
ATOM     17  C   UNL     1      -0.711   0.676  -0.001  0.00  0.00    +0.000 C 
ATOM     18  H   UNL     1      -0.662   1.296   0.902  0.00  0.00    +0.000 HD
ATOM     19  H   UNL     1      -0.675   1.354  -0.862  0.00  0.00    +0.000 HD
BRANCH  17  20
ATOM     20  C   UNL     1      -2.032  -0.100  -0.013  0.00  0.00    +0.000 C 
ATOM     21  H   UNL     1      -2.071  -0.744  -0.900  0.00  0.00    +0.000 HD
ATOM     22  H   UNL     1      -2.073  -0.767   0.857  0.00  0.00    +0.000 HD
BRANCH  20  23
ATOM     23  C   UNL     1      -3.249   0.821  -0.005  0.00  0.00    +0.000 C 
ATOM     24  H   UNL     1      -3.235   1.461   0.884  0.00  0.00    +0.000 HD
ATOM     25  H   UNL     1      -3.233   1.470  -0.888  0.00  0.00    +0.000 HD
BRANCH  23  27
ATOM     26  O   UNL     1      -4.702  -1.128   0.042  0.00  0.00    +0.000 OA
ATOM     27  C   UNL     1      -4.572   0.090  -0.011  0.00  0.00    +0.000 C 
ATOM     28  H   UNL     1      -5.461   0.743  -0.055  0.00  0.00    +0.000 HD
ENDBRANCH  23  27
ENDBRANCH  20  23
ENDBRANCH  17  20
ENDBRANCH   1  17
TORSDOF 8
