REMARK  Name = 379
REMARK  8 active torsions:
REMARK  status: ('A' for Active; 'I' for Inactive)
REMARK    1  A    between atoms: O_1  and  C_10
REMARK    2  A    between atoms: C_3  and  C_4
REMARK    3  A    between atoms: C_3  and  C_5
REMARK    4  A    between atoms: C_4  and  C_6
REMARK    5  A    between atoms: C_5  and  C_7
REMARK    6  A    between atoms: C_6  and  C_8
REMARK    7  A    between atoms: C_7  and  C_9
REMARK    8  A    between atoms: C_8  and  C_10
REMARK                            x       y       z     vdW  Elec       q    Type
REMARK                         _______ _______ _______ _____ _____    ______ ____
ROOT
ATOM      1  C   UNL     1       1.647   0.398  -0.011  0.00  0.00    +0.000 C 
ATOM      2  H   UNL     1       1.628   1.060  -0.886  0.00  0.00    +0.000 HD
ATOM      3  H   UNL     1       1.608   1.044   0.875  0.00  0.00    +0.000 HD
ENDROOT
BRANCH   1   4
ATOM      4  C   UNL     1       0.398  -0.488  -0.033  0.00  0.00    +0.000 C 
ATOM      5  H   UNL     1       0.438  -1.130  -0.923  0.00  0.00    +0.000 HD
ATOM      6  H   UNL     1       0.433  -1.161   0.834  0.00  0.00    +0.000 HD
BRANCH   4   7
ATOM      7  C   UNL     1      -0.944   0.250  -0.022  0.00  0.00    +0.000 C 
ATOM      8  H   UNL     1      -0.977   0.917   0.849  0.00  0.00    +0.000 HD
ATOM      9  H   UNL     1      -1.003   0.896  -0.906  0.00  0.00    +0.000 HD
BRANCH   7  10
ATOM     10  C   UNL     1      -2.152  -0.685   0.011  0.00  0.00    +0.000 C 
ATOM     11  H   UNL     1      -2.119  -1.302   0.916  0.00  0.00    +0.000 HD
ATOM     12  H   UNL     1      -2.137  -1.338  -0.868  0.00  0.00    +0.000 HD
BRANCH  10  14
ATOM     13  O   UNL     1      -3.565   1.298  -0.002  0.00  0.00    +0.000 OA
ATOM     14  C   UNL     1      -3.456   0.080   0.009  0.00  0.00    +0.000 C 
BRANCH  14  15
ATOM     15  O   UNL     1      -4.524  -0.760   0.016  0.00  0.00    +0.000 OA
ATOM     16  H   UNL     1      -5.374  -0.270   0.012  0.00  0.00    +0.000 HD
ENDBRANCH  14  15
ENDBRANCH  10  14
ENDBRANCH   7  10
ENDBRANCH   4   7
ENDBRANCH   1   4
BRANCH   1  17
ATOM     17  C   UNL     1       2.956  -0.394  -0.001  0.00  0.00    +0.000 C 
ATOM     18  H   UNL     1       2.978  -1.056   0.874  0.00  0.00    +0.000 HD
ATOM     19  H   UNL     1       3.003  -1.032  -0.891  0.00  0.00    +0.000 HD
BRANCH  17  20
ATOM     20  C   UNL     1       4.167   0.540   0.029  0.00  0.00    +0.000 C 
ATOM     21  H   UNL     1       4.137   1.217  -0.832  0.00  0.00    +0.000 HD
ATOM     22  H   UNL     1       4.136   1.161   0.932  0.00  0.00    +0.000 HD
BRANCH  20  23
ATOM     23  C   UNL     1       5.472  -0.240   0.002  0.00  0.00    +0.000 C 
ATOM     24  H   UNL     1       5.549  -0.907   0.867  0.00  0.00    +0.000 HD
ATOM     25  H   UNL     1       6.324   0.446   0.025  0.00  0.00    +0.000 HD
ATOM     26  H   UNL     1       5.548  -0.846  -0.907  0.00  0.00    +0.000 HD
ENDBRANCH  20  23
ENDBRANCH  17  20
ENDBRANCH   1  17
TORSDOF 8
