REMARK  Name = 31244
REMARK  3 active torsions:
REMARK  status: ('A' for Active; 'I' for Inactive)
REMARK    1  A    between atoms: O_1  and  C_3
REMARK    2  A    between atoms: O_1  and  C_10
REMARK    3  A    between atoms: C_4  and  C_9
REMARK                            x       y       z     vdW  Elec       q    Type
REMARK                         _______ _______ _______ _____ _____    ______ ____
ROOT
ATOM      1  C   UNL     1      -1.411  -0.258   0.000  0.00  0.00    +0.000 A 
ATOM      2  C   UNL     1       1.378  -0.204  -0.000  0.00  0.00    +0.000 A 
ATOM      3  C   UNL     1      -0.690  -1.452   0.000  0.00  0.00    +0.000 A 
ATOM      4  C   UNL     1      -0.738   0.963   0.000  0.00  0.00    +0.000 A 
ATOM      5  C   UNL     1       0.704  -1.425  -0.000  0.00  0.00    +0.000 A 
ATOM      6  C   UNL     1       0.657   0.991   0.000  0.00  0.00    +0.000 A 
ATOM      7  H   UNL     1      -1.210  -2.406   0.000  0.00  0.00    +0.000 HD
ATOM      8  H   UNL     1      -1.235   1.927   0.000  0.00  0.00    +0.000 HD
ATOM      9  H   UNL     1       1.252  -2.364  -0.000  0.00  0.00    +0.000 HD
ATOM     10  H   UNL     1       1.162   1.953   0.000  0.00  0.00    +0.000 HD
ENDROOT
BRANCH   2  12
ATOM     11  O   UNL     1       3.486   0.872  -0.000  0.00  0.00    +0.000 OA
ATOM     12  C   UNL     1       2.832  -0.175   0.000  0.00  0.00    +0.000 C 
ATOM     13  H   UNL     1       3.346  -1.152   0.001  0.00  0.00    +0.000 HD
ENDBRANCH   2  12
BRANCH   1  14
ATOM     14  O   UNL     1      -2.772  -0.284  -0.000  0.00  0.00    +0.000 OA
BRANCH  14  15
ATOM     15  C   UNL     1      -3.446   0.973   0.000  0.00  0.00    +0.000 C 
ATOM     16  H   UNL     1      -3.232   1.544  -0.909  0.00  0.00    +0.000 HD
ATOM     17  H   UNL     1      -3.232   1.544   0.909  0.00  0.00    +0.000 HD
ATOM     18  H   UNL     1      -4.521   0.763  -0.000  0.00  0.00    +0.000 HD
ENDBRANCH  14  15
ENDBRANCH   1  14
TORSDOF 3
