REMARK  Name = 1032
REMARK  3 active torsions:
REMARK  status: ('A' for Active; 'I' for Inactive)
REMARK    1  A    between atoms: O_1  and  C_5
REMARK    2  A    between atoms: C_3  and  C_4
REMARK    3  A    between atoms: C_3  and  C_5
REMARK                            x       y       z     vdW  Elec       q    Type
REMARK                         _______ _______ _______ _____ _____    ______ ____
ROOT
ATOM      1  C   UNL     1       0.728  -0.760  -0.007  0.00  0.00    +0.000 C 
ATOM      2  H   UNL     1       0.720  -1.385  -0.906  0.00  0.00    +0.000 HD
ATOM      3  H   UNL     1       0.717  -1.404   0.879  0.00  0.00    +0.000 HD
ENDROOT
BRANCH   1   4
ATOM      4  C   UNL     1       1.986   0.090   0.005  0.00  0.00    +0.000 C 
ATOM      5  H   UNL     1       2.876  -0.547   0.002  0.00  0.00    +0.000 HD
ATOM      6  H   UNL     1       2.029   0.743  -0.873  0.00  0.00    +0.000 HD
ATOM      7  H   UNL     1       2.023   0.726   0.896  0.00  0.00    +0.000 HD
ENDBRANCH   1   4
BRANCH   1   9
ATOM      8  O   UNL     1      -0.570   1.303  -0.002  0.00  0.00    +0.000 OA
ATOM      9  C   UNL     1      -0.523   0.082  -0.001  0.00  0.00    +0.000 C 
BRANCH   9  10
ATOM     10  O   UNL     1      -1.621  -0.716   0.005  0.00  0.00    +0.000 OA
ATOM     11  H   UNL     1      -2.452  -0.194   0.008  0.00  0.00    +0.000 HD
ENDBRANCH   9  10
ENDBRANCH   1   9
TORSDOF 3
