REMARK  Name = 9261
REMARK  0 active torsions:
REMARK  status: ('A' for Active; 'I' for Inactive)
REMARK                            x       y       z     vdW  Elec       q    Type
REMARK                         _______ _______ _______ _____ _____    ______ ____
ROOT
ATOM      1  N   UNL     1       1.402  -0.001   0.000  0.00  0.00    +0.000 NA
ATOM      2  N   UNL     1      -1.402   0.001   0.000  0.00  0.00    +0.000 NA
ATOM      3  C   UNL     1       0.688  -1.144   0.000  0.00  0.00    +0.000 A 
ATOM      4  C   UNL     1      -0.690  -1.143  -0.000  0.00  0.00    +0.000 A 
ATOM      5  C   UNL     1       0.690   1.143   0.000  0.00  0.00    +0.000 A 
ATOM      6  C   UNL     1      -0.688   1.144  -0.000  0.00  0.00    +0.000 A 
ATOM      7  H   UNL     1       1.260  -2.063   0.000  0.00  0.00    +0.000 HD
ATOM      8  H   UNL     1      -1.263  -2.062   0.000  0.00  0.00    +0.000 HD
ATOM      9  H   UNL     1       1.263   2.062   0.000  0.00  0.00    +0.000 HD
ATOM     10  H   UNL     1      -1.260   2.063   0.000  0.00  0.00    +0.000 HD
ENDROOT
TORSDOF 0
