REMARK  Name = 1049
REMARK  0 active torsions:
REMARK  status: ('A' for Active; 'I' for Inactive)
REMARK                            x       y       z     vdW  Elec       q    Type
REMARK                         _______ _______ _______ _____ _____    ______ ____
ROOT
ATOM      1  N   UNL     1      -1.403  -0.000   0.000  0.00  0.00    +0.000 NA
ATOM      2  C   UNL     1       1.393   0.000   0.000  0.00  0.00    +0.000 A 
ATOM      3  C   UNL     1       0.695   1.203   0.000  0.00  0.00    +0.000 A 
ATOM      4  C   UNL     1       0.695  -1.202   0.000  0.00  0.00    +0.000 A 
ATOM      5  C   UNL     1      -0.690   1.149  -0.000  0.00  0.00    +0.000 A 
ATOM      6  C   UNL     1      -0.690  -1.149   0.000  0.00  0.00    +0.000 A 
ATOM      7  H   UNL     1       2.479   0.000  -0.000  0.00  0.00    +0.000 HD
ATOM      8  H   UNL     1       1.218   2.152   0.000  0.00  0.00    +0.000 HD
ATOM      9  H   UNL     1       1.218  -2.152  -0.000  0.00  0.00    +0.000 HD
ATOM     10  H   UNL     1      -1.281   2.058  -0.000  0.00  0.00    +0.000 HD
ATOM     11  H   UNL     1      -1.280  -2.059   0.000  0.00  0.00    +0.000 HD
ENDROOT
TORSDOF 0
