REMARK  Name = 5144
REMARK  2 active torsions:
REMARK  status: ('A' for Active; 'I' for Inactive)
REMARK    1  A    between atoms: C_3  and  C_7
REMARK    2  A    between atoms: C_7  and  C_11
REMARK                            x       y       z     vdW  Elec       q    Type
REMARK                         _______ _______ _______ _____ _____    ______ ____
ROOT
ATOM      1  O   UNL     1       2.012  -1.633  -0.169  0.00  0.00    +0.000 OA
ATOM      2  O   UNL     1       2.965   0.504   0.407  0.00  0.00    +0.000 OA
ATOM      3  C   UNL     1      -1.052   0.368  -0.428  0.00  0.00    +0.000 A 
ATOM      4  C   UNL     1       1.087  -0.636  -0.177  0.00  0.00    +0.000 A 
ATOM      5  C   UNL     1       1.631   0.585   0.151  0.00  0.00    +0.000 A 
ATOM      6  C   UNL     1      -0.254  -0.777  -0.473  0.00  0.00    +0.000 A 
ATOM      7  C   UNL     1      -0.496   1.615  -0.092  0.00  0.00    +0.000 A 
ATOM      8  C   UNL     1       0.864   1.731   0.203  0.00  0.00    +0.000 A 
ATOM      9  C   UNL     1       3.200  -0.904   0.202  0.00  0.00    +0.000 C 
ATOM     10  H   UNL     1      -0.666  -1.747  -0.729  0.00  0.00    +0.000 HD
ATOM     11  H   UNL     1      -1.122   2.504  -0.057  0.00  0.00    +0.000 HD
ATOM     12  H   UNL     1       1.296   2.691   0.463  0.00  0.00    +0.000 HD
ATOM     13  H   UNL     1       3.947  -1.023  -0.592  0.00  0.00    +0.000 HD
ATOM     14  H   UNL     1       3.600  -1.331   1.129  0.00  0.00    +0.000 HD
ENDROOT
BRANCH   3  15
ATOM     15  C   UNL     1      -2.508   0.269  -0.739  0.00  0.00    +0.000 C 
ATOM     16  H   UNL     1      -2.856   1.205  -1.195  0.00  0.00    +0.000 HD
ATOM     17  H   UNL     1      -2.667  -0.498  -1.508  0.00  0.00    +0.000 HD
BRANCH  15  18
ATOM     18  C   UNL     1      -3.352  -0.011   0.477  0.00  0.00    +0.000 C 
ATOM     19  C   UNL     1      -4.097  -1.111   0.638  0.00  0.00    +0.000 C 
ATOM     20  H   UNL     1      -3.364   0.742   1.261  0.00  0.00    +0.000 HD
ATOM     21  H   UNL     1      -4.689  -1.247   1.536  0.00  0.00    +0.000 HD
ATOM     22  H   UNL     1      -4.128  -1.890  -0.116  0.00  0.00    +0.000 HD
ENDBRANCH  15  18
ENDBRANCH   3  15
TORSDOF 2
