REMARK  Name = 6989
REMARK  5 active torsions:
REMARK  status: ('A' for Active; 'I' for Inactive)
REMARK    1  A    between atoms: O_1  and  C_6
REMARK    2  A    between atoms: C_2  and  C_3
REMARK    3  A    between atoms: C_2  and  C_4
REMARK    4  A    between atoms: C_2  and  C_5
REMARK    5  A    between atoms: C_8  and  C_11
REMARK                            x       y       z     vdW  Elec       q    Type
REMARK                         _______ _______ _______ _____ _____    ______ ____
ROOT
ATOM      1  C   UNL     1      -0.646  -0.041   0.000  0.00  0.00    +0.000 A 
ATOM      2  C   UNL     1       0.143   1.109  -0.000  0.00  0.00    +0.000 A 
ATOM      3  C   UNL     1      -0.043  -1.300   0.000  0.00  0.00    +0.000 A 
ATOM      4  C   UNL     1       2.136  -0.257   0.000  0.00  0.00    +0.000 A 
ATOM      5  C   UNL     1       1.534   1.002   0.000  0.00  0.00    +0.000 A 
ATOM      6  C   UNL     1       1.347  -1.407   0.000  0.00  0.00    +0.000 A 
ATOM      7  H   UNL     1      -0.636  -2.210   0.001  0.00  0.00    +0.000 HD
ATOM      8  H   UNL     1       2.143   1.902   0.002  0.00  0.00    +0.000 HD
ATOM      9  H   UNL     1       1.805  -2.393   0.002  0.00  0.00    +0.000 HD
ENDROOT
BRANCH   4  10
ATOM     10  C   UNL     1       3.623  -0.372  -0.000  0.00  0.00    +0.000 C 
ATOM     11  H   UNL     1       4.083   0.467  -0.533  0.00  0.00    +0.000 HD
ATOM     12  H   UNL     1       3.998  -0.385   1.028  0.00  0.00    +0.000 HD
ATOM     13  H   UNL     1       3.949  -1.288  -0.504  0.00  0.00    +0.000 HD
ENDBRANCH   4  10
BRANCH   2  14
ATOM     14  O   UNL     1      -0.429   2.346   0.000  0.00  0.00    +0.000 OA
ATOM     15  H   UNL     1      -1.164   2.351  -0.636  0.00  0.00    +0.000 HD
ENDBRANCH   2  14
BRANCH   1  16
ATOM     16  C   UNL     1      -2.135   0.055   0.000  0.00  0.00    +0.000 C 
ATOM     17  H   UNL     1      -2.466   1.098   0.013  0.00  0.00    +0.000 HD
BRANCH  16  18
ATOM     18  C   UNL     1      -2.764  -0.568   1.260  0.00  0.00    +0.000 C 
ATOM     19  H   UNL     1      -2.594  -1.648   1.314  0.00  0.00    +0.000 HD
ATOM     20  H   UNL     1      -3.847  -0.402   1.272  0.00  0.00    +0.000 HD
ATOM     21  H   UNL     1      -2.345  -0.117   2.167  0.00  0.00    +0.000 HD
ENDBRANCH  16  18
BRANCH  16  22
ATOM     22  C   UNL     1      -2.764  -0.567  -1.260  0.00  0.00    +0.000 C 
ATOM     23  H   UNL     1      -2.348  -0.113  -2.167  0.00  0.00    +0.000 HD
ATOM     24  H   UNL     1      -3.848  -0.404  -1.270  0.00  0.00    +0.000 HD
ATOM     25  H   UNL     1      -2.592  -1.647  -1.316  0.00  0.00    +0.000 HD
ENDBRANCH  16  22
ENDBRANCH   1  16
TORSDOF 5
