REMARK  Name = 8186
REMARK  10 active torsions:
REMARK  status: ('A' for Active; 'I' for Inactive)
REMARK    1  A    between atoms: C_2  and  C_3
REMARK    2  A    between atoms: C_2  and  C_4
REMARK    3  A    between atoms: C_3  and  C_5
REMARK    4  A    between atoms: C_4  and  C_6
REMARK    5  A    between atoms: C_5  and  C_7
REMARK    6  A    between atoms: C_6  and  C_8
REMARK    7  A    between atoms: C_7  and  C_9
REMARK    8  A    between atoms: C_8  and  C_10
REMARK    9  A    between atoms: C_9  and  C_11
REMARK   10  A    between atoms: C_10  and  C_12
REMARK                            x       y       z     vdW  Elec       q    Type
REMARK                         _______ _______ _______ _____ _____    ______ ____
ROOT
ATOM      1  C   UNL     1      -0.543   0.582  -0.003  0.00  0.00    +0.000 C 
ATOM      2  H   UNL     1      -0.590   1.236   0.876  0.00  0.00    +0.000 HD
ATOM      3  H   UNL     1      -0.568   1.234  -0.885  0.00  0.00    +0.000 HD
ENDROOT
BRANCH   1   4
ATOM      4  C   UNL     1      -1.772  -0.330  -0.020  0.00  0.00    +0.000 C 
ATOM      5  H   UNL     1      -1.722  -0.992  -0.893  0.00  0.00    +0.000 HD
ATOM      6  H   UNL     1      -1.750  -0.975   0.868  0.00  0.00    +0.000 HD
BRANCH   4   7
ATOM      7  C   UNL     1      -3.097   0.439  -0.049  0.00  0.00    +0.000 C 
ATOM      8  H   UNL     1      -3.124   1.136   0.797  0.00  0.00    +0.000 HD
ATOM      9  H   UNL     1      -3.136   1.048  -0.962  0.00  0.00    +0.000 HD
BRANCH   7  10
ATOM     10  C   UNL     1      -4.328  -0.468   0.009  0.00  0.00    +0.000 C 
ATOM     11  H   UNL     1      -4.306  -1.172  -0.832  0.00  0.00    +0.000 HD
ATOM     12  H   UNL     1      -4.298  -1.063   0.930  0.00  0.00    +0.000 HD
BRANCH  10  13
ATOM     13  C   UNL     1      -5.620   0.348  -0.036  0.00  0.00    +0.000 C 
ATOM     14  H   UNL     1      -5.665   0.924  -0.968  0.00  0.00    +0.000 HD
ATOM     15  H   UNL     1      -5.636   1.068   0.791  0.00  0.00    +0.000 HD
BRANCH  13  16
ATOM     16  C   UNL     1      -6.847  -0.545   0.060  0.00  0.00    +0.000 C 
ATOM     17  H   UNL     1      -6.849  -1.109   0.998  0.00  0.00    +0.000 HD
ATOM     18  H   UNL     1      -7.759   0.059   0.024  0.00  0.00    +0.000 HD
ATOM     19  H   UNL     1      -6.878  -1.258  -0.770  0.00  0.00    +0.000 HD
ENDBRANCH  13  16
ENDBRANCH  10  13
ENDBRANCH   7  10
ENDBRANCH   4   7
ENDBRANCH   1   4
BRANCH   1  20
ATOM     20  C   UNL     1       0.782  -0.188   0.014  0.00  0.00    +0.000 C 
ATOM     21  H   UNL     1       0.811  -0.829   0.904  0.00  0.00    +0.000 HD
ATOM     22  H   UNL     1       0.819  -0.854  -0.857  0.00  0.00    +0.000 HD
BRANCH  20  23
ATOM     23  C   UNL     1       2.013   0.722   0.005  0.00  0.00    +0.000 C 
ATOM     24  H   UNL     1       1.986   1.366  -0.882  0.00  0.00    +0.000 HD
ATOM     25  H   UNL     1       1.987   1.378   0.883  0.00  0.00    +0.000 HD
BRANCH  23  26
ATOM     26  C   UNL     1       3.305  -0.096   0.009  0.00  0.00    +0.000 C 
ATOM     27  H   UNL     1       3.315  -0.762   0.881  0.00  0.00    +0.000 HD
ATOM     28  H   UNL     1       3.332  -0.738  -0.880  0.00  0.00    +0.000 HD
BRANCH  26  29
ATOM     29  C   UNL     1       4.533   0.807   0.038  0.00  0.00    +0.000 C 
ATOM     30  H   UNL     1       4.553   1.413   0.950  0.00  0.00    +0.000 HD
ATOM     31  H   UNL     1       4.545   1.477  -0.828  0.00  0.00    +0.000 HD
BRANCH  29  33
ATOM     32  O   UNL     1       5.785  -1.249  -0.029  0.00  0.00    +0.000 OA
ATOM     33  C   UNL     1       5.789  -0.022   0.000  0.00  0.00    +0.000 C 
ATOM     34  H   UNL     1       6.735   0.544   0.003  0.00  0.00    +0.000 HD
ENDBRANCH  29  33
ENDBRANCH  26  29
ENDBRANCH  23  26
ENDBRANCH  20  23
ENDBRANCH   1  20
TORSDOF 10
