REMARK  Name = 1183
REMARK  4 active torsions:
REMARK  status: ('A' for Active; 'I' for Inactive)
REMARK    1  A    between atoms: O_1  and  C_4
REMARK    2  A    between atoms: O_1  and  C_11
REMARK    3  A    between atoms: O_2  and  C_7
REMARK    4  A    between atoms: C_5  and  C_10
REMARK                            x       y       z     vdW  Elec       q    Type
REMARK                         _______ _______ _______ _____ _____    ______ ____
ROOT
ATOM      1  C   UNL     1       1.109  -0.263  -0.000  0.00  0.00    +0.000 A 
ATOM      2  C   UNL     1      -1.307  -0.199  -0.000  0.00  0.00    +0.000 A 
ATOM      3  C   UNL     1      -0.118  -0.928  -0.000  0.00  0.00    +0.000 A 
ATOM      4  C   UNL     1       1.146   1.131  -0.000  0.00  0.00    +0.000 A 
ATOM      5  C   UNL     1      -1.269   1.196  -0.000  0.00  0.00    +0.000 A 
ATOM      6  C   UNL     1      -0.043   1.861  -0.000  0.00  0.00    +0.000 A 
ATOM      7  H   UNL     1      -0.206  -2.010   0.000  0.00  0.00    +0.000 HD
ATOM      8  H   UNL     1      -2.183   1.785  -0.000  0.00  0.00    +0.000 HD
ATOM      9  H   UNL     1      -0.028   2.947   0.000  0.00  0.00    +0.000 HD
ENDROOT
BRANCH   2  11
ATOM     10  O   UNL     1      -3.670  -0.303   0.000  0.00  0.00    +0.000 OA
ATOM     11  C   UNL     1      -2.585  -0.891  -0.000  0.00  0.00    +0.000 C 
ATOM     12  H   UNL     1      -2.553  -1.994  -0.000  0.00  0.00    +0.000 HD
ENDBRANCH   2  11
BRANCH   4  13
ATOM     13  O   UNL     1       2.337   1.792   0.000  0.00  0.00    +0.000 OA
ATOM     14  H   UNL     1       2.168   2.750   0.001  0.00  0.00    +0.000 HD
ENDBRANCH   4  13
BRANCH   1  15
ATOM     15  O   UNL     1       2.263  -0.987   0.000  0.00  0.00    +0.000 OA
BRANCH  15  16
ATOM     16  C   UNL     1       2.137  -2.408   0.000  0.00  0.00    +0.000 C 
ATOM     17  H   UNL     1       1.648  -2.770  -0.910  0.00  0.00    +0.000 HD
ATOM     18  H   UNL     1       1.648  -2.770   0.911  0.00  0.00    +0.000 HD
ATOM     19  H   UNL     1       3.152  -2.820   0.000  0.00  0.00    +0.000 HD
ENDBRANCH  15  16
ENDBRANCH   1  15
TORSDOF 4
