REMARK  Name = 12756
REMARK  2 active torsions:
REMARK  status: ('A' for Active; 'I' for Inactive)
REMARK    1  A    between atoms: C_3  and  C_6
REMARK    2  A    between atoms: C_6  and  C_8
REMARK                            x       y       z     vdW  Elec       q    Type
REMARK                         _______ _______ _______ _____ _____    ______ ____
ROOT
ATOM      1  O   UNL     1      -0.099  -0.778  -0.049  0.00  0.00    +0.000 OA
ATOM      2  O   UNL     1      -2.343  -1.211   0.153  0.00  0.00    +0.000 OA
ATOM      3  C   UNL     1       0.691   0.386  -0.332  0.00  0.00    +0.000 C 
ATOM      4  C   UNL     1      -0.160   1.542   0.143  0.00  0.00    +0.000 C 
ATOM      5  C   UNL     1      -1.557   1.059  -0.165  0.00  0.00    +0.000 C 
ATOM      6  C   UNL     1      -1.420  -0.424   0.010  0.00  0.00    +0.000 C 
ATOM      7  H   UNL     1       0.840   0.433  -1.418  0.00  0.00    +0.000 HD
ATOM      8  H   UNL     1       0.088   2.488  -0.347  0.00  0.00    +0.000 HD
ATOM      9  H   UNL     1      -0.057   1.685   1.226  0.00  0.00    +0.000 HD
ATOM     10  H   UNL     1      -2.289   1.473   0.532  0.00  0.00    +0.000 HD
ATOM     11  H   UNL     1      -1.843   1.272  -1.199  0.00  0.00    +0.000 HD
ENDROOT
BRANCH   3  12
ATOM     12  C   UNL     1       2.025   0.289   0.383  0.00  0.00    +0.000 C 
ATOM     13  H   UNL     1       2.583   1.225   0.260  0.00  0.00    +0.000 HD
ATOM     14  H   UNL     1       1.869   0.134   1.458  0.00  0.00    +0.000 HD
BRANCH  12  15
ATOM     15  C   UNL     1       2.864  -0.863  -0.144  0.00  0.00    +0.000 C 
ATOM     16  H   UNL     1       2.367  -1.825   0.015  0.00  0.00    +0.000 HD
ATOM     17  H   UNL     1       3.060  -0.750  -1.215  0.00  0.00    +0.000 HD
ATOM     18  H   UNL     1       3.828  -0.895   0.374  0.00  0.00    +0.000 HD
ENDBRANCH  12  15
ENDBRANCH   3  12
TORSDOF 2
