5365976
  -OEChem-05272415263D

 41 41  0     1  0  0  0  0  0999 V2000
   -2.0297   -0.1951    1.5917 O   0  0  0  0  0  0  0  0  0  0  0  0
    2.5648    1.2027   -0.2784 C   0  0  0  0  0  0  0  0  0  0  0  0
    1.7130   -0.0787   -0.5887 C   0  0  1  0  0  0  0  0  0  0  0  0
    3.2368    1.0484    1.1065 C   0  0  0  0  0  0  0  0  0  0  0  0
    4.1029   -0.2096    1.2167 C   0  0  0  0  0  0  0  0  0  0  0  0
    2.4845   -1.3652   -0.3239 C   0  0  0  0  0  0  0  0  0  0  0  0
    3.6433    1.3928   -1.3738 C   0  0  0  0  0  0  0  0  0  0  0  0
    1.7014    2.4830   -0.2775 C   0  0  0  0  0  0  0  0  0  0  0  0
    3.5519   -1.4020    0.4939 C   0  0  0  0  0  0  0  0  0  0  0  0
    0.4085   -0.1179    0.1644 C   0  0  0  0  0  0  0  0  0  0  0  0
    2.0056   -2.6000   -1.0364 C   0  0  0  0  0  0  0  0  0  0  0  0
   -0.7885   -0.1136   -0.4359 C   0  0  0  0  0  0  0  0  0  0  0  0
   -2.0462   -0.1545    0.3644 C   0  0  0  0  0  0  0  0  0  0  0  0
   -3.3332   -0.1447   -0.4432 C   0  0  0  0  0  0  0  0  0  0  0  0
   -4.5760   -0.2195    0.4433 C   0  0  0  0  0  0  0  0  0  0  0  0
   -5.8315   -0.2156   -0.3770 C   0  0  0  0  0  0  0  0  0  0  0  0
   -6.8076    0.6895   -0.2460 C   0  0  0  0  0  0  0  0  0  0  0  0
    1.4921   -0.0501   -1.6663 H   0  0  0  0  0  0  0  0  0  0  0  0
    2.4676    1.0138    1.8893 H   0  0  0  0  0  0  0  0  0  0  0  0
    3.8540    1.9269    1.3349 H   0  0  0  0  0  0  0  0  0  0  0  0
    4.2365   -0.4584    2.2758 H   0  0  0  0  0  0  0  0  0  0  0  0
    5.1026   -0.0006    0.8171 H   0  0  0  0  0  0  0  0  0  0  0  0
    4.2832    2.2537   -1.1479 H   0  0  0  0  0  0  0  0  0  0  0  0
    4.2955    0.5214   -1.4843 H   0  0  0  0  0  0  0  0  0  0  0  0
    3.1785    1.5745   -2.3498 H   0  0  0  0  0  0  0  0  0  0  0  0
    2.3252    3.3763   -0.1558 H   0  0  0  0  0  0  0  0  0  0  0  0
    1.1514    2.5884   -1.2195 H   0  0  0  0  0  0  0  0  0  0  0  0
    0.9753    2.4891    0.5424 H   0  0  0  0  0  0  0  0  0  0  0  0
    4.0815   -2.3393    0.6452 H   0  0  0  0  0  0  0  0  0  0  0  0
    0.4684   -0.1565    1.2498 H   0  0  0  0  0  0  0  0  0  0  0  0
    0.9866   -2.8543   -0.7289 H   0  0  0  0  0  0  0  0  0  0  0  0
    2.6397   -3.4681   -0.8273 H   0  0  0  0  0  0  0  0  0  0  0  0
    2.0132   -2.4394   -2.1194 H   0  0  0  0  0  0  0  0  0  0  0  0
   -0.8823   -0.0782   -1.5157 H   0  0  0  0  0  0  0  0  0  0  0  0
   -3.3542    0.7770   -1.0371 H   0  0  0  0  0  0  0  0  0  0  0  0
   -3.3116   -1.0007   -1.1285 H   0  0  0  0  0  0  0  0  0  0  0  0
   -4.5736    0.6133    1.1577 H   0  0  0  0  0  0  0  0  0  0  0  0
   -4.5512   -1.1408    1.0383 H   0  0  0  0  0  0  0  0  0  0  0  0
   -5.9540   -1.0105   -1.1082 H   0  0  0  0  0  0  0  0  0  0  0  0
   -7.6963    0.6321   -0.8650 H   0  0  0  0  0  0  0  0  0  0  0  0
   -6.7396    1.4976    0.4739 H   0  0  0  0  0  0  0  0  0  0  0  0
  1 13  2  0  0  0  0
  2  3  1  0  0  0  0
  2  4  1  0  0  0  0
  2  7  1  0  0  0  0
  2  8  1  0  0  0  0
  3  6  1  0  0  0  0
  3 10  1  0  0  0  0
  3 18  1  0  0  0  0
  4  5  1  0  0  0  0
  4 19  1  0  0  0  0
  4 20  1  0  0  0  0
  5  9  1  0  0  0  0
  5 21  1  0  0  0  0
  5 22  1  0  0  0  0
  6  9  2  0  0  0  0
  6 11  1  0  0  0  0
  7 23  1  0  0  0  0
  7 24  1  0  0  0  0
  7 25  1  0  0  0  0
  8 26  1  0  0  0  0
  8 27  1  0  0  0  0
  8 28  1  0  0  0  0
  9 29  1  0  0  0  0
 10 12  2  0  0  0  0
 10 30  1  0  0  0  0
 11 31  1  0  0  0  0
 11 32  1  0  0  0  0
 11 33  1  0  0  0  0
 12 13  1  0  0  0  0
 12 34  1  0  0  0  0
 13 14  1  0  0  0  0
 14 15  1  0  0  0  0
 14 35  1  0  0  0  0
 14 36  1  0  0  0  0
 15 16  1  0  0  0  0
 15 37  1  0  0  0  0
 15 38  1  0  0  0  0
 16 17  2  0  0  0  0
 16 39  1  0  0  0  0
 17 40  1  0  0  0  0
 17 41  1  0  0  0  0
M  END
> <PUBCHEM_COMPOUND_CID>
5365976

> <PUBCHEM_CONFORMER_RMSD>
0.8

> <PUBCHEM_CONFORMER_DIVERSEORDER>
1
98
106
65
118
26
11
110
58
30
3
17
66
79
45
97
75
22
14
47
120
2
69
62
123
39
31
104
56
53
43
25
60
19
13
16
52
8
50
100
72
23
38
117
27
67
24
35
28
78
70
111
119
40
42
125
10
33
81
94
48
82
59
87
124
41
102
12
126
116
20
91
5
64
88
114
74
101
57
83
49
105
54
92
61
73
108
96
18
37
90
7
36
86
115
112
34
63
122
84
95
71
51
109
89
44
93
6
32
21
80
46
9
85
4
76
15
113
29
55
68
77
107
103
121
99

> <PUBCHEM_MMFF94_PARTIAL_CHARGES>
19
1 -0.57
10 -0.29
11 0.14
12 -0.14
13 0.49
14 0.06
15 0.14
16 -0.29
17 -0.3
29 0.15
3 0.28
30 0.15
34 0.15
39 0.15
40 0.15
41 0.15
5 0.14
6 -0.28
9 -0.29

> <PUBCHEM_EFFECTIVE_ROTOR_COUNT>
5.8

> <PUBCHEM_PHARMACOPHORE_FEATURES>
4
1 1 acceptor
1 17 hydrophobe
3 2 7 8 hydrophobe
6 2 3 4 5 6 9 rings

> <PUBCHEM_HEAVY_ATOM_COUNT>
17

> <PUBCHEM_ATOM_DEF_STEREO_COUNT>
0

> <PUBCHEM_ATOM_UDEF_STEREO_COUNT>
1

> <PUBCHEM_BOND_DEF_STEREO_COUNT>
1

> <PUBCHEM_BOND_UDEF_STEREO_COUNT>
0

> <PUBCHEM_ISOTOPIC_ATOM_COUNT>
0

> <PUBCHEM_COMPONENT_COUNT>
1

> <PUBCHEM_CACTVS_TAUTO_COUNT>
5

> <PUBCHEM_CONFORMER_ID>
0051E0D800000001

> <PUBCHEM_MMFF94_ENERGY>
26.4227

> <PUBCHEM_FEATURE_SELFOVERLAP>
20.297

> <PUBCHEM_SHAPE_FINGERPRINT>
11287383 113 18334295392635968523
11954058 11 16127542453949488230
12236239 1 17632573851479035663
12346645 6 18410858784991998820
12916748 109 16660645150933663933
13167372 99 18340488860073478945
13533116 47 17917429778921322839
13836976 161 18343866614958493550
17834072 33 18343017831237663247
17844677 252 17749113279762522973
20157964 124 18413106161195084447
20281389 69 18130510731124151465
20369508 70 17749382637934832794
20559304 39 18272656727426926080
20645477 70 18408888416836527855
212847 35 18113617902118226469
21285901 2 18187364281823764773
220451 1 18059582403941243407
22224240 67 18130774682148867714
22289505 5 18334295361896328357
23402539 116 18333723638015271839
23559900 14 17458634427284031471
300161 21 17846771919526082743
3060560 45 18271256005568943268
351380 180 18261107478921982393
42630746 31 18342454824885495887
4340502 62 18273210915710808799
495365 180 18270113638309425816
5104073 3 18113903805728199625
522135 26 18335140894758749540
5374978 207 18273211989246398025
7164475 11 18057894554128117929
8272917 22 18411704287405190206
9999458 23 17022900168858078786

> <PUBCHEM_SHAPE_MULTIPOLES>
343.98
12.34
1.92
1.16
26.03
0.12
0.13
-1.22
0.18
-2.73
-0.6
-0.85
-0.02
-0.06

> <PUBCHEM_SHAPE_SELFOVERLAP>
680.077

> <PUBCHEM_SHAPE_VOLUME>
203.6

> <PUBCHEM_COORDINATE_TYPE>
2
5
10

$$$$
