10390702
  -OEChem-05272415263D

 73 75  0     1  0  0  0  0  0999 V2000
   -3.3277   -2.0891   -1.4514 O   0  0  0  0  0  0  0  0  0  0  0  0
   -6.5690   -1.1465    0.7541 O   0  0  0  0  0  0  0  0  0  0  0  0
    2.4465   -2.3015    0.3671 O   0  0  0  0  0  0  0  0  0  0  0  0
    1.7766    2.4123   -0.0089 O   0  0  0  0  0  0  0  0  0  0  0  0
    6.0962    0.5398   -0.8469 O   0  0  0  0  0  0  0  0  0  0  0  0
    3.7730    3.8397   -0.6594 O   0  0  0  0  0  0  0  0  0  0  0  0
    4.7587   -3.1780   -0.6305 O   0  0  0  0  0  0  0  0  0  0  0  0
   -2.0259    0.5433   -1.3349 C   0  0  2  0  0  0  0  0  0  0  0  0
   -2.4947    1.7999   -0.6621 C   0  0  0  0  0  0  0  0  0  0  0  0
   -3.4782    0.9190   -1.3754 C   0  0  2  0  0  0  0  0  0  0  0  0
   -1.6082   -0.6444   -0.5260 C   0  0  2  0  0  0  0  0  0  0  0  0
   -0.0878   -0.9528   -0.5079 C   0  0  2  0  0  0  0  0  0  0  0  0
   -4.4512    0.0992   -0.6101 C   0  0  0  0  0  0  0  0  0  0  0  0
   -2.1732    3.1159   -1.2845 C   0  0  0  0  0  0  0  0  0  0  0  0
   -2.4899    1.8222    0.8285 C   0  0  0  0  0  0  0  0  0  0  0  0
   -0.0616   -2.4508   -0.1348 C   0  0  0  0  0  0  0  0  0  0  0  0
   -2.1891   -1.9548   -1.0201 C   0  0  0  0  0  0  0  0  0  0  0  0
    0.6391   -0.1237    0.5583 C   0  0  1  0  0  0  0  0  0  0  0  0
   -1.2009   -3.0881   -0.9234 C   0  0  0  0  0  0  0  0  0  0  0  0
    0.6069   -0.7349   -1.8659 C   0  0  0  0  0  0  0  0  0  0  0  0
   -5.7747    0.8337   -0.3825 C   0  0  0  0  0  0  0  0  0  0  0  0
    0.4411   -0.7603    1.9535 C   0  0  0  0  0  0  0  0  0  0  0  0
    2.1003    0.0539    0.1824 C   0  0  0  0  0  0  0  0  0  0  0  0
    0.9796    0.0657    3.1418 C   0  0  0  0  0  0  0  0  0  0  0  0
   -6.8009   -0.0058    0.3571 C   0  0  0  0  0  0  0  0  0  0  0  0
    2.9405   -1.0567    0.1048 C   0  0  0  0  0  0  0  0  0  0  0  0
    2.6015    1.3277   -0.0857 C   0  0  0  0  0  0  0  0  0  0  0  0
    0.7639   -0.7083    4.4458 C   0  0  0  0  0  0  0  0  0  0  0  0
    0.3174    1.4403    3.2459 C   0  0  0  0  0  0  0  0  0  0  0  0
   -8.1440    0.6378    0.5853 C   0  0  0  0  0  0  0  0  0  0  0  0
    4.2820   -0.8936   -0.2407 C   0  0  0  0  0  0  0  0  0  0  0  0
    3.9430    1.4909   -0.4313 C   0  0  0  0  0  0  0  0  0  0  0  0
    4.7833    0.3802   -0.5087 C   0  0  0  0  0  0  0  0  0  0  0  0
    4.4668    2.8234   -0.7113 C   0  0  0  0  0  0  0  0  0  0  0  0
    5.1606   -2.0554   -0.3221 C   0  0  0  0  0  0  0  0  0  0  0  0
   -1.5217    0.6182   -2.2901 H   0  0  0  0  0  0  0  0  0  0  0  0
   -3.8753    1.2455   -2.3301 H   0  0  0  0  0  0  0  0  0  0  0  0
   -1.9539   -0.6072    0.5063 H   0  0  0  0  0  0  0  0  0  0  0  0
   -4.1012   -0.3291    0.3307 H   0  0  0  0  0  0  0  0  0  0  0  0
   -4.7899   -0.7126   -1.2544 H   0  0  0  0  0  0  0  0  0  0  0  0
   -2.9118    3.8710   -0.9949 H   0  0  0  0  0  0  0  0  0  0  0  0
   -1.1853    3.4627   -0.9630 H   0  0  0  0  0  0  0  0  0  0  0  0
   -2.1634    3.0648   -2.3790 H   0  0  0  0  0  0  0  0  0  0  0  0
   -3.1999    2.5859    1.1711 H   0  0  0  0  0  0  0  0  0  0  0  0
   -2.7724    0.9163    1.3626 H   0  0  0  0  0  0  0  0  0  0  0  0
   -1.5104    2.1390    1.1919 H   0  0  0  0  0  0  0  0  0  0  0  0
    0.7912   -3.0195   -0.4953 H   0  0  0  0  0  0  0  0  0  0  0  0
   -0.2688   -2.7148    0.9023 H   0  0  0  0  0  0  0  0  0  0  0  0
    0.1659    0.8588    0.5717 H   0  0  0  0  0  0  0  0  0  0  0  0
   -0.8911   -3.3747   -1.9330 H   0  0  0  0  0  0  0  0  0  0  0  0
   -1.6355   -3.9425   -0.3989 H   0  0  0  0  0  0  0  0  0  0  0  0
    0.7626    0.3251   -2.0967 H   0  0  0  0  0  0  0  0  0  0  0  0
    1.5495   -1.2738   -1.9910 H   0  0  0  0  0  0  0  0  0  0  0  0
   -0.0237   -1.1230   -2.6768 H   0  0  0  0  0  0  0  0  0  0  0  0
   -5.5966    1.7402    0.2070 H   0  0  0  0  0  0  0  0  0  0  0  0
   -6.2093    1.1356   -1.3429 H   0  0  0  0  0  0  0  0  0  0  0  0
   -0.6251   -0.9331    2.1439 H   0  0  0  0  0  0  0  0  0  0  0  0
    0.9493   -1.7233    2.0514 H   0  0  0  0  0  0  0  0  0  0  0  0
    2.0595    0.2136    3.0199 H   0  0  0  0  0  0  0  0  0  0  0  0
   -0.3008   -0.8846    4.6334 H   0  0  0  0  0  0  0  0  0  0  0  0
    1.1703   -0.1541    5.2986 H   0  0  0  0  0  0  0  0  0  0  0  0
    1.2684   -1.6797    4.4117 H   0  0  0  0  0  0  0  0  0  0  0  0
    0.5599    2.0753    2.3914 H   0  0  0  0  0  0  0  0  0  0  0  0
    0.6683    1.9676    4.1402 H   0  0  0  0  0  0  0  0  0  0  0  0
   -0.7708    1.3500    3.3218 H   0  0  0  0  0  0  0  0  0  0  0  0
   -8.6052    0.8741   -0.3767 H   0  0  0  0  0  0  0  0  0  0  0  0
   -8.0183    1.5475    1.1776 H   0  0  0  0  0  0  0  0  0  0  0  0
   -8.7956   -0.0511    1.1301 H   0  0  0  0  0  0  0  0  0  0  0  0
    3.1589   -2.9586    0.4024 H   0  0  0  0  0  0  0  0  0  0  0  0
    2.1655    3.1809   -0.4517 H   0  0  0  0  0  0  0  0  0  0  0  0
    5.5325    2.9058   -0.9805 H   0  0  0  0  0  0  0  0  0  0  0  0
    6.2302   -1.8997   -0.1057 H   0  0  0  0  0  0  0  0  0  0  0  0
    6.4341   -0.2662   -1.2689 H   0  0  0  0  0  0  0  0  0  0  0  0
  1 17  2  0  0  0  0
  2 25  2  0  0  0  0
  3 26  1  0  0  0  0
  3 69  1  0  0  0  0
  4 27  1  0  0  0  0
  4 70  1  0  0  0  0
  5 33  1  0  0  0  0
  5 73  1  0  0  0  0
  6 34  2  0  0  0  0
  7 35  2  0  0  0  0
  8  9  1  0  0  0  0
  8 10  1  0  0  0  0
  8 11  1  0  0  0  0
  8 36  1  0  0  0  0
  9 10  1  0  0  0  0
  9 14  1  0  0  0  0
  9 15  1  0  0  0  0
 10 13  1  0  0  0  0
 10 37  1  0  0  0  0
 11 12  1  0  0  0  0
 11 17  1  0  0  0  0
 11 38  1  0  0  0  0
 12 16  1  0  0  0  0
 12 18  1  0  0  0  0
 12 20  1  0  0  0  0
 13 21  1  0  0  0  0
 13 39  1  0  0  0  0
 13 40  1  0  0  0  0
 14 41  1  0  0  0  0
 14 42  1  0  0  0  0
 14 43  1  0  0  0  0
 15 44  1  0  0  0  0
 15 45  1  0  0  0  0
 15 46  1  0  0  0  0
 16 19  1  0  0  0  0
 16 47  1  0  0  0  0
 16 48  1  0  0  0  0
 17 19  1  0  0  0  0
 18 22  1  0  0  0  0
 18 23  1  0  0  0  0
 18 49  1  0  0  0  0
 19 50  1  0  0  0  0
 19 51  1  0  0  0  0
 20 52  1  0  0  0  0
 20 53  1  0  0  0  0
 20 54  1  0  0  0  0
 21 25  1  0  0  0  0
 21 55  1  0  0  0  0
 21 56  1  0  0  0  0
 22 24  1  0  0  0  0
 22 57  1  0  0  0  0
 22 58  1  0  0  0  0
 23 26  2  0  0  0  0
 23 27  1  0  0  0  0
 24 28  1  0  0  0  0
 24 29  1  0  0  0  0
 24 59  1  0  0  0  0
 25 30  1  0  0  0  0
 26 31  1  0  0  0  0
 27 32  2  0  0  0  0
 28 60  1  0  0  0  0
 28 61  1  0  0  0  0
 28 62  1  0  0  0  0
 29 63  1  0  0  0  0
 29 64  1  0  0  0  0
 29 65  1  0  0  0  0
 30 66  1  0  0  0  0
 30 67  1  0  0  0  0
 30 68  1  0  0  0  0
 31 33  2  0  0  0  0
 31 35  1  0  0  0  0
 32 33  1  0  0  0  0
 32 34  1  0  0  0  0
 34 71  1  0  0  0  0
 35 72  1  0  0  0  0
M  END
> <PUBCHEM_COMPOUND_CID>
10390702

> <PUBCHEM_CONFORMER_RMSD>
1.2

> <PUBCHEM_CONFORMER_DIVERSEORDER>
3
1
5
11
7
2
8
10
9
6
4

> <PUBCHEM_MMFF94_PARTIAL_CHARGES>
35
1 -0.57
10 -0.19
11 0.16
13 0.09
14 0.09
15 0.09
17 0.45
18 0.14
19 0.06
2 -0.57
21 0.06
23 -0.14
25 0.45
26 0.08
27 0.08
3 -0.53
30 0.06
31 0.09
32 0.09
33 0.08
34 0.42
35 0.42
36 0.1
37 0.1
4 -0.53
5 -0.53
6 -0.57
69 0.45
7 -0.57
70 0.45
71 0.06
72 0.06
73 0.45
8 -0.19
9 -0.19

> <PUBCHEM_EFFECTIVE_ROTOR_COUNT>
11.4

> <PUBCHEM_PHARMACOPHORE_FEATURES>
11
1 1 acceptor
1 2 acceptor
1 3 donor
1 4 donor
1 5 donor
1 6 acceptor
1 7 acceptor
3 24 28 29 hydrophobe
3 9 14 15 hydrophobe
5 11 12 16 17 19 rings
6 23 26 27 31 32 33 rings

> <PUBCHEM_HEAVY_ATOM_COUNT>
35

> <PUBCHEM_ATOM_DEF_STEREO_COUNT>
4

> <PUBCHEM_ATOM_UDEF_STEREO_COUNT>
1

> <PUBCHEM_BOND_DEF_STEREO_COUNT>
0

> <PUBCHEM_BOND_UDEF_STEREO_COUNT>
0

> <PUBCHEM_ISOTOPIC_ATOM_COUNT>
0

> <PUBCHEM_COMPONENT_COUNT>
1

> <PUBCHEM_CACTVS_TAUTO_COUNT>
180

> <PUBCHEM_CONFORMER_ID>
009E8CAE00000003

> <PUBCHEM_MMFF94_ENERGY>
141.6415

> <PUBCHEM_FEATURE_SELFOVERLAP>
55.822

> <PUBCHEM_SHAPE_FINGERPRINT>
10165383 225 18202004322271237407
11421498 54 17559962021865541139
11578080 2 17415544665713471968
12107698 1 18041279872559532945
12166972 35 18059011679685299738
12788726 201 17417823815462173145
13009979 54 17772751563835238088
13782708 43 17023747779989559810
1454969 45 18411133667790074471
14790565 3 18411983581192622757
14955137 171 18334301993948059245
15183329 4 14908184136350427959
15219462 58 16806167627793546553
15238133 3 16988847151104934523
15420108 30 16044236637301090682
15721738 202 18412548678408490345
15840311 113 18260552238867517685
17349148 13 17560806464292053102
18608769 82 18262240022552336462
19315092 285 16154529996955217017
20600515 1 14835537216728017646
20771845 35 13841635845099514656
22223350 30 17988065820779225499
22956985 138 13552844679463204120
23559900 14 18199730544556264142
25222932 49 17530969133661794515
350125 39 18412545388368186687
404807 78 15358281384718262753
4340502 62 16805321106892591049
46194498 28 18409450246014072710
469060 322 17615986833879434824
5081480 168 16056585569751029977
57527295 17 17273398681303509734
6086070 43 16773511174876646219
9981440 41 17757830405500631192

> <PUBCHEM_SHAPE_MULTIPOLES>
679.2
13.68
3.36
2.47
16.87
0.66
-4.19
1.56
2.2
-2.83
1.32
-0.45
-0.04
-0.37

> <PUBCHEM_SHAPE_SELFOVERLAP>
1444.269

> <PUBCHEM_SHAPE_VOLUME>
379.7

> <PUBCHEM_COORDINATE_TYPE>
2
5
10

$$$$
