MODEL 1
REMARK VINA RESULT:    -5.082      0.000      0.000
REMARK INTER + INTRA:          -7.243
REMARK INTER:                  -6.731
REMARK INTRA:                  -0.512
REMARK UNBOUND:                -0.230
REMARK  Name = 443157
REMARK  8 active torsions:
REMARK  status: ('A' for Active; 'I' for Inactive)
REMARK    1  A    between atoms: C_2  and  C_3
REMARK    2  A    between atoms: C_2  and  C_5
REMARK    3  A    between atoms: C_2  and  C_6
REMARK    4  A    between atoms: C_3  and  C_4
REMARK    5  A    between atoms: C_4  and  C_7
REMARK    6  A    between atoms: C_5  and  C_9
REMARK    7  A    between atoms: C_8  and  C_10
REMARK    8  A    between atoms: C_8  and  C_11
REMARK                            x       y       z     vdW  Elec       q    Type
REMARK                         _______ _______ _______ _____ _____    ______ ____
ROOT
ATOM      1  C   UNL     1      -2.765   8.864  -9.088  0.00  0.00    +0.000 C 
ATOM      2  H   UNL     1      -1.900   8.926  -8.413  0.00  0.00    +0.000 HD
ATOM      3  H   UNL     1      -3.647   9.116  -8.485  0.00  0.00    +0.000 HD
ENDROOT
BRANCH   1   4
ATOM      4  C   UNL     1      -2.902   7.430  -9.608  0.00  0.00    +0.000 C 
ATOM      5  H   UNL     1      -3.046   7.422 -10.693  0.00  0.00    +0.000 HD
ATOM      6  H   UNL     1      -1.979   6.867  -9.428  0.00  0.00    +0.000 HD
BRANCH   4   7
ATOM      7  C   UNL     1      -4.005   6.699  -8.894  0.00  0.00    +0.000 C 
ATOM      8  C   UNL     1      -5.168   6.258  -9.411  0.00  0.00    +0.000 C 
ATOM      9  H   UNL     1      -3.826   6.525  -7.834  0.00  0.00    +0.000 HD
BRANCH   8  10
ATOM     10  C   UNL     1      -6.233   5.531  -8.641  0.00  0.00    +0.000 C 
ATOM     11  H   UNL     1      -6.824   6.216  -8.024  0.00  0.00    +0.000 HD
ATOM     12  H   UNL     1      -6.919   5.021  -9.325  0.00  0.00    +0.000 HD
ATOM     13  H   UNL     1      -5.782   4.786  -7.977  0.00  0.00    +0.000 HD
ENDBRANCH   8  10
BRANCH   8  14
ATOM     14  C   UNL     1      -5.495   6.489 -10.862  0.00  0.00    +0.000 C 
ATOM     15  H   UNL     1      -5.275   7.528 -11.131  0.00  0.00    +0.000 HD
ATOM     16  H   UNL     1      -6.563   6.312 -11.036  0.00  0.00    +0.000 HD
ATOM     17  H   UNL     1      -4.935   5.864 -11.560  0.00  0.00    +0.000 HD
ENDBRANCH   8  14
ENDBRANCH   4   7
ENDBRANCH   1   4
BRANCH   1  18
ATOM     18  C   UNL     1      -2.616   9.916 -10.209  0.00  0.00    +0.000 C 
ATOM     19  H   UNL     1      -2.994  10.880  -9.845  0.00  0.00    +0.000 HD
BRANCH  18  20
ATOM     20  C   UNL     1      -3.422   9.532 -11.455  0.00  0.00    +0.000 C 
ATOM     21  H   UNL     1      -4.407  10.008 -11.457  0.00  0.00    +0.000 HD
ATOM     22  H   UNL     1      -2.920   9.857 -12.373  0.00  0.00    +0.000 HD
ATOM     23  H   UNL     1      -3.567   8.448 -11.515  0.00  0.00    +0.000 HD
ENDBRANCH  18  20
BRANCH  18  24
ATOM     24  C   UNL     1      -1.126  10.077 -10.559  0.00  0.00    +0.000 C 
ATOM     25  H   UNL     1      -0.505   9.506  -9.858  0.00  0.00    +0.000 HD
ATOM     26  H   UNL     1      -0.833  11.130 -10.475  0.00  0.00    +0.000 HD
BRANCH  24  28
ATOM     27  O   UNL     1      -0.042   8.689 -12.236  0.00  0.00    +0.000 OA
ATOM     28  C   UNL     1      -0.771   9.635 -11.961  0.00  0.00    +0.000 C 
ATOM     29  H   UNL     1      -1.209  10.250 -12.767  0.00  0.00    +0.000 HD
ENDBRANCH  24  28
ENDBRANCH  18  24
ENDBRANCH   1  18
TORSDOF 8
ENDMDL
MODEL 2
REMARK VINA RESULT:    -5.077     12.970     14.120
REMARK INTER + INTRA:          -7.236
REMARK INTER:                  -6.658
REMARK INTRA:                  -0.579
REMARK UNBOUND:                -0.230
REMARK  Name = 443157
REMARK  8 active torsions:
REMARK  status: ('A' for Active; 'I' for Inactive)
REMARK    1  A    between atoms: C_2  and  C_3
REMARK    2  A    between atoms: C_2  and  C_5
REMARK    3  A    between atoms: C_2  and  C_6
REMARK    4  A    between atoms: C_3  and  C_4
REMARK    5  A    between atoms: C_4  and  C_7
REMARK    6  A    between atoms: C_5  and  C_9
REMARK    7  A    between atoms: C_8  and  C_10
REMARK    8  A    between atoms: C_8  and  C_11
REMARK                            x       y       z     vdW  Elec       q    Type
REMARK                         _______ _______ _______ _____ _____    ______ ____
ROOT
ATOM      1  C   UNL     1       3.692  10.701   1.228  0.00  0.00    +0.000 C 
ATOM      2  H   UNL     1       4.250  10.960   2.138  0.00  0.00    +0.000 HD
ATOM      3  H   UNL     1       2.637  10.920   1.438  0.00  0.00    +0.000 HD
ENDROOT
BRANCH   1   4
ATOM      4  C   UNL     1       3.849   9.204   0.943  0.00  0.00    +0.000 C 
ATOM      5  H   UNL     1       2.911   8.779   0.571  0.00  0.00    +0.000 HD
ATOM      6  H   UNL     1       4.584   9.041   0.146  0.00  0.00    +0.000 HD
BRANCH   4   7
ATOM      7  C   UNL     1       4.350   8.472   2.156  0.00  0.00    +0.000 C 
ATOM      8  C   UNL     1       5.606   8.055   2.404  0.00  0.00    +0.000 C 
ATOM      9  H   UNL     1       3.589   8.257   2.905  0.00  0.00    +0.000 HD
BRANCH   8  10
ATOM     10  C   UNL     1       6.044   7.325   3.642  0.00  0.00    +0.000 C 
ATOM     11  H   UNL     1       6.118   7.999   4.502  0.00  0.00    +0.000 HD
ATOM     12  H   UNL     1       5.327   6.538   3.896  0.00  0.00    +0.000 HD
ATOM     13  H   UNL     1       7.026   6.868   3.488  0.00  0.00    +0.000 HD
ENDBRANCH   8  10
BRANCH   8  14
ATOM     14  C   UNL     1       6.702   8.292   1.400  0.00  0.00    +0.000 C 
ATOM     15  H   UNL     1       6.476   7.757   0.471  0.00  0.00    +0.000 HD
ATOM     16  H   UNL     1       7.653   7.911   1.789  0.00  0.00    +0.000 HD
ATOM     17  H   UNL     1       6.848   9.339   1.125  0.00  0.00    +0.000 HD
ENDBRANCH   8  14
ENDBRANCH   4   7
ENDBRANCH   1   4
BRANCH   1  18
ATOM     18  C   UNL     1       4.161  11.604   0.066  0.00  0.00    +0.000 C 
ATOM     19  H   UNL     1       3.782  12.621   0.230  0.00  0.00    +0.000 HD
BRANCH  18  20
ATOM     20  C   UNL     1       3.625  11.112  -1.284  0.00  0.00    +0.000 C 
ATOM     21  H   UNL     1       3.043  10.192  -1.172  0.00  0.00    +0.000 HD
ATOM     22  H   UNL     1       2.954  11.848  -1.741  0.00  0.00    +0.000 HD
ATOM     23  H   UNL     1       4.441  10.916  -1.987  0.00  0.00    +0.000 HD
ENDBRANCH  18  20
BRANCH  18  24
ATOM     24  C   UNL     1       5.698  11.652   0.050  0.00  0.00    +0.000 C 
ATOM     25  H   UNL     1       6.106  11.135   0.927  0.00  0.00    +0.000 HD
ATOM     26  H   UNL     1       6.042  12.692   0.093  0.00  0.00    +0.000 HD
BRANCH  24  28
ATOM     27  O   UNL     1       7.522  10.839  -1.340  0.00  0.00    +0.000 OA
ATOM     28  C   UNL     1       6.322  11.038  -1.183  0.00  0.00    +0.000 C 
ATOM     29  H   UNL     1       5.608  10.779  -1.985  0.00  0.00    +0.000 HD
ENDBRANCH  24  28
ENDBRANCH  18  24
ENDBRANCH   1  18
TORSDOF 8
ENDMDL
MODEL 3
REMARK VINA RESULT:    -5.027     13.953     15.171
REMARK INTER + INTRA:          -7.167
REMARK INTER:                  -6.857
REMARK INTRA:                  -0.310
REMARK UNBOUND:                -0.230
REMARK  Name = 443157
REMARK  8 active torsions:
REMARK  status: ('A' for Active; 'I' for Inactive)
REMARK    1  A    between atoms: C_2  and  C_3
REMARK    2  A    between atoms: C_2  and  C_5
REMARK    3  A    between atoms: C_2  and  C_6
REMARK    4  A    between atoms: C_3  and  C_4
REMARK    5  A    between atoms: C_4  and  C_7
REMARK    6  A    between atoms: C_5  and  C_9
REMARK    7  A    between atoms: C_8  and  C_10
REMARK    8  A    between atoms: C_8  and  C_11
REMARK                            x       y       z     vdW  Elec       q    Type
REMARK                         _______ _______ _______ _____ _____    ______ ____
ROOT
ATOM      1  C   UNL     1       5.374   9.145   0.706  0.00  0.00    +0.000 C 
ATOM      2  H   UNL     1       5.013   9.681   1.595  0.00  0.00    +0.000 HD
ATOM      3  H   UNL     1       4.580   8.443   0.424  0.00  0.00    +0.000 HD
ENDROOT
BRANCH   1   4
ATOM      4  C   UNL     1       6.638   8.358   1.067  0.00  0.00    +0.000 C 
ATOM      5  H   UNL     1       6.498   7.289   0.876  0.00  0.00    +0.000 HD
ATOM      6  H   UNL     1       7.475   8.665   0.429  0.00  0.00    +0.000 HD
BRANCH   4   7
ATOM      7  C   UNL     1       7.052   8.620   2.488  0.00  0.00    +0.000 C 
ATOM      8  C   UNL     1       6.659   7.959   3.594  0.00  0.00    +0.000 C 
ATOM      9  H   UNL     1       7.744   9.451   2.615  0.00  0.00    +0.000 HD
BRANCH   8  10
ATOM     10  C   UNL     1       7.112   8.272   4.992  0.00  0.00    +0.000 C 
ATOM     11  H   UNL     1       8.008   8.901   4.993  0.00  0.00    +0.000 HD
ATOM     12  H   UNL     1       6.328   8.806   5.538  0.00  0.00    +0.000 HD
ATOM     13  H   UNL     1       7.349   7.349   5.531  0.00  0.00    +0.000 HD
ENDBRANCH   8  10
BRANCH   8  14
ATOM     14  C   UNL     1       5.682   6.819   3.495  0.00  0.00    +0.000 C 
ATOM     15  H   UNL     1       5.111   6.738   4.426  0.00  0.00    +0.000 HD
ATOM     16  H   UNL     1       6.223   5.877   3.347  0.00  0.00    +0.000 HD
ATOM     17  H   UNL     1       4.950   6.913   2.691  0.00  0.00    +0.000 HD
ENDBRANCH   8  14
ENDBRANCH   4   7
ENDBRANCH   1   4
BRANCH   1  18
ATOM     18  C   UNL     1       5.580  10.148  -0.449  0.00  0.00    +0.000 C 
ATOM     19  H   UNL     1       5.917   9.602  -1.340  0.00  0.00    +0.000 HD
BRANCH  18  20
ATOM     20  C   UNL     1       6.646  11.195  -0.106  0.00  0.00    +0.000 C 
ATOM     21  H   UNL     1       6.206  12.190   0.016  0.00  0.00    +0.000 HD
ATOM     22  H   UNL     1       7.147  10.961   0.840  0.00  0.00    +0.000 HD
ATOM     23  H   UNL     1       7.411  11.254  -0.888  0.00  0.00    +0.000 HD
ENDBRANCH  18  20
BRANCH  18  24
ATOM     24  C   UNL     1       4.240  10.831  -0.774  0.00  0.00    +0.000 C 
ATOM     25  H   UNL     1       3.437  10.086  -0.834  0.00  0.00    +0.000 HD
ATOM     26  H   UNL     1       4.298  11.329  -1.748  0.00  0.00    +0.000 HD
BRANCH  24  28
ATOM     27  O   UNL     1       3.061  11.693   1.171  0.00  0.00    +0.000 OA
ATOM     28  C   UNL     1       3.824  11.882   0.230  0.00  0.00    +0.000 C 
ATOM     29  H   UNL     1       4.249  12.886   0.055  0.00  0.00    +0.000 HD
ENDBRANCH  24  28
ENDBRANCH  18  24
ENDBRANCH   1  18
TORSDOF 8
ENDMDL
MODEL 4
REMARK VINA RESULT:    -4.941     12.662     14.338
REMARK INTER + INTRA:          -7.049
REMARK INTER:                  -6.520
REMARK INTRA:                  -0.529
REMARK UNBOUND:                -0.230
REMARK  Name = 443157
REMARK  8 active torsions:
REMARK  status: ('A' for Active; 'I' for Inactive)
REMARK    1  A    between atoms: C_2  and  C_3
REMARK    2  A    between atoms: C_2  and  C_5
REMARK    3  A    between atoms: C_2  and  C_6
REMARK    4  A    between atoms: C_3  and  C_4
REMARK    5  A    between atoms: C_4  and  C_7
REMARK    6  A    between atoms: C_5  and  C_9
REMARK    7  A    between atoms: C_8  and  C_10
REMARK    8  A    between atoms: C_8  and  C_11
REMARK                            x       y       z     vdW  Elec       q    Type
REMARK                         _______ _______ _______ _____ _____    ______ ____
ROOT
ATOM      1  C   UNL     1       5.705   8.768   1.313  0.00  0.00    +0.000 C 
ATOM      2  H   UNL     1       6.521   9.283   1.839  0.00  0.00    +0.000 HD
ATOM      3  H   UNL     1       5.486   7.862   1.892  0.00  0.00    +0.000 HD
ENDROOT
BRANCH   1   4
ATOM      4  C   UNL     1       6.176   8.369  -0.088  0.00  0.00    +0.000 C 
ATOM      5  H   UNL     1       5.984   7.308  -0.276  0.00  0.00    +0.000 HD
ATOM      6  H   UNL     1       5.607   8.911  -0.852  0.00  0.00    +0.000 HD
BRANCH   4   7
ATOM      7  C   UNL     1       7.624   8.718  -0.293  0.00  0.00    +0.000 C 
ATOM      8  C   UNL     1       8.130   9.845  -0.829  0.00  0.00    +0.000 C 
ATOM      9  H   UNL     1       8.328   7.952   0.029  0.00  0.00    +0.000 HD
BRANCH   8  10
ATOM     10  C   UNL     1       9.594  10.134  -1.005  0.00  0.00    +0.000 C 
ATOM     11  H   UNL     1       9.764  10.896  -1.773  0.00  0.00    +0.000 HD
ATOM     12  H   UNL     1      10.027  10.500  -0.069  0.00  0.00    +0.000 HD
ATOM     13  H   UNL     1      10.128   9.228  -1.308  0.00  0.00    +0.000 HD
ENDBRANCH   8  10
BRANCH   8  14
ATOM     14  C   UNL     1       7.216  10.934  -1.322  0.00  0.00    +0.000 C 
ATOM     15  H   UNL     1       7.529  11.258  -2.320  0.00  0.00    +0.000 HD
ATOM     16  H   UNL     1       7.271  11.799  -0.651  0.00  0.00    +0.000 HD
ATOM     17  H   UNL     1       6.166  10.644  -1.407  0.00  0.00    +0.000 HD
ENDBRANCH   8  14
ENDBRANCH   4   7
ENDBRANCH   1   4
BRANCH   1  18
ATOM     18  C   UNL     1       4.449   9.667   1.311  0.00  0.00    +0.000 C 
ATOM     19  H   UNL     1       4.748  10.697   1.547  0.00  0.00    +0.000 HD
BRANCH  18  20
ATOM     20  C   UNL     1       3.430   9.217   2.364  0.00  0.00    +0.000 C 
ATOM     21  H   UNL     1       3.408   8.127   2.459  0.00  0.00    +0.000 HD
ATOM     22  H   UNL     1       3.679   9.609   3.356  0.00  0.00    +0.000 HD
ATOM     23  H   UNL     1       2.420   9.558   2.110  0.00  0.00    +0.000 HD
ENDBRANCH  18  20
BRANCH  18  24
ATOM     24  C   UNL     1       3.817   9.652  -0.092  0.00  0.00    +0.000 C 
ATOM     25  H   UNL     1       2.855   9.125  -0.072  0.00  0.00    +0.000 HD
ATOM     26  H   UNL     1       4.469   9.117  -0.792  0.00  0.00    +0.000 HD
BRANCH  24  28
ATOM     27  O   UNL     1       3.203  11.248  -1.822  0.00  0.00    +0.000 OA
ATOM     28  C   UNL     1       3.582  11.026  -0.677  0.00  0.00    +0.000 C 
ATOM     29  H   UNL     1       3.798  11.866   0.008  0.00  0.00    +0.000 HD
ENDBRANCH  24  28
ENDBRANCH  18  24
ENDBRANCH   1  18
TORSDOF 8
ENDMDL
MODEL 5
REMARK VINA RESULT:    -4.701     12.823     14.144
REMARK INTER + INTRA:          -6.717
REMARK INTER:                  -6.294
REMARK INTRA:                  -0.423
REMARK UNBOUND:                -0.230
REMARK  Name = 443157
REMARK  8 active torsions:
REMARK  status: ('A' for Active; 'I' for Inactive)
REMARK    1  A    between atoms: C_2  and  C_3
REMARK    2  A    between atoms: C_2  and  C_5
REMARK    3  A    between atoms: C_2  and  C_6
REMARK    4  A    between atoms: C_3  and  C_4
REMARK    5  A    between atoms: C_4  and  C_7
REMARK    6  A    between atoms: C_5  and  C_9
REMARK    7  A    between atoms: C_8  and  C_10
REMARK    8  A    between atoms: C_8  and  C_11
REMARK                            x       y       z     vdW  Elec       q    Type
REMARK                         _______ _______ _______ _____ _____    ______ ____
ROOT
ATOM      1  C   UNL     1       6.260   8.309   0.630  0.00  0.00    +0.000 C 
ATOM      2  H   UNL     1       6.104   7.993  -0.410  0.00  0.00    +0.000 HD
ATOM      3  H   UNL     1       6.273   7.393   1.234  0.00  0.00    +0.000 HD
ENDROOT
BRANCH   1   4
ATOM      4  C   UNL     1       5.089   9.190   1.075  0.00  0.00    +0.000 C 
ATOM      5  H   UNL     1       4.499   8.690   1.850  0.00  0.00    +0.000 HD
ATOM      6  H   UNL     1       5.458  10.114   1.535  0.00  0.00    +0.000 HD
BRANCH   4   7
ATOM      7  C   UNL     1       4.239   9.594  -0.097  0.00  0.00    +0.000 C 
ATOM      8  C   UNL     1       3.909  10.842  -0.481  0.00  0.00    +0.000 C 
ATOM      9  H   UNL     1       3.849   8.765  -0.685  0.00  0.00    +0.000 HD
BRANCH   8  10
ATOM     10  C   UNL     1       3.052  11.180  -1.668  0.00  0.00    +0.000 C 
ATOM     11  H   UNL     1       2.037  11.460  -1.367  0.00  0.00    +0.000 HD
ATOM     12  H   UNL     1       3.480  12.022  -2.221  0.00  0.00    +0.000 HD
ATOM     13  H   UNL     1       2.977  10.320  -2.342  0.00  0.00    +0.000 HD
ENDBRANCH   8  10
BRANCH   8  14
ATOM     14  C   UNL     1       4.389  12.035   0.301  0.00  0.00    +0.000 C 
ATOM     15  H   UNL     1       3.553  12.719   0.485  0.00  0.00    +0.000 HD
ATOM     16  H   UNL     1       5.150  12.575  -0.273  0.00  0.00    +0.000 HD
ATOM     17  H   UNL     1       4.814  11.798   1.279  0.00  0.00    +0.000 HD
ENDBRANCH   8  14
ENDBRANCH   4   7
ENDBRANCH   1   4
BRANCH   1  18
ATOM     18  C   UNL     1       7.635   9.001   0.754  0.00  0.00    +0.000 C 
ATOM     19  H   UNL     1       8.409   8.330   0.358  0.00  0.00    +0.000 HD
BRANCH  18  20
ATOM     20  C   UNL     1       7.982   9.312   2.215  0.00  0.00    +0.000 C 
ATOM     21  H   UNL     1       7.094   9.600   2.784  0.00  0.00    +0.000 HD
ATOM     22  H   UNL     1       8.404   8.436   2.721  0.00  0.00    +0.000 HD
ATOM     23  H   UNL     1       8.712  10.126   2.284  0.00  0.00    +0.000 HD
ENDBRANCH  18  20
BRANCH  18  24
ATOM     24  C   UNL     1       7.632  10.291  -0.085  0.00  0.00    +0.000 C 
ATOM     25  H   UNL     1       8.245  11.062   0.398  0.00  0.00    +0.000 HD
ATOM     26  H   UNL     1       6.613  10.684  -0.166  0.00  0.00    +0.000 HD
BRANCH  24  28
ATOM     27  O   UNL     1       8.074   9.068  -2.142  0.00  0.00    +0.000 OA
ATOM     28  C   UNL     1       8.143  10.109  -1.497  0.00  0.00    +0.000 C 
ATOM     29  H   UNL     1       8.623  11.002  -1.936  0.00  0.00    +0.000 HD
ENDBRANCH  24  28
ENDBRANCH  18  24
ENDBRANCH   1  18
TORSDOF 8
ENDMDL
MODEL 6
REMARK VINA RESULT:    -4.675      2.034      4.667
REMARK INTER + INTRA:          -6.681
REMARK INTER:                  -6.443
REMARK INTRA:                  -0.238
REMARK UNBOUND:                -0.230
REMARK  Name = 443157
REMARK  8 active torsions:
REMARK  status: ('A' for Active; 'I' for Inactive)
REMARK    1  A    between atoms: C_2  and  C_3
REMARK    2  A    between atoms: C_2  and  C_5
REMARK    3  A    between atoms: C_2  and  C_6
REMARK    4  A    between atoms: C_3  and  C_4
REMARK    5  A    between atoms: C_4  and  C_7
REMARK    6  A    between atoms: C_5  and  C_9
REMARK    7  A    between atoms: C_8  and  C_10
REMARK    8  A    between atoms: C_8  and  C_11
REMARK                            x       y       z     vdW  Elec       q    Type
REMARK                         _______ _______ _______ _____ _____    ______ ____
ROOT
ATOM      1  C   UNL     1      -2.945   7.397 -11.097  0.00  0.00    +0.000 C 
ATOM      2  H   UNL     1      -3.834   7.005 -11.609  0.00  0.00    +0.000 HD
ATOM      3  H   UNL     1      -2.923   8.476 -11.296  0.00  0.00    +0.000 HD
ENDROOT
BRANCH   1   4
ATOM      4  C   UNL     1      -1.690   6.749 -11.690  0.00  0.00    +0.000 C 
ATOM      5  H   UNL     1      -1.157   6.167 -10.931  0.00  0.00    +0.000 HD
ATOM      6  H   UNL     1      -1.963   6.033 -12.474  0.00  0.00    +0.000 HD
BRANCH   4   7
ATOM      7  C   UNL     1      -0.800   7.778 -12.329  0.00  0.00    +0.000 C 
ATOM      8  C   UNL     1      -0.778   8.158 -13.621  0.00  0.00    +0.000 C 
ATOM      9  H   UNL     1      -0.092   8.253 -11.651  0.00  0.00    +0.000 HD
BRANCH   8  10
ATOM     10  C   UNL     1       0.140   9.198 -14.198  0.00  0.00    +0.000 C 
ATOM     11  H   UNL     1       0.305  10.023 -13.499  0.00  0.00    +0.000 HD
ATOM     12  H   UNL     1       1.115   8.759 -14.433  0.00  0.00    +0.000 HD
ATOM     13  H   UNL     1      -0.286   9.615 -15.116  0.00  0.00    +0.000 HD
ENDBRANCH   8  10
BRANCH   8  14
ATOM     14  C   UNL     1      -1.709   7.524 -14.619  0.00  0.00    +0.000 C 
ATOM     15  H   UNL     1      -1.196   6.706 -15.137  0.00  0.00    +0.000 HD
ATOM     16  H   UNL     1      -2.011   8.264 -15.369  0.00  0.00    +0.000 HD
ATOM     17  H   UNL     1      -2.615   7.094 -14.188  0.00  0.00    +0.000 HD
ENDBRANCH   8  14
ENDBRANCH   4   7
ENDBRANCH   1   4
BRANCH   1  18
ATOM     18  C   UNL     1      -3.092   7.179  -9.575  0.00  0.00    +0.000 C 
ATOM     19  H   UNL     1      -2.289   6.514  -9.231  0.00  0.00    +0.000 HD
BRANCH  18  20
ATOM     20  C   UNL     1      -4.432   6.520  -9.226  0.00  0.00    +0.000 C 
ATOM     21  H   UNL     1      -4.651   5.680  -9.893  0.00  0.00    +0.000 HD
ATOM     22  H   UNL     1      -4.425   6.113  -8.209  0.00  0.00    +0.000 HD
ATOM     23  H   UNL     1      -5.257   7.237  -9.298  0.00  0.00    +0.000 HD
ENDBRANCH  18  20
BRANCH  18  24
ATOM     24  C   UNL     1      -2.952   8.530  -8.853  0.00  0.00    +0.000 C 
ATOM     25  H   UNL     1      -2.246   8.444  -8.017  0.00  0.00    +0.000 HD
ATOM     26  H   UNL     1      -3.918   8.836  -8.436  0.00  0.00    +0.000 HD
BRANCH  24  28
ATOM     27  O   UNL     1      -1.320  10.032  -9.852  0.00  0.00    +0.000 OA
ATOM     28  C   UNL     1      -2.483   9.659  -9.742  0.00  0.00    +0.000 C 
ATOM     29  H   UNL     1      -3.284  10.171 -10.304  0.00  0.00    +0.000 HD
ENDBRANCH  24  28
ENDBRANCH  18  24
ENDBRANCH   1  18
TORSDOF 8
ENDMDL
MODEL 7
REMARK VINA RESULT:    -4.565      1.542      2.546
REMARK INTER + INTRA:          -6.530
REMARK INTER:                  -5.934
REMARK INTRA:                  -0.596
REMARK UNBOUND:                -0.230
REMARK  Name = 443157
REMARK  8 active torsions:
REMARK  status: ('A' for Active; 'I' for Inactive)
REMARK    1  A    between atoms: C_2  and  C_3
REMARK    2  A    between atoms: C_2  and  C_5
REMARK    3  A    between atoms: C_2  and  C_6
REMARK    4  A    between atoms: C_3  and  C_4
REMARK    5  A    between atoms: C_4  and  C_7
REMARK    6  A    between atoms: C_5  and  C_9
REMARK    7  A    between atoms: C_8  and  C_10
REMARK    8  A    between atoms: C_8  and  C_11
REMARK                            x       y       z     vdW  Elec       q    Type
REMARK                         _______ _______ _______ _____ _____    ______ ____
ROOT
ATOM      1  C   UNL     1      -2.686  10.154 -11.471  0.00  0.00    +0.000 C 
ATOM      2  H   UNL     1      -2.860  11.221 -11.278  0.00  0.00    +0.000 HD
ATOM      3  H   UNL     1      -3.675   9.678 -11.497  0.00  0.00    +0.000 HD
ENDROOT
BRANCH   1   4
ATOM      4  C   UNL     1      -1.869   9.556 -10.322  0.00  0.00    +0.000 C 
ATOM      5  H   UNL     1      -0.987   9.032 -10.703  0.00  0.00    +0.000 HD
ATOM      6  H   UNL     1      -1.483  10.351  -9.673  0.00  0.00    +0.000 HD
BRANCH   4   7
ATOM      7  C   UNL     1      -2.719   8.663  -9.461  0.00  0.00    +0.000 C 
ATOM      8  C   UNL     1      -3.030   7.370  -9.674  0.00  0.00    +0.000 C 
ATOM      9  H   UNL     1      -3.127   9.141  -8.572  0.00  0.00    +0.000 HD
BRANCH   8  10
ATOM     10  C   UNL     1      -3.887   6.530  -8.771  0.00  0.00    +0.000 C 
ATOM     11  H   UNL     1      -4.919   6.895  -8.741  0.00  0.00    +0.000 HD
ATOM     12  H   UNL     1      -3.910   5.493  -9.122  0.00  0.00    +0.000 HD
ATOM     13  H   UNL     1      -3.495   6.546  -7.750  0.00  0.00    +0.000 HD
ENDBRANCH   8  10
BRANCH   8  14
ATOM     14  C   UNL     1      -2.524   6.655 -10.898  0.00  0.00    +0.000 C 
ATOM     15  H   UNL     1      -1.604   7.131 -11.253  0.00  0.00    +0.000 HD
ATOM     16  H   UNL     1      -3.270   6.715 -11.700  0.00  0.00    +0.000 HD
ATOM     17  H   UNL     1      -2.285   5.601 -10.743  0.00  0.00    +0.000 HD
ENDBRANCH   8  14
ENDBRANCH   4   7
ENDBRANCH   1   4
BRANCH   1  18
ATOM     18  C   UNL     1      -2.021   9.985 -12.855  0.00  0.00    +0.000 C 
ATOM     19  H   UNL     1      -1.929  10.971 -13.328  0.00  0.00    +0.000 HD
BRANCH  18  20
ATOM     20  C   UNL     1      -2.858   9.093 -13.779  0.00  0.00    +0.000 C 
ATOM     21  H   UNL     1      -3.045   8.113 -13.329  0.00  0.00    +0.000 HD
ATOM     22  H   UNL     1      -3.841   9.534 -13.979  0.00  0.00    +0.000 HD
ATOM     23  H   UNL     1      -2.356   8.937 -14.741  0.00  0.00    +0.000 HD
ENDBRANCH  18  20
BRANCH  18  24
ATOM     24  C   UNL     1      -0.611   9.398 -12.672  0.00  0.00    +0.000 C 
ATOM     25  H   UNL     1      -0.641   8.534 -11.997  0.00  0.00    +0.000 HD
ATOM     26  H   UNL     1       0.051  10.145 -12.218  0.00  0.00    +0.000 HD
BRANCH  24  28
ATOM     27  O   UNL     1       0.876   9.610 -14.585  0.00  0.00    +0.000 OA
ATOM     28  C   UNL     1       0.046   8.959 -13.961  0.00  0.00    +0.000 C 
ATOM     29  H   UNL     1      -0.289   7.978 -14.342  0.00  0.00    +0.000 HD
ENDBRANCH  24  28
ENDBRANCH  18  24
ENDBRANCH   1  18
TORSDOF 8
ENDMDL
MODEL 8
REMARK VINA RESULT:    -4.509      9.093      9.672
REMARK INTER + INTRA:          -6.452
REMARK INTER:                  -6.166
REMARK INTRA:                  -0.286
REMARK UNBOUND:                -0.230
REMARK  Name = 443157
REMARK  8 active torsions:
REMARK  status: ('A' for Active; 'I' for Inactive)
REMARK    1  A    between atoms: C_2  and  C_3
REMARK    2  A    between atoms: C_2  and  C_5
REMARK    3  A    between atoms: C_2  and  C_6
REMARK    4  A    between atoms: C_3  and  C_4
REMARK    5  A    between atoms: C_4  and  C_7
REMARK    6  A    between atoms: C_5  and  C_9
REMARK    7  A    between atoms: C_8  and  C_10
REMARK    8  A    between atoms: C_8  and  C_11
REMARK                            x       y       z     vdW  Elec       q    Type
REMARK                         _______ _______ _______ _____ _____    ______ ____
ROOT
ATOM      1  C   UNL     1       0.753   0.681 -12.265  0.00  0.00    +0.000 C 
ATOM      2  H   UNL     1       0.984   0.880 -11.210  0.00  0.00    +0.000 HD
ATOM      3  H   UNL     1       0.303   1.600 -12.662  0.00  0.00    +0.000 HD
ENDROOT
BRANCH   1   4
ATOM      4  C   UNL     1      -0.266  -0.459 -12.357  0.00  0.00    +0.000 C 
ATOM      5  H   UNL     1      -0.846  -0.390 -13.283  0.00  0.00    +0.000 HD
ATOM      6  H   UNL     1       0.246  -1.428 -12.401  0.00  0.00    +0.000 HD
BRANCH   4   7
ATOM      7  C   UNL     1      -1.154  -0.490 -11.144  0.00  0.00    +0.000 C 
ATOM      8  C   UNL     1      -2.500  -0.466 -11.111  0.00  0.00    +0.000 C 
ATOM      9  H   UNL     1      -0.626  -0.526 -10.193  0.00  0.00    +0.000 HD
BRANCH   8  10
ATOM     10  C   UNL     1      -3.333  -0.500  -9.860  0.00  0.00    +0.000 C 
ATOM     11  H   UNL     1      -4.248   0.091  -9.969  0.00  0.00    +0.000 HD
ATOM     12  H   UNL     1      -3.625  -1.528  -9.623  0.00  0.00    +0.000 HD
ATOM     13  H   UNL     1      -2.768  -0.092  -9.016  0.00  0.00    +0.000 HD
ENDBRANCH   8  10
BRANCH   8  14
ATOM     14  C   UNL     1      -3.295  -0.387 -12.386  0.00  0.00    +0.000 C 
ATOM     15  H   UNL     1      -4.148  -1.073 -12.336  0.00  0.00    +0.000 HD
ATOM     16  H   UNL     1      -2.669  -0.686 -13.235  0.00  0.00    +0.000 HD
ATOM     17  H   UNL     1      -3.707   0.600 -12.607  0.00  0.00    +0.000 HD
ENDBRANCH   8  14
ENDBRANCH   4   7
ENDBRANCH   1   4
BRANCH   1  18
ATOM     18  C   UNL     1       2.063   0.401 -13.033  0.00  0.00    +0.000 C 
ATOM     19  H   UNL     1       2.909   0.772 -12.440  0.00  0.00    +0.000 HD
BRANCH  18  20
ATOM     20  C   UNL     1       2.088   1.116 -14.389  0.00  0.00    +0.000 C 
ATOM     21  H   UNL     1       1.079   1.390 -14.715  0.00  0.00    +0.000 HD
ATOM     22  H   UNL     1       2.661   2.048 -14.340  0.00  0.00    +0.000 HD
ATOM     23  H   UNL     1       2.536   0.483 -15.163  0.00  0.00    +0.000 HD
ENDBRANCH  18  20
BRANCH  18  24
ATOM     24  C   UNL     1       2.228  -1.117 -13.220  0.00  0.00    +0.000 C 
ATOM     25  H   UNL     1       1.403  -1.519 -13.821  0.00  0.00    +0.000 HD
ATOM     26  H   UNL     1       2.201  -1.621 -12.247  0.00  0.00    +0.000 HD
BRANCH  24  28
ATOM     27  O   UNL     1       4.644  -1.218 -13.483  0.00  0.00    +0.000 OA
ATOM     28  C   UNL     1       3.525  -1.520 -13.884  0.00  0.00    +0.000 C 
ATOM     29  H   UNL     1       3.410  -2.115 -14.807  0.00  0.00    +0.000 HD
ENDBRANCH  24  28
ENDBRANCH  18  24
ENDBRANCH   1  18
TORSDOF 8
ENDMDL
MODEL 9
REMARK VINA RESULT:    -4.337      3.647      6.495
REMARK INTER + INTRA:          -6.215
REMARK INTER:                  -5.985
REMARK INTRA:                  -0.230
REMARK UNBOUND:                -0.230
REMARK  Name = 443157
REMARK  8 active torsions:
REMARK  status: ('A' for Active; 'I' for Inactive)
REMARK    1  A    between atoms: C_2  and  C_3
REMARK    2  A    between atoms: C_2  and  C_5
REMARK    3  A    between atoms: C_2  and  C_6
REMARK    4  A    between atoms: C_3  and  C_4
REMARK    5  A    between atoms: C_4  and  C_7
REMARK    6  A    between atoms: C_5  and  C_9
REMARK    7  A    between atoms: C_8  and  C_10
REMARK    8  A    between atoms: C_8  and  C_11
REMARK                            x       y       z     vdW  Elec       q    Type
REMARK                         _______ _______ _______ _____ _____    ______ ____
ROOT
ATOM      1  C   UNL     1      -5.987   5.969  -9.197  0.00  0.00    +0.000 C 
ATOM      2  H   UNL     1      -5.856   5.261 -10.026  0.00  0.00    +0.000 HD
ATOM      3  H   UNL     1      -6.578   6.805  -9.594  0.00  0.00    +0.000 HD
ENDROOT
BRANCH   1   4
ATOM      4  C   UNL     1      -4.617   6.488  -8.750  0.00  0.00    +0.000 C 
ATOM      5  H   UNL     1      -4.713   7.454  -8.243  0.00  0.00    +0.000 HD
ATOM      6  H   UNL     1      -4.174   5.810  -8.011  0.00  0.00    +0.000 HD
BRANCH   4   7
ATOM      7  C   UNL     1      -3.661   6.558  -9.907  0.00  0.00    +0.000 C 
ATOM      8  C   UNL     1      -2.751   7.518 -10.165  0.00  0.00    +0.000 C 
ATOM      9  H   UNL     1      -3.736   5.732 -10.612  0.00  0.00    +0.000 HD
BRANCH   8  10
ATOM     10  C   UNL     1      -1.821   7.530 -11.344  0.00  0.00    +0.000 C 
ATOM     11  H   UNL     1      -1.665   6.523 -11.745  0.00  0.00    +0.000 HD
ATOM     12  H   UNL     1      -2.230   8.150 -12.148  0.00  0.00    +0.000 HD
ATOM     13  H   UNL     1      -0.844   7.930 -11.055  0.00  0.00    +0.000 HD
ENDBRANCH   8  10
BRANCH   8  14
ATOM     14  C   UNL     1      -2.612   8.704  -9.249  0.00  0.00    +0.000 C 
ATOM     15  H   UNL     1      -2.514   8.363  -8.212  0.00  0.00    +0.000 HD
ATOM     16  H   UNL     1      -3.508   9.333  -9.316  0.00  0.00    +0.000 HD
ATOM     17  H   UNL     1      -1.744   9.335  -9.449  0.00  0.00    +0.000 HD
ENDBRANCH   8  14
ENDBRANCH   4   7
ENDBRANCH   1   4
BRANCH   1  18
ATOM     18  C   UNL     1      -6.790   5.291  -8.066  0.00  0.00    +0.000 C 
ATOM     19  H   UNL     1      -6.165   5.240  -7.165  0.00  0.00    +0.000 HD
BRANCH  18  20
ATOM     20  C   UNL     1      -7.196   3.860  -8.440  0.00  0.00    +0.000 C 
ATOM     21  H   UNL     1      -6.673   3.518  -9.339  0.00  0.00    +0.000 HD
ATOM     22  H   UNL     1      -6.940   3.151  -7.645  0.00  0.00    +0.000 HD
ATOM     23  H   UNL     1      -8.273   3.788  -8.624  0.00  0.00    +0.000 HD
ENDBRANCH  18  20
BRANCH  18  24
ATOM     24  C   UNL     1      -8.035   6.138  -7.749  0.00  0.00    +0.000 C 
ATOM     25  H   UNL     1      -8.948   5.561  -7.938  0.00  0.00    +0.000 HD
ATOM     26  H   UNL     1      -8.064   7.021  -8.397  0.00  0.00    +0.000 HD
BRANCH  24  28
ATOM     27  O   UNL     1      -8.115   5.928  -5.326  0.00  0.00    +0.000 OA
ATOM     28  C   UNL     1      -8.092   6.641  -6.324  0.00  0.00    +0.000 C 
ATOM     29  H   UNL     1      -8.131   7.740  -6.221  0.00  0.00    +0.000 HD
ENDBRANCH  24  28
ENDBRANCH  18  24
ENDBRANCH   1  18
TORSDOF 8
ENDMDL
MODEL 10
REMARK VINA RESULT:    -4.323     24.838     26.491
REMARK INTER + INTRA:          -6.196
REMARK INTER:                  -5.866
REMARK INTRA:                  -0.330
REMARK UNBOUND:                -0.230
REMARK  Name = 443157
REMARK  8 active torsions:
REMARK  status: ('A' for Active; 'I' for Inactive)
REMARK    1  A    between atoms: C_2  and  C_3
REMARK    2  A    between atoms: C_2  and  C_5
REMARK    3  A    between atoms: C_2  and  C_6
REMARK    4  A    between atoms: C_3  and  C_4
REMARK    5  A    between atoms: C_4  and  C_7
REMARK    6  A    between atoms: C_5  and  C_9
REMARK    7  A    between atoms: C_8  and  C_10
REMARK    8  A    between atoms: C_8  and  C_11
REMARK                            x       y       z     vdW  Elec       q    Type
REMARK                         _______ _______ _______ _____ _____    ______ ____
ROOT
ATOM      1  C   UNL     1     -21.114  -1.610   4.750  0.00  0.00    +0.000 C 
ATOM      2  H   UNL     1     -21.936  -1.327   4.078  0.00  0.00    +0.000 HD
ATOM      3  H   UNL     1     -20.194  -1.218   4.296  0.00  0.00    +0.000 HD
ENDROOT
BRANCH   1   4
ATOM      4  C   UNL     1     -21.025  -3.137   4.830  0.00  0.00    +0.000 C 
ATOM      5  H   UNL     1     -20.566  -3.451   5.773  0.00  0.00    +0.000 HD
ATOM      6  H   UNL     1     -22.028  -3.579   4.828  0.00  0.00    +0.000 HD
BRANCH   4   7
ATOM      7  C   UNL     1     -20.297  -3.699   3.641  0.00  0.00    +0.000 C 
ATOM      8  C   UNL     1     -19.385  -4.691   3.630  0.00  0.00    +0.000 C 
ATOM      9  H   UNL     1     -20.544  -3.230   2.690  0.00  0.00    +0.000 HD
BRANCH   8  10
ATOM     10  C   UNL     1     -18.691  -5.210   2.402  0.00  0.00    +0.000 C 
ATOM     11  H   UNL     1     -19.350  -5.850   1.807  0.00  0.00    +0.000 HD
ATOM     12  H   UNL     1     -18.368  -4.380   1.766  0.00  0.00    +0.000 HD
ATOM     13  H   UNL     1     -17.812  -5.800   2.682  0.00  0.00    +0.000 HD
ENDBRANCH   8  10
BRANCH   8  14
ATOM     14  C   UNL     1     -18.974  -5.365   4.910  0.00  0.00    +0.000 C 
ATOM     15  H   UNL     1     -18.230  -4.752   5.431  0.00  0.00    +0.000 HD
ATOM     16  H   UNL     1     -18.518  -6.338   4.690  0.00  0.00    +0.000 HD
ATOM     17  H   UNL     1     -19.787  -5.531   5.620  0.00  0.00    +0.000 HD
ENDBRANCH   8  14
ENDBRANCH   4   7
ENDBRANCH   1   4
BRANCH   1  18
ATOM     18  C   UNL     1     -21.316  -0.930   6.121  0.00  0.00    +0.000 C 
ATOM     19  H   UNL     1     -21.550   0.131   5.962  0.00  0.00    +0.000 HD
BRANCH  18  20
ATOM     20  C   UNL     1     -20.051  -1.010   6.984  0.00  0.00    +0.000 C 
ATOM     21  H   UNL     1     -19.197  -0.540   6.486  0.00  0.00    +0.000 HD
ATOM     22  H   UNL     1     -20.181  -0.483   7.936  0.00  0.00    +0.000 HD
ATOM     23  H   UNL     1     -19.787  -2.050   7.206  0.00  0.00    +0.000 HD
ENDBRANCH  18  20
BRANCH  18  24
ATOM     24  C   UNL     1     -22.503  -1.589   6.845  0.00  0.00    +0.000 C 
ATOM     25  H   UNL     1     -22.675  -2.599   6.454  0.00  0.00    +0.000 HD
ATOM     26  H   UNL     1     -23.418  -1.010   6.670  0.00  0.00    +0.000 HD
BRANCH  24  28
ATOM     27  O   UNL     1     -22.469  -2.721   8.997  0.00  0.00    +0.000 OA
ATOM     28  C   UNL     1     -22.332  -1.693   8.343  0.00  0.00    +0.000 C 
ATOM     29  H   UNL     1     -22.082  -0.744   8.849  0.00  0.00    +0.000 HD
ENDBRANCH  24  28
ENDBRANCH  18  24
ENDBRANCH   1  18
TORSDOF 8
ENDMDL
