MODEL 1
REMARK VINA RESULT:    -3.136      0.000      0.000
REMARK INTER + INTRA:          -3.718
REMARK INTER:                  -3.704
REMARK INTRA:                  -0.014
REMARK UNBOUND:                -0.032
REMARK  Name = 263
REMARK  4 active torsions:
REMARK  status: ('A' for Active; 'I' for Inactive)
REMARK    1  A    between atoms: O_1  and  C_4
REMARK    2  A    between atoms: C_2  and  C_3
REMARK    3  A    between atoms: C_2  and  C_4
REMARK    4  A    between atoms: C_3  and  C_5
REMARK                            x       y       z     vdW  Elec       q    Type
REMARK                         _______ _______ _______ _____ _____    ______ ____
ROOT
ATOM      1  C   UNL     1     -20.325  -4.735   4.420  0.00  0.00    +0.000 C 
ATOM      2  H   UNL     1     -21.033  -5.561   4.568  0.00  0.00    +0.000 HD
ATOM      3  H   UNL     1     -20.577  -4.295   3.446  0.00  0.00    +0.000 HD
ENDROOT
BRANCH   1   4
ATOM      4  C   UNL     1     -20.493  -3.693   5.523  0.00  0.00    +0.000 C 
ATOM      5  H   UNL     1     -19.577  -3.635   6.122  0.00  0.00    +0.000 HD
ATOM      6  H   UNL     1     -21.304  -3.991   6.196  0.00  0.00    +0.000 HD
BRANCH   4   7
ATOM      7  C   UNL     1     -20.796  -2.318   4.950  0.00  0.00    +0.000 C 
ATOM      8  H   UNL     1     -20.793  -1.555   5.734  0.00  0.00    +0.000 HD
ATOM      9  H   UNL     1     -20.056  -2.036   4.193  0.00  0.00    +0.000 HD
ATOM     10  H   UNL     1     -21.783  -2.314   4.476  0.00  0.00    +0.000 HD
ENDBRANCH   4   7
ENDBRANCH   1   4
BRANCH   1  11
ATOM     11  C   UNL     1     -18.907  -5.283   4.376  0.00  0.00    +0.000 C 
ATOM     12  H   UNL     1     -18.838  -6.173   3.743  0.00  0.00    +0.000 HD
ATOM     13  H   UNL     1     -18.206  -4.533   3.995  0.00  0.00    +0.000 HD
BRANCH  11  14
ATOM     14  O   UNL     1     -18.509  -5.633   5.695  0.00  0.00    +0.000 OA
ATOM     15  H   UNL     1     -19.035  -6.404   5.965  0.00  0.00    +0.000 HD
ENDBRANCH  11  14
ENDBRANCH   1  11
TORSDOF 4
ENDMDL
MODEL 2
REMARK VINA RESULT:    -3.134      4.276      4.968
REMARK INTER + INTRA:          -3.716
REMARK INTER:                  -3.710
REMARK INTRA:                  -0.006
REMARK UNBOUND:                -0.032
REMARK  Name = 263
REMARK  4 active torsions:
REMARK  status: ('A' for Active; 'I' for Inactive)
REMARK    1  A    between atoms: O_1  and  C_4
REMARK    2  A    between atoms: C_2  and  C_3
REMARK    3  A    between atoms: C_2  and  C_4
REMARK    4  A    between atoms: C_3  and  C_5
REMARK                            x       y       z     vdW  Elec       q    Type
REMARK                         _______ _______ _______ _____ _____    ______ ____
ROOT
ATOM      1  C   UNL     1     -20.327  -1.063   7.218  0.00  0.00    +0.000 C 
ATOM      2  H   UNL     1     -19.932  -2.077   7.071  0.00  0.00    +0.000 HD
ATOM      3  H   UNL     1     -19.582  -0.538   7.828  0.00  0.00    +0.000 HD
ENDROOT
BRANCH   1   4
ATOM      4  C   UNL     1     -20.490  -0.361   5.873  0.00  0.00    +0.000 C 
ATOM      5  H   UNL     1     -19.544   0.109   5.581  0.00  0.00    +0.000 HD
ATOM      6  H   UNL     1     -21.236   0.438   5.958  0.00  0.00    +0.000 HD
BRANCH   4   7
ATOM      7  C   UNL     1     -20.917  -1.332   4.785  0.00  0.00    +0.000 C 
ATOM      8  H   UNL     1     -20.334  -2.257   4.832  0.00  0.00    +0.000 HD
ATOM      9  H   UNL     1     -21.978  -1.588   4.882  0.00  0.00    +0.000 HD
ATOM     10  H   UNL     1     -20.765  -0.886   3.796  0.00  0.00    +0.000 HD
ENDBRANCH   4   7
ENDBRANCH   1   4
BRANCH   1  11
ATOM     11  C   UNL     1     -21.643  -1.136   7.977  0.00  0.00    +0.000 C 
ATOM     12  H   UNL     1     -22.499  -1.184   7.297  0.00  0.00    +0.000 HD
ATOM     13  H   UNL     1     -21.671  -2.013   8.632  0.00  0.00    +0.000 HD
BRANCH  11  14
ATOM     14  O   UNL     1     -21.771   0.025   8.787  0.00  0.00    +0.000 OA
ATOM     15  H   UNL     1     -22.624  -0.032   9.249  0.00  0.00    +0.000 HD
ENDBRANCH  11  14
ENDBRANCH   1  11
TORSDOF 4
ENDMDL
MODEL 3
REMARK VINA RESULT:    -3.114     26.059     26.437
REMARK INTER + INTRA:          -3.693
REMARK INTER:                  -3.664
REMARK INTRA:                  -0.029
REMARK UNBOUND:                -0.032
REMARK  Name = 263
REMARK  4 active torsions:
REMARK  status: ('A' for Active; 'I' for Inactive)
REMARK    1  A    between atoms: O_1  and  C_4
REMARK    2  A    between atoms: C_2  and  C_3
REMARK    3  A    between atoms: C_2  and  C_4
REMARK    4  A    between atoms: C_3  and  C_5
REMARK                            x       y       z     vdW  Elec       q    Type
REMARK                         _______ _______ _______ _____ _____    ______ ____
ROOT
ATOM      1  C   UNL     1      -2.636   8.948  -9.080  0.00  0.00    +0.000 C 
ATOM      2  H   UNL     1      -3.436   9.658  -8.834  0.00  0.00    +0.000 HD
ATOM      3  H   UNL     1      -1.894   9.042  -8.276  0.00  0.00    +0.000 HD
ENDROOT
BRANCH   1   4
ATOM      4  C   UNL     1      -3.186   7.524  -9.119  0.00  0.00    +0.000 C 
ATOM      5  H   UNL     1      -4.280   7.547  -9.051  0.00  0.00    +0.000 HD
ATOM      6  H   UNL     1      -2.818   6.959  -8.256  0.00  0.00    +0.000 HD
BRANCH   4   7
ATOM      7  C   UNL     1      -2.785   6.806 -10.397  0.00  0.00    +0.000 C 
ATOM      8  H   UNL     1      -2.558   5.754 -10.202  0.00  0.00    +0.000 HD
ATOM      9  H   UNL     1      -3.587   6.853 -11.142  0.00  0.00    +0.000 HD
ATOM     10  H   UNL     1      -1.894   7.272 -10.830  0.00  0.00    +0.000 HD
ENDBRANCH   4   7
ENDBRANCH   1   4
BRANCH   1  11
ATOM     11  C   UNL     1      -1.999   9.341 -10.405  0.00  0.00    +0.000 C 
ATOM     12  H   UNL     1      -1.715   8.462 -10.992  0.00  0.00    +0.000 HD
ATOM     13  H   UNL     1      -2.682   9.951 -11.004  0.00  0.00    +0.000 HD
BRANCH  11  14
ATOM     14  O   UNL     1      -0.832  10.108 -10.143  0.00  0.00    +0.000 OA
ATOM     15  H   UNL     1      -0.255  10.040 -10.922  0.00  0.00    +0.000 HD
ENDBRANCH  11  14
ENDBRANCH   1  11
TORSDOF 4
ENDMDL
MODEL 4
REMARK VINA RESULT:    -3.073     17.683     18.087
REMARK INTER + INTRA:          -3.644
REMARK INTER:                  -3.630
REMARK INTRA:                  -0.014
REMARK UNBOUND:                -0.032
REMARK  Name = 263
REMARK  4 active torsions:
REMARK  status: ('A' for Active; 'I' for Inactive)
REMARK    1  A    between atoms: O_1  and  C_4
REMARK    2  A    between atoms: C_2  and  C_3
REMARK    3  A    between atoms: C_2  and  C_4
REMARK    4  A    between atoms: C_3  and  C_5
REMARK                            x       y       z     vdW  Elec       q    Type
REMARK                         _______ _______ _______ _____ _____    ______ ____
ROOT
ATOM      1  C   UNL     1      -9.380   5.517  -5.381  0.00  0.00    +0.000 C 
ATOM      2  H   UNL     1      -9.772   5.188  -6.352  0.00  0.00    +0.000 HD
ATOM      3  H   UNL     1     -10.251   5.600  -4.719  0.00  0.00    +0.000 HD
ENDROOT
BRANCH   1   4
ATOM      4  C   UNL     1      -8.401   4.483  -4.830  0.00  0.00    +0.000 C 
ATOM      5  H   UNL     1      -8.014   4.818  -3.860  0.00  0.00    +0.000 HD
ATOM      6  H   UNL     1      -7.544   4.385  -5.506  0.00  0.00    +0.000 HD
BRANCH   4   7
ATOM      7  C   UNL     1      -9.062   3.126  -4.657  0.00  0.00    +0.000 C 
ATOM      8  H   UNL     1      -9.146   2.604  -5.616  0.00  0.00    +0.000 HD
ATOM      9  H   UNL     1      -8.488   2.494  -3.971  0.00  0.00    +0.000 HD
ATOM     10  H   UNL     1     -10.070   3.244  -4.246  0.00  0.00    +0.000 HD
ENDBRANCH   4   7
ENDBRANCH   1   4
BRANCH   1  11
ATOM     11  C   UNL     1      -8.728   6.883  -5.534  0.00  0.00    +0.000 C 
ATOM     12  H   UNL     1      -8.403   7.062  -6.563  0.00  0.00    +0.000 HD
ATOM     13  H   UNL     1      -9.418   7.683  -5.245  0.00  0.00    +0.000 HD
BRANCH  11  14
ATOM     14  O   UNL     1      -7.593   6.948  -4.681  0.00  0.00    +0.000 OA
ATOM     15  H   UNL     1      -7.858   7.425  -3.876  0.00  0.00    +0.000 HD
ENDBRANCH  11  14
ENDBRANCH   1  11
TORSDOF 4
ENDMDL
MODEL 5
REMARK VINA RESULT:    -3.033     25.479     25.822
REMARK INTER + INTRA:          -3.597
REMARK INTER:                  -3.571
REMARK INTRA:                  -0.026
REMARK UNBOUND:                -0.032
REMARK  Name = 263
REMARK  4 active torsions:
REMARK  status: ('A' for Active; 'I' for Inactive)
REMARK    1  A    between atoms: O_1  and  C_4
REMARK    2  A    between atoms: C_2  and  C_3
REMARK    3  A    between atoms: C_2  and  C_4
REMARK    4  A    between atoms: C_3  and  C_5
REMARK                            x       y       z     vdW  Elec       q    Type
REMARK                         _______ _______ _______ _____ _____    ______ ____
ROOT
ATOM      1  C   UNL     1      -3.365   7.015 -10.631  0.00  0.00    +0.000 C 
ATOM      2  H   UNL     1      -3.492   5.978 -10.968  0.00  0.00    +0.000 HD
ATOM      3  H   UNL     1      -4.253   7.555 -10.983  0.00  0.00    +0.000 HD
ENDROOT
BRANCH   1   4
ATOM      4  C   UNL     1      -3.288   7.070  -9.108  0.00  0.00    +0.000 C 
ATOM      5  H   UNL     1      -2.507   6.388  -8.750  0.00  0.00    +0.000 HD
ATOM      6  H   UNL     1      -4.237   6.734  -8.675  0.00  0.00    +0.000 HD
BRANCH   4   7
ATOM      7  C   UNL     1      -2.981   8.475  -8.615  0.00  0.00    +0.000 C 
ATOM      8  H   UNL     1      -2.070   8.489  -8.009  0.00  0.00    +0.000 HD
ATOM      9  H   UNL     1      -2.847   9.164  -9.456  0.00  0.00    +0.000 HD
ATOM     10  H   UNL     1      -3.805   8.849  -7.999  0.00  0.00    +0.000 HD
ENDBRANCH   4   7
ENDBRANCH   1   4
BRANCH   1  11
ATOM     11  C   UNL     1      -2.123   7.610 -11.279  0.00  0.00    +0.000 C 
ATOM     12  H   UNL     1      -2.353   8.072 -12.243  0.00  0.00    +0.000 HD
ATOM     13  H   UNL     1      -1.666   8.366 -10.632  0.00  0.00    +0.000 HD
BRANCH  11  14
ATOM     14  O   UNL     1      -1.173   6.573 -11.488  0.00  0.00    +0.000 OA
ATOM     15  H   UNL     1      -1.127   6.406 -12.444  0.00  0.00    +0.000 HD
ENDBRANCH  11  14
ENDBRANCH   1  11
TORSDOF 4
ENDMDL
MODEL 6
REMARK VINA RESULT:    -2.932     27.978     28.296
REMARK INTER + INTRA:          -3.478
REMARK INTER:                  -3.455
REMARK INTRA:                  -0.023
REMARK UNBOUND:                -0.032
REMARK  Name = 263
REMARK  4 active torsions:
REMARK  status: ('A' for Active; 'I' for Inactive)
REMARK    1  A    between atoms: O_1  and  C_4
REMARK    2  A    between atoms: C_2  and  C_3
REMARK    3  A    between atoms: C_2  and  C_4
REMARK    4  A    between atoms: C_3  and  C_5
REMARK                            x       y       z     vdW  Elec       q    Type
REMARK                         _______ _______ _______ _____ _____    ______ ____
ROOT
ATOM      1  C   UNL     1       4.541  10.952   0.588  0.00  0.00    +0.000 C 
ATOM      2  H   UNL     1       5.304  10.684  -0.154  0.00  0.00    +0.000 HD
ATOM      3  H   UNL     1       5.042  11.608   1.310  0.00  0.00    +0.000 HD
ENDROOT
BRANCH   1   4
ATOM      4  C   UNL     1       3.391  11.697  -0.085  0.00  0.00    +0.000 C 
ATOM      5  H   UNL     1       3.595  12.774  -0.085  0.00  0.00    +0.000 HD
ATOM      6  H   UNL     1       2.465  11.543   0.482  0.00  0.00    +0.000 HD
BRANCH   4   7
ATOM      7  C   UNL     1       3.186  11.232  -1.517  0.00  0.00    +0.000 C 
ATOM      8  H   UNL     1       3.100  10.142  -1.567  0.00  0.00    +0.000 HD
ATOM      9  H   UNL     1       2.277  11.669  -1.945  0.00  0.00    +0.000 HD
ATOM     10  H   UNL     1       4.034  11.535  -2.139  0.00  0.00    +0.000 HD
ENDBRANCH   4   7
ENDBRANCH   1   4
BRANCH   1  11
ATOM     11  C   UNL     1       4.058   9.695   1.296  0.00  0.00    +0.000 C 
ATOM     12  H   UNL     1       3.616   8.981   0.594  0.00  0.00    +0.000 HD
ATOM     13  H   UNL     1       4.881   9.199   1.822  0.00  0.00    +0.000 HD
BRANCH  11  14
ATOM     14  O   UNL     1       3.073  10.057   2.254  0.00  0.00    +0.000 OA
ATOM     15  H   UNL     1       3.076   9.377   2.949  0.00  0.00    +0.000 HD
ENDBRANCH  11  14
ENDBRANCH   1  11
TORSDOF 4
ENDMDL
MODEL 7
REMARK VINA RESULT:    -2.920     18.096     18.428
REMARK INTER + INTRA:          -3.465
REMARK INTER:                  -3.437
REMARK INTRA:                  -0.028
REMARK UNBOUND:                -0.032
REMARK  Name = 263
REMARK  4 active torsions:
REMARK  status: ('A' for Active; 'I' for Inactive)
REMARK    1  A    between atoms: O_1  and  C_4
REMARK    2  A    between atoms: C_2  and  C_3
REMARK    3  A    between atoms: C_2  and  C_4
REMARK    4  A    between atoms: C_3  and  C_5
REMARK                            x       y       z     vdW  Elec       q    Type
REMARK                         _______ _______ _______ _____ _____    ______ ____
ROOT
ATOM      1  C   UNL     1      -9.689   6.052  -5.381  0.00  0.00    +0.000 C 
ATOM      2  H   UNL     1     -10.421   5.956  -4.568  0.00  0.00    +0.000 HD
ATOM      3  H   UNL     1     -10.096   5.474  -6.220  0.00  0.00    +0.000 HD
ENDROOT
BRANCH   1   4
ATOM      4  C   UNL     1      -9.534   7.517  -5.780  0.00  0.00    +0.000 C 
ATOM      5  H   UNL     1      -9.374   7.592  -6.862  0.00  0.00    +0.000 HD
ATOM      6  H   UNL     1      -8.651   7.944  -5.291  0.00  0.00    +0.000 HD
BRANCH   4   7
ATOM      7  C   UNL     1     -10.760   8.331  -5.402  0.00  0.00    +0.000 C 
ATOM      8  H   UNL     1     -11.462   8.396  -6.239  0.00  0.00    +0.000 HD
ATOM      9  H   UNL     1     -11.282   7.882  -4.550  0.00  0.00    +0.000 HD
ATOM     10  H   UNL     1     -10.469   9.349  -5.123  0.00  0.00    +0.000 HD
ENDBRANCH   4   7
ENDBRANCH   1   4
BRANCH   1  11
ATOM     11  C   UNL     1      -8.365   5.444  -4.944  0.00  0.00    +0.000 C 
ATOM     12  H   UNL     1      -8.512   4.607  -4.255  0.00  0.00    +0.000 HD
ATOM     13  H   UNL     1      -7.793   5.087  -5.806  0.00  0.00    +0.000 HD
BRANCH  11  14
ATOM     14  O   UNL     1      -7.596   6.443  -4.286  0.00  0.00    +0.000 OA
ATOM     15  H   UNL     1      -6.685   6.379  -4.620  0.00  0.00    +0.000 HD
ENDBRANCH  11  14
ENDBRANCH   1  11
TORSDOF 4
ENDMDL
MODEL 8
REMARK VINA RESULT:    -2.894     29.706     30.025
REMARK INTER + INTRA:          -3.434
REMARK INTER:                  -3.399
REMARK INTRA:                  -0.035
REMARK UNBOUND:                -0.032
REMARK  Name = 263
REMARK  4 active torsions:
REMARK  status: ('A' for Active; 'I' for Inactive)
REMARK    1  A    between atoms: O_1  and  C_4
REMARK    2  A    between atoms: C_2  and  C_3
REMARK    3  A    between atoms: C_2  and  C_4
REMARK    4  A    between atoms: C_3  and  C_5
REMARK                            x       y       z     vdW  Elec       q    Type
REMARK                         _______ _______ _______ _____ _____    ______ ____
ROOT
ATOM      1  C   UNL     1       5.265  10.657  -0.219  0.00  0.00    +0.000 C 
ATOM      2  H   UNL     1       5.422  10.266   0.795  0.00  0.00    +0.000 HD
ATOM      3  H   UNL     1       5.179   9.777  -0.869  0.00  0.00    +0.000 HD
ENDROOT
BRANCH   1   4
ATOM      4  C   UNL     1       3.979  11.477  -0.274  0.00  0.00    +0.000 C 
ATOM      5  H   UNL     1       4.218  12.546  -0.236  0.00  0.00    +0.000 HD
ATOM      6  H   UNL     1       3.356  11.251   0.598  0.00  0.00    +0.000 HD
BRANCH   4   7
ATOM      7  C   UNL     1       3.190  11.191  -1.541  0.00  0.00    +0.000 C 
ATOM      8  H   UNL     1       2.122  11.373  -1.389  0.00  0.00    +0.000 HD
ATOM      9  H   UNL     1       3.533  11.822  -2.368  0.00  0.00    +0.000 HD
ATOM     10  H   UNL     1       3.316  10.145  -1.839  0.00  0.00    +0.000 HD
ENDBRANCH   4   7
ENDBRANCH   1   4
BRANCH   1  11
ATOM     11  C   UNL     1       6.475  11.479  -0.638  0.00  0.00    +0.000 C 
ATOM     12  H   UNL     1       6.310  12.549  -0.478  0.00  0.00    +0.000 HD
ATOM     13  H   UNL     1       7.367  11.179  -0.080  0.00  0.00    +0.000 HD
BRANCH  11  14
ATOM     14  O   UNL     1       6.722  11.260  -2.020  0.00  0.00    +0.000 OA
ATOM     15  H   UNL     1       6.110  11.825  -2.521  0.00  0.00    +0.000 HD
ENDBRANCH  11  14
ENDBRANCH   1  11
TORSDOF 4
ENDMDL
MODEL 9
REMARK VINA RESULT:    -2.890     16.361     17.078
REMARK INTER + INTRA:          -3.429
REMARK INTER:                  -3.397
REMARK INTRA:                  -0.032
REMARK UNBOUND:                -0.032
REMARK  Name = 263
REMARK  4 active torsions:
REMARK  status: ('A' for Active; 'I' for Inactive)
REMARK    1  A    between atoms: O_1  and  C_4
REMARK    2  A    between atoms: C_2  and  C_3
REMARK    3  A    between atoms: C_2  and  C_4
REMARK    4  A    between atoms: C_3  and  C_5
REMARK                            x       y       z     vdW  Elec       q    Type
REMARK                         _______ _______ _______ _____ _____    ______ ____
ROOT
ATOM      1  C   UNL     1      -8.067 -11.571  14.728  0.00  0.00    +0.000 C 
ATOM      2  H   UNL     1      -8.503 -12.554  14.504  0.00  0.00    +0.000 HD
ATOM      3  H   UNL     1      -7.438 -11.319  13.865  0.00  0.00    +0.000 HD
ENDROOT
BRANCH   1   4
ATOM      4  C   UNL     1      -9.170 -10.530  14.893  0.00  0.00    +0.000 C 
ATOM      5  H   UNL     1      -9.644 -10.333  13.924  0.00  0.00    +0.000 HD
ATOM      6  H   UNL     1      -8.741  -9.584  15.243  0.00  0.00    +0.000 HD
BRANCH   4   7
ATOM      7  C   UNL     1     -10.231 -10.993  15.878  0.00  0.00    +0.000 C 
ATOM      8  H   UNL     1      -9.939 -10.765  16.907  0.00  0.00    +0.000 HD
ATOM      9  H   UNL     1     -11.192 -10.506  15.677  0.00  0.00    +0.000 HD
ATOM     10  H   UNL     1     -10.377 -12.075  15.798  0.00  0.00    +0.000 HD
ENDBRANCH   4   7
ENDBRANCH   1   4
BRANCH   1  11
ATOM     11  C   UNL     1      -7.199 -11.673  15.974  0.00  0.00    +0.000 C 
ATOM     12  H   UNL     1      -7.746 -12.119  16.810  0.00  0.00    +0.000 HD
ATOM     13  H   UNL     1      -6.306 -12.277  15.783  0.00  0.00    +0.000 HD
BRANCH  11  14
ATOM     14  O   UNL     1      -6.780 -10.368  16.350  0.00  0.00    +0.000 OA
ATOM     15  H   UNL     1      -7.445  -9.740  16.021  0.00  0.00    +0.000 HD
ENDBRANCH  11  14
ENDBRANCH   1  11
TORSDOF 4
ENDMDL
MODEL 10
REMARK VINA RESULT:    -2.833      5.017      5.446
REMARK INTER + INTRA:          -3.362
REMARK INTER:                  -3.345
REMARK INTRA:                  -0.017
REMARK UNBOUND:                -0.032
REMARK  Name = 263
REMARK  4 active torsions:
REMARK  status: ('A' for Active; 'I' for Inactive)
REMARK    1  A    between atoms: O_1  and  C_4
REMARK    2  A    between atoms: C_2  and  C_3
REMARK    3  A    between atoms: C_2  and  C_4
REMARK    4  A    between atoms: C_3  and  C_5
REMARK                            x       y       z     vdW  Elec       q    Type
REMARK                         _______ _______ _______ _____ _____    ______ ____
ROOT
ATOM      1  C   UNL     1     -22.036  -1.496   7.465  0.00  0.00    +0.000 C 
ATOM      2  H   UNL     1     -22.774  -1.050   6.784  0.00  0.00    +0.000 HD
ATOM      3  H   UNL     1     -21.958  -2.551   7.173  0.00  0.00    +0.000 HD
ENDROOT
BRANCH   1   4
ATOM      4  C   UNL     1     -20.684  -0.807   7.301  0.00  0.00    +0.000 C 
ATOM      5  H   UNL     1     -19.881  -1.484   7.616  0.00  0.00    +0.000 HD
ATOM      6  H   UNL     1     -20.636   0.077   7.947  0.00  0.00    +0.000 HD
BRANCH   4   7
ATOM      7  C   UNL     1     -20.442  -0.388   5.860  0.00  0.00    +0.000 C 
ATOM      8  H   UNL     1     -19.655  -0.994   5.402  0.00  0.00    +0.000 HD
ATOM      9  H   UNL     1     -21.353  -0.498   5.262  0.00  0.00    +0.000 HD
ATOM     10  H   UNL     1     -20.133   0.661   5.816  0.00  0.00    +0.000 HD
ENDBRANCH   4   7
ENDBRANCH   1   4
BRANCH   1  11
ATOM     11  C   UNL     1     -22.545  -1.403   8.895  0.00  0.00    +0.000 C 
ATOM     12  H   UNL     1     -23.556  -1.810   8.991  0.00  0.00    +0.000 HD
ATOM     13  H   UNL     1     -21.887  -1.944   9.583  0.00  0.00    +0.000 HD
BRANCH  11  14
ATOM     14  O   UNL     1     -22.567  -0.036   9.287  0.00  0.00    +0.000 OA
ATOM     15  H   UNL     1     -23.483   0.186   9.524  0.00  0.00    +0.000 HD
ENDBRANCH  11  14
ENDBRANCH   1  11
TORSDOF 4
ENDMDL
