MODEL 1
REMARK VINA RESULT:    -4.603      0.000      0.000
REMARK INTER + INTRA:          -7.781
REMARK INTER:                  -7.238
REMARK INTRA:                  -0.542
REMARK UNBOUND:                -0.756
REMARK  Name = 8174
REMARK  10 active torsions:
REMARK  status: ('A' for Active; 'I' for Inactive)
REMARK    1  A    between atoms: O_1  and  C_10
REMARK    2  A    between atoms: C_2  and  C_3
REMARK    3  A    between atoms: C_2  and  C_4
REMARK    4  A    between atoms: C_3  and  C_5
REMARK    5  A    between atoms: C_4  and  C_6
REMARK    6  A    between atoms: C_5  and  C_7
REMARK    7  A    between atoms: C_6  and  C_8
REMARK    8  A    between atoms: C_7  and  C_9
REMARK    9  A    between atoms: C_8  and  C_10
REMARK   10  A    between atoms: C_9  and  C_11
REMARK                            x       y       z     vdW  Elec       q    Type
REMARK                         _______ _______ _______ _____ _____    ______ ____
ROOT
ATOM      1  C   UNL     1     -20.786  -1.562   4.758  0.00  0.00    +0.000 C 
ATOM      2  H   UNL     1     -19.835  -1.880   4.312  0.00  0.00    +0.000 HD
ATOM      3  H   UNL     1     -21.384  -1.125   3.949  0.00  0.00    +0.000 HD
ENDROOT
BRANCH   1   4
ATOM      4  C   UNL     1     -20.505  -0.485   5.810  0.00  0.00    +0.000 C 
ATOM      5  H   UNL     1     -21.301   0.268   5.775  0.00  0.00    +0.000 HD
ATOM      6  H   UNL     1     -19.572   0.029   5.548  0.00  0.00    +0.000 HD
BRANCH   4   7
ATOM      7  C   UNL     1     -20.390  -1.038   7.232  0.00  0.00    +0.000 C 
ATOM      8  H   UNL     1     -20.530  -2.125   7.217  0.00  0.00    +0.000 HD
ATOM      9  H   UNL     1     -19.381  -0.846   7.617  0.00  0.00    +0.000 HD
BRANCH   7  10
ATOM     10  C   UNL     1     -21.423  -0.394   8.161  0.00  0.00    +0.000 C 
ATOM     11  H   UNL     1     -21.934   0.421   7.634  0.00  0.00    +0.000 HD
ATOM     12  H   UNL     1     -20.912   0.051   9.024  0.00  0.00    +0.000 HD
BRANCH  10  13
ATOM     13  C   UNL     1     -22.449  -1.417   8.647  0.00  0.00    +0.000 C 
ATOM     14  H   UNL     1     -22.639  -1.275   9.718  0.00  0.00    +0.000 HD
ATOM     15  H   UNL     1     -22.053  -2.431   8.519  0.00  0.00    +0.000 HD
BRANCH  13  16
ATOM     16  C   UNL     1     -23.761  -1.293   7.890  0.00  0.00    +0.000 C 
ATOM     17  H   UNL     1     -23.648  -1.625   6.853  0.00  0.00    +0.000 HD
ATOM     18  H   UNL     1     -24.114  -0.257   7.883  0.00  0.00    +0.000 HD
ATOM     19  H   UNL     1     -24.531  -1.911   8.363  0.00  0.00    +0.000 HD
ENDBRANCH  13  16
ENDBRANCH  10  13
ENDBRANCH   7  10
ENDBRANCH   4   7
ENDBRANCH   1   4
BRANCH   1  20
ATOM     20  C   UNL     1     -21.519  -2.784   5.317  0.00  0.00    +0.000 C 
ATOM     21  H   UNL     1     -22.330  -3.066   4.635  0.00  0.00    +0.000 HD
ATOM     22  H   UNL     1     -21.980  -2.526   6.279  0.00  0.00    +0.000 HD
BRANCH  20  23
ATOM     23  C   UNL     1     -20.564  -3.965   5.504  0.00  0.00    +0.000 C 
ATOM     24  H   UNL     1     -21.121  -4.838   5.864  0.00  0.00    +0.000 HD
ATOM     25  H   UNL     1     -19.819  -3.718   6.270  0.00  0.00    +0.000 HD
BRANCH  23  26
ATOM     26  C   UNL     1     -19.851  -4.315   4.194  0.00  0.00    +0.000 C 
ATOM     27  H   UNL     1     -20.588  -4.541   3.413  0.00  0.00    +0.000 HD
ATOM     28  H   UNL     1     -19.284  -3.449   3.829  0.00  0.00    +0.000 HD
BRANCH  26  29
ATOM     29  C   UNL     1     -18.905  -5.499   4.352  0.00  0.00    +0.000 C 
ATOM     30  H   UNL     1     -18.011  -5.363   3.735  0.00  0.00    +0.000 HD
ATOM     31  H   UNL     1     -19.400  -6.430   4.055  0.00  0.00    +0.000 HD
BRANCH  29  32
ATOM     32  O   UNL     1     -18.500  -5.618   5.707  0.00  0.00    +0.000 OA
ATOM     33  H   UNL     1     -17.642  -6.076   5.709  0.00  0.00    +0.000 HD
ENDBRANCH  29  32
ENDBRANCH  26  29
ENDBRANCH  23  26
ENDBRANCH  20  23
ENDBRANCH   1  20
TORSDOF 10
ENDMDL
MODEL 2
REMARK VINA RESULT:    -4.564     26.910     28.174
REMARK INTER + INTRA:          -7.721
REMARK INTER:                  -7.077
REMARK INTRA:                  -0.645
REMARK UNBOUND:                -0.756
REMARK  Name = 8174
REMARK  10 active torsions:
REMARK  status: ('A' for Active; 'I' for Inactive)
REMARK    1  A    between atoms: O_1  and  C_10
REMARK    2  A    between atoms: C_2  and  C_3
REMARK    3  A    between atoms: C_2  and  C_4
REMARK    4  A    between atoms: C_3  and  C_5
REMARK    5  A    between atoms: C_4  and  C_6
REMARK    6  A    between atoms: C_5  and  C_7
REMARK    7  A    between atoms: C_6  and  C_8
REMARK    8  A    between atoms: C_7  and  C_9
REMARK    9  A    between atoms: C_8  and  C_10
REMARK   10  A    between atoms: C_9  and  C_11
REMARK                            x       y       z     vdW  Elec       q    Type
REMARK                         _______ _______ _______ _____ _____    ______ ____
ROOT
ATOM      1  C   UNL     1      -2.695   9.672  -9.891  0.00  0.00    +0.000 C 
ATOM      2  H   UNL     1      -3.248  10.607  -9.732  0.00  0.00    +0.000 HD
ATOM      3  H   UNL     1      -3.178   9.159 -10.732  0.00  0.00    +0.000 HD
ENDROOT
BRANCH   1   4
ATOM      4  C   UNL     1      -2.822   8.803  -8.636  0.00  0.00    +0.000 C 
ATOM      5  H   UNL     1      -3.461   9.315  -7.907  0.00  0.00    +0.000 HD
ATOM      6  H   UNL     1      -1.832   8.704  -8.174  0.00  0.00    +0.000 HD
BRANCH   4   7
ATOM      7  C   UNL     1      -3.387   7.409  -8.915  0.00  0.00    +0.000 C 
ATOM      8  H   UNL     1      -3.090   6.724  -8.113  0.00  0.00    +0.000 HD
ATOM      9  H   UNL     1      -4.483   7.453  -8.915  0.00  0.00    +0.000 HD
BRANCH   7  10
ATOM     10  C   UNL     1      -2.897   6.873 -10.264  0.00  0.00    +0.000 C 
ATOM     11  H   UNL     1      -2.482   5.866 -10.131  0.00  0.00    +0.000 HD
ATOM     12  H   UNL     1      -2.086   7.509 -10.638  0.00  0.00    +0.000 HD
BRANCH  10  13
ATOM     13  C   UNL     1      -4.028   6.832 -11.291  0.00  0.00    +0.000 C 
ATOM     14  H   UNL     1      -4.697   7.689 -11.144  0.00  0.00    +0.000 HD
ATOM     15  H   UNL     1      -4.628   5.925 -11.147  0.00  0.00    +0.000 HD
BRANCH  13  16
ATOM     16  C   UNL     1      -3.492   6.859 -12.712  0.00  0.00    +0.000 C 
ATOM     17  H   UNL     1      -4.082   7.534 -13.341  0.00  0.00    +0.000 HD
ATOM     18  H   UNL     1      -3.517   5.861 -13.161  0.00  0.00    +0.000 HD
ATOM     19  H   UNL     1      -2.455   7.209 -12.719  0.00  0.00    +0.000 HD
ENDBRANCH  13  16
ENDBRANCH  10  13
ENDBRANCH   7  10
ENDBRANCH   4   7
ENDBRANCH   1   4
BRANCH   1  20
ATOM     20  C   UNL     1      -1.247   9.994 -10.265  0.00  0.00    +0.000 C 
ATOM     21  H   UNL     1      -0.583   9.233  -9.840  0.00  0.00    +0.000 HD
ATOM     22  H   UNL     1      -0.960  10.957  -9.826  0.00  0.00    +0.000 HD
BRANCH  20  23
ATOM     23  C   UNL     1      -1.067  10.047 -11.784  0.00  0.00    +0.000 C 
ATOM     24  H   UNL     1      -0.510  10.951 -12.059  0.00  0.00    +0.000 HD
ATOM     25  H   UNL     1      -2.049  10.111 -12.269  0.00  0.00    +0.000 HD
BRANCH  23  26
ATOM     26  C   UNL     1      -0.324   8.810 -12.300  0.00  0.00    +0.000 C 
ATOM     27  H   UNL     1       0.710   8.814 -11.936  0.00  0.00    +0.000 HD
ATOM     28  H   UNL     1      -0.781   7.899 -11.894  0.00  0.00    +0.000 HD
BRANCH  26  29
ATOM     29  C   UNL     1      -0.323   8.732 -13.821  0.00  0.00    +0.000 C 
ATOM     30  H   UNL     1      -1.077   9.405 -14.242  0.00  0.00    +0.000 HD
ATOM     31  H   UNL     1      -0.536   7.711 -14.155  0.00  0.00    +0.000 HD
BRANCH  29  32
ATOM     32  O   UNL     1       0.949   9.113 -14.324  0.00  0.00    +0.000 OA
ATOM     33  H   UNL     1       0.881   9.121 -15.295  0.00  0.00    +0.000 HD
ENDBRANCH  29  32
ENDBRANCH  26  29
ENDBRANCH  23  26
ENDBRANCH  20  23
ENDBRANCH   1  20
TORSDOF 10
ENDMDL
MODEL 3
REMARK VINA RESULT:    -4.487     29.407     30.527
REMARK INTER + INTRA:          -7.604
REMARK INTER:                  -6.990
REMARK INTRA:                  -0.615
REMARK UNBOUND:                -0.756
REMARK  Name = 8174
REMARK  10 active torsions:
REMARK  status: ('A' for Active; 'I' for Inactive)
REMARK    1  A    between atoms: O_1  and  C_10
REMARK    2  A    between atoms: C_2  and  C_3
REMARK    3  A    between atoms: C_2  and  C_4
REMARK    4  A    between atoms: C_3  and  C_5
REMARK    5  A    between atoms: C_4  and  C_6
REMARK    6  A    between atoms: C_5  and  C_7
REMARK    7  A    between atoms: C_6  and  C_8
REMARK    8  A    between atoms: C_7  and  C_9
REMARK    9  A    between atoms: C_8  and  C_10
REMARK   10  A    between atoms: C_9  and  C_11
REMARK                            x       y       z     vdW  Elec       q    Type
REMARK                         _______ _______ _______ _____ _____    ______ ____
ROOT
ATOM      1  C   UNL     1       6.321   8.390   0.840  0.00  0.00    +0.000 C 
ATOM      2  H   UNL     1       6.085   8.412  -0.232  0.00  0.00    +0.000 HD
ATOM      3  H   UNL     1       6.686   7.379   1.062  0.00  0.00    +0.000 HD
ENDROOT
BRANCH   1   4
ATOM      4  C   UNL     1       5.037   8.643   1.635  0.00  0.00    +0.000 C 
ATOM      5  H   UNL     1       5.256   9.329   2.462  0.00  0.00    +0.000 HD
ATOM      6  H   UNL     1       4.710   7.698   2.087  0.00  0.00    +0.000 HD
BRANCH   4   7
ATOM      7  C   UNL     1       3.899   9.214   0.788  0.00  0.00    +0.000 C 
ATOM      8  H   UNL     1       4.161   9.147  -0.274  0.00  0.00    +0.000 HD
ATOM      9  H   UNL     1       2.995   8.611   0.938  0.00  0.00    +0.000 HD
BRANCH   7  10
ATOM     10  C   UNL     1       3.609  10.671   1.161  0.00  0.00    +0.000 C 
ATOM     11  H   UNL     1       4.148  10.930   2.080  0.00  0.00    +0.000 HD
ATOM     12  H   UNL     1       2.539  10.789   1.370  0.00  0.00    +0.000 HD
BRANCH  10  13
ATOM     13  C   UNL     1       4.018  11.624   0.038  0.00  0.00    +0.000 C 
ATOM     14  H   UNL     1       5.112  11.684  -0.021  0.00  0.00    +0.000 HD
ATOM     15  H   UNL     1       3.649  12.634   0.255  0.00  0.00    +0.000 HD
BRANCH  13  16
ATOM     16  C   UNL     1       3.473  11.170  -1.306  0.00  0.00    +0.000 C 
ATOM     17  H   UNL     1       2.488  10.705  -1.192  0.00  0.00    +0.000 HD
ATOM     18  H   UNL     1       4.144  10.443  -1.776  0.00  0.00    +0.000 HD
ATOM     19  H   UNL     1       3.370  12.024  -1.982  0.00  0.00    +0.000 HD
ENDBRANCH  13  16
ENDBRANCH  10  13
ENDBRANCH   7  10
ENDBRANCH   4   7
ENDBRANCH   1   4
BRANCH   1  20
ATOM     20  C   UNL     1       7.432   9.400   1.137  0.00  0.00    +0.000 C 
ATOM     21  H   UNL     1       8.354   8.863   1.387  0.00  0.00    +0.000 HD
ATOM     22  H   UNL     1       7.157   9.999   2.014  0.00  0.00    +0.000 HD
BRANCH  20  23
ATOM     23  C   UNL     1       7.676  10.321  -0.059  0.00  0.00    +0.000 C 
ATOM     24  H   UNL     1       7.643  11.368   0.266  0.00  0.00    +0.000 HD
ATOM     25  H   UNL     1       6.876  10.186  -0.798  0.00  0.00    +0.000 HD
BRANCH  23  26
ATOM     26  C   UNL     1       9.030  10.032  -0.716  0.00  0.00    +0.000 C 
ATOM     27  H   UNL     1       9.370  10.909  -1.281  0.00  0.00    +0.000 HD
ATOM     28  H   UNL     1       9.793   9.856   0.053  0.00  0.00    +0.000 HD
BRANCH  26  29
ATOM     29  C   UNL     1       8.973   8.826  -1.646  0.00  0.00    +0.000 C 
ATOM     30  H   UNL     1       8.752   9.140  -2.671  0.00  0.00    +0.000 HD
ATOM     31  H   UNL     1       8.200   8.122  -1.318  0.00  0.00    +0.000 HD
BRANCH  29  32
ATOM     32  O   UNL     1      10.224   8.153  -1.643  0.00  0.00    +0.000 OA
ATOM     33  H   UNL     1      10.828   8.673  -2.201  0.00  0.00    +0.000 HD
ENDBRANCH  29  32
ENDBRANCH  26  29
ENDBRANCH  23  26
ENDBRANCH  20  23
ENDBRANCH   1  20
TORSDOF 10
ENDMDL
MODEL 4
REMARK VINA RESULT:    -4.354     27.927     29.211
REMARK INTER + INTRA:          -7.401
REMARK INTER:                  -6.630
REMARK INTRA:                  -0.771
REMARK UNBOUND:                -0.756
REMARK  Name = 8174
REMARK  10 active torsions:
REMARK  status: ('A' for Active; 'I' for Inactive)
REMARK    1  A    between atoms: O_1  and  C_10
REMARK    2  A    between atoms: C_2  and  C_3
REMARK    3  A    between atoms: C_2  and  C_4
REMARK    4  A    between atoms: C_3  and  C_5
REMARK    5  A    between atoms: C_4  and  C_6
REMARK    6  A    between atoms: C_5  and  C_7
REMARK    7  A    between atoms: C_6  and  C_8
REMARK    8  A    between atoms: C_7  and  C_9
REMARK    9  A    between atoms: C_8  and  C_10
REMARK   10  A    between atoms: C_9  and  C_11
REMARK                            x       y       z     vdW  Elec       q    Type
REMARK                         _______ _______ _______ _____ _____    ______ ____
ROOT
ATOM      1  C   UNL     1       4.343   8.924   3.434  0.00  0.00    +0.000 C 
ATOM      2  H   UNL     1       5.236   9.538   3.262  0.00  0.00    +0.000 HD
ATOM      3  H   UNL     1       4.045   9.084   4.478  0.00  0.00    +0.000 HD
ENDROOT
BRANCH   1   4
ATOM      4  C   UNL     1       4.711   7.450   3.240  0.00  0.00    +0.000 C 
ATOM      5  H   UNL     1       4.177   7.059   2.365  0.00  0.00    +0.000 HD
ATOM      6  H   UNL     1       4.355   6.881   4.107  0.00  0.00    +0.000 HD
BRANCH   4   7
ATOM      7  C   UNL     1       6.212   7.215   3.066  0.00  0.00    +0.000 C 
ATOM      8  H   UNL     1       6.622   6.764   3.977  0.00  0.00    +0.000 HD
ATOM      9  H   UNL     1       6.377   6.502   2.249  0.00  0.00    +0.000 HD
BRANCH   7  10
ATOM     10  C   UNL     1       6.946   8.523   2.759  0.00  0.00    +0.000 C 
ATOM     11  H   UNL     1       7.871   8.573   3.347  0.00  0.00    +0.000 HD
ATOM     12  H   UNL     1       6.323   9.373   3.065  0.00  0.00    +0.000 HD
BRANCH  10  13
ATOM     13  C   UNL     1       7.274   8.642   1.271  0.00  0.00    +0.000 C 
ATOM     14  H   UNL     1       6.353   8.802   0.698  0.00  0.00    +0.000 HD
ATOM     15  H   UNL     1       7.720   7.706   0.913  0.00  0.00    +0.000 HD
BRANCH  13  16
ATOM     16  C   UNL     1       8.233   9.790   1.002  0.00  0.00    +0.000 C 
ATOM     17  H   UNL     1       9.115   9.723   1.647  0.00  0.00    +0.000 HD
ATOM     18  H   UNL     1       7.749  10.756   1.179  0.00  0.00    +0.000 HD
ATOM     19  H   UNL     1       8.571   9.765  -0.039  0.00  0.00    +0.000 HD
ENDBRANCH  13  16
ENDBRANCH  10  13
ENDBRANCH   7  10
ENDBRANCH   4   7
ENDBRANCH   1   4
BRANCH   1  20
ATOM     20  C   UNL     1       3.215   9.397   2.514  0.00  0.00    +0.000 C 
ATOM     21  H   UNL     1       2.908  10.408   2.805  0.00  0.00    +0.000 HD
ATOM     22  H   UNL     1       2.343   8.744   2.638  0.00  0.00    +0.000 HD
BRANCH  20  23
ATOM     23  C   UNL     1       3.657   9.392   1.049  0.00  0.00    +0.000 C 
ATOM     24  H   UNL     1       2.802   9.155   0.405  0.00  0.00    +0.000 HD
ATOM     25  H   UNL     1       4.408   8.607   0.893  0.00  0.00    +0.000 HD
BRANCH  23  26
ATOM     26  C   UNL     1       4.245  10.747   0.641  0.00  0.00    +0.000 C 
ATOM     27  H   UNL     1       4.635  11.269   1.523  0.00  0.00    +0.000 HD
ATOM     28  H   UNL     1       5.105  10.601  -0.025  0.00  0.00    +0.000 HD
BRANCH  26  29
ATOM     29  C   UNL     1       3.220  11.634  -0.056  0.00  0.00    +0.000 C 
ATOM     30  H   UNL     1       3.371  12.683   0.216  0.00  0.00    +0.000 HD
ATOM     31  H   UNL     1       2.203  11.340   0.223  0.00  0.00    +0.000 HD
BRANCH  29  32
ATOM     32  O   UNL     1       3.353  11.512  -1.464  0.00  0.00    +0.000 OA
ATOM     33  H   UNL     1       3.979  10.786  -1.630  0.00  0.00    +0.000 HD
ENDBRANCH  29  32
ENDBRANCH  26  29
ENDBRANCH  23  26
ENDBRANCH  20  23
ENDBRANCH   1  20
TORSDOF 10
ENDMDL
MODEL 5
REMARK VINA RESULT:    -4.300     28.715     29.906
REMARK INTER + INTRA:          -7.318
REMARK INTER:                  -6.735
REMARK INTRA:                  -0.583
REMARK UNBOUND:                -0.756
REMARK  Name = 8174
REMARK  10 active torsions:
REMARK  status: ('A' for Active; 'I' for Inactive)
REMARK    1  A    between atoms: O_1  and  C_10
REMARK    2  A    between atoms: C_2  and  C_3
REMARK    3  A    between atoms: C_2  and  C_4
REMARK    4  A    between atoms: C_3  and  C_5
REMARK    5  A    between atoms: C_4  and  C_6
REMARK    6  A    between atoms: C_5  and  C_7
REMARK    7  A    between atoms: C_6  and  C_8
REMARK    8  A    between atoms: C_7  and  C_9
REMARK    9  A    between atoms: C_8  and  C_10
REMARK   10  A    between atoms: C_9  and  C_11
REMARK                            x       y       z     vdW  Elec       q    Type
REMARK                         _______ _______ _______ _____ _____    ______ ____
ROOT
ATOM      1  C   UNL     1       7.952   9.754   0.618  0.00  0.00    +0.000 C 
ATOM      2  H   UNL     1       8.808   9.267   0.134  0.00  0.00    +0.000 HD
ATOM      3  H   UNL     1       8.265  10.778   0.857  0.00  0.00    +0.000 HD
ENDROOT
BRANCH   1   4
ATOM      4  C   UNL     1       7.633   9.013   1.920  0.00  0.00    +0.000 C 
ATOM      5  H   UNL     1       7.290   9.735   2.671  0.00  0.00    +0.000 HD
ATOM      6  H   UNL     1       8.557   8.568   2.309  0.00  0.00    +0.000 HD
BRANCH   4   7
ATOM      7  C   UNL     1       6.580   7.915   1.754  0.00  0.00    +0.000 C 
ATOM      8  H   UNL     1       5.697   8.325   1.251  0.00  0.00    +0.000 HD
ATOM      9  H   UNL     1       6.980   7.121   1.110  0.00  0.00    +0.000 HD
BRANCH   7  10
ATOM     10  C   UNL     1       6.180   7.322   3.107  0.00  0.00    +0.000 C 
ATOM     11  H   UNL     1       6.753   7.809   3.906  0.00  0.00    +0.000 HD
ATOM     12  H   UNL     1       6.435   6.256   3.131  0.00  0.00    +0.000 HD
BRANCH  10  13
ATOM     13  C   UNL     1       4.684   7.494   3.370  0.00  0.00    +0.000 C 
ATOM     14  H   UNL     1       4.525   7.878   4.385  0.00  0.00    +0.000 HD
ATOM     15  H   UNL     1       4.181   6.522   3.308  0.00  0.00    +0.000 HD
BRANCH  13  16
ATOM     16  C   UNL     1       4.049   8.450   2.373  0.00  0.00    +0.000 C 
ATOM     17  H   UNL     1       4.631   9.374   2.292  0.00  0.00    +0.000 HD
ATOM     18  H   UNL     1       3.029   8.711   2.674  0.00  0.00    +0.000 HD
ATOM     19  H   UNL     1       4.004   7.989   1.381  0.00  0.00    +0.000 HD
ENDBRANCH  13  16
ENDBRANCH  10  13
ENDBRANCH   7  10
ENDBRANCH   4   7
ENDBRANCH   1   4
BRANCH   1  20
ATOM     20  C   UNL     1       6.775   9.805  -0.358  0.00  0.00    +0.000 C 
ATOM     21  H   UNL     1       5.894   9.348   0.108  0.00  0.00    +0.000 HD
ATOM     22  H   UNL     1       7.014   9.213  -1.250  0.00  0.00    +0.000 HD
BRANCH  20  23
ATOM     23  C   UNL     1       6.456  11.245  -0.766  0.00  0.00    +0.000 C 
ATOM     24  H   UNL     1       6.010  11.256  -1.768  0.00  0.00    +0.000 HD
ATOM     25  H   UNL     1       7.385  11.827  -0.819  0.00  0.00    +0.000 HD
BRANCH  23  26
ATOM     26  C   UNL     1       5.498  11.905   0.230  0.00  0.00    +0.000 C 
ATOM     27  H   UNL     1       5.742  11.590   1.252  0.00  0.00    +0.000 HD
ATOM     28  H   UNL     1       5.627  12.995   0.214  0.00  0.00    +0.000 HD
BRANCH  26  29
ATOM     29  C   UNL     1       4.040  11.572  -0.065  0.00  0.00    +0.000 C 
ATOM     30  H   UNL     1       3.953  10.566  -0.487  0.00  0.00    +0.000 HD
ATOM     31  H   UNL     1       3.617  12.290  -0.775  0.00  0.00    +0.000 HD
BRANCH  29  32
ATOM     32  O   UNL     1       3.280  11.624   1.133  0.00  0.00    +0.000 OA
ATOM     33  H   UNL     1       2.385  11.917   0.890  0.00  0.00    +0.000 HD
ENDBRANCH  29  32
ENDBRANCH  26  29
ENDBRANCH  23  26
ENDBRANCH  20  23
ENDBRANCH   1  20
TORSDOF 10
ENDMDL
MODEL 6
REMARK VINA RESULT:    -4.289     29.083     30.223
REMARK INTER + INTRA:          -7.302
REMARK INTER:                  -6.506
REMARK INTRA:                  -0.796
REMARK UNBOUND:                -0.756
REMARK  Name = 8174
REMARK  10 active torsions:
REMARK  status: ('A' for Active; 'I' for Inactive)
REMARK    1  A    between atoms: O_1  and  C_10
REMARK    2  A    between atoms: C_2  and  C_3
REMARK    3  A    between atoms: C_2  and  C_4
REMARK    4  A    between atoms: C_3  and  C_5
REMARK    5  A    between atoms: C_4  and  C_6
REMARK    6  A    between atoms: C_5  and  C_7
REMARK    7  A    between atoms: C_6  and  C_8
REMARK    8  A    between atoms: C_7  and  C_9
REMARK    9  A    between atoms: C_8  and  C_10
REMARK   10  A    between atoms: C_9  and  C_11
REMARK                            x       y       z     vdW  Elec       q    Type
REMARK                         _______ _______ _______ _____ _____    ______ ____
ROOT
ATOM      1  C   UNL     1       7.850   9.545   0.282  0.00  0.00    +0.000 C 
ATOM      2  H   UNL     1       7.525  10.155   1.135  0.00  0.00    +0.000 HD
ATOM      3  H   UNL     1       8.863   9.192   0.514  0.00  0.00    +0.000 HD
ENDROOT
BRANCH   1   4
ATOM      4  C   UNL     1       7.903  10.429  -0.968  0.00  0.00    +0.000 C 
ATOM      5  H   UNL     1       8.131   9.805  -1.840  0.00  0.00    +0.000 HD
ATOM      6  H   UNL     1       8.732  11.139  -0.862  0.00  0.00    +0.000 HD
BRANCH   4   7
ATOM      7  C   UNL     1       6.608  11.203  -1.222  0.00  0.00    +0.000 C 
ATOM      8  H   UNL     1       6.772  11.945  -2.011  0.00  0.00    +0.000 HD
ATOM      9  H   UNL     1       5.835  10.512  -1.581  0.00  0.00    +0.000 HD
BRANCH   7  10
ATOM     10  C   UNL     1       6.120  11.899   0.052  0.00  0.00    +0.000 C 
ATOM     11  H   UNL     1       6.345  12.971  -0.006  0.00  0.00    +0.000 HD
ATOM     12  H   UNL     1       6.665  11.502   0.918  0.00  0.00    +0.000 HD
BRANCH  10  13
ATOM     13  C   UNL     1       4.619  11.697   0.257  0.00  0.00    +0.000 C 
ATOM     14  H   UNL     1       4.120  12.670   0.338  0.00  0.00    +0.000 HD
ATOM     15  H   UNL     1       4.441  11.161   1.196  0.00  0.00    +0.000 HD
BRANCH  13  16
ATOM     16  C   UNL     1       4.000  10.916  -0.891  0.00  0.00    +0.000 C 
ATOM     17  H   UNL     1       4.105   9.837  -0.733  0.00  0.00    +0.000 HD
ATOM     18  H   UNL     1       4.477  11.172  -1.843  0.00  0.00    +0.000 HD
ATOM     19  H   UNL     1       2.933  11.145  -0.973  0.00  0.00    +0.000 HD
ENDBRANCH  13  16
ENDBRANCH  10  13
ENDBRANCH   7  10
ENDBRANCH   4   7
ENDBRANCH   1   4
BRANCH   1  20
ATOM     20  C   UNL     1       6.920   8.339   0.136  0.00  0.00    +0.000 C 
ATOM     21  H   UNL     1       7.516   7.418   0.131  0.00  0.00    +0.000 HD
ATOM     22  H   UNL     1       6.398   8.393  -0.827  0.00  0.00    +0.000 HD
BRANCH  20  23
ATOM     23  C   UNL     1       5.897   8.287   1.274  0.00  0.00    +0.000 C 
ATOM     24  H   UNL     1       5.131   7.536   1.049  0.00  0.00    +0.000 HD
ATOM     25  H   UNL     1       5.388   9.256   1.355  0.00  0.00    +0.000 HD
BRANCH  23  26
ATOM     26  C   UNL     1       6.569   7.952   2.610  0.00  0.00    +0.000 C 
ATOM     27  H   UNL     1       7.592   7.597   2.438  0.00  0.00    +0.000 HD
ATOM     28  H   UNL     1       6.665   8.858   3.222  0.00  0.00    +0.000 HD
BRANCH  26  29
ATOM     29  C   UNL     1       5.796   6.900   3.395  0.00  0.00    +0.000 C 
ATOM     30  H   UNL     1       5.887   5.919   2.918  0.00  0.00    +0.000 HD
ATOM     31  H   UNL     1       4.735   7.165   3.455  0.00  0.00    +0.000 HD
BRANCH  29  32
ATOM     32  O   UNL     1       6.311   6.805   4.715  0.00  0.00    +0.000 OA
ATOM     33  H   UNL     1       7.279   6.886   4.650  0.00  0.00    +0.000 HD
ENDBRANCH  29  32
ENDBRANCH  26  29
ENDBRANCH  23  26
ENDBRANCH  20  23
ENDBRANCH   1  20
TORSDOF 10
ENDMDL
MODEL 7
REMARK VINA RESULT:    -4.265      1.061      2.091
REMARK INTER + INTRA:          -7.265
REMARK INTER:                  -6.596
REMARK INTRA:                  -0.669
REMARK UNBOUND:                -0.756
REMARK  Name = 8174
REMARK  10 active torsions:
REMARK  status: ('A' for Active; 'I' for Inactive)
REMARK    1  A    between atoms: O_1  and  C_10
REMARK    2  A    between atoms: C_2  and  C_3
REMARK    3  A    between atoms: C_2  and  C_4
REMARK    4  A    between atoms: C_3  and  C_5
REMARK    5  A    between atoms: C_4  and  C_6
REMARK    6  A    between atoms: C_5  and  C_7
REMARK    7  A    between atoms: C_6  and  C_8
REMARK    8  A    between atoms: C_7  and  C_9
REMARK    9  A    between atoms: C_8  and  C_10
REMARK   10  A    between atoms: C_9  and  C_11
REMARK                            x       y       z     vdW  Elec       q    Type
REMARK                         _______ _______ _______ _____ _____    ______ ____
ROOT
ATOM      1  C   UNL     1     -22.647  -2.831   4.613  0.00  0.00    +0.000 C 
ATOM      2  H   UNL     1     -21.942  -2.116   4.170  0.00  0.00    +0.000 HD
ATOM      3  H   UNL     1     -23.339  -3.128   3.815  0.00  0.00    +0.000 HD
ENDROOT
BRANCH   1   4
ATOM      4  C   UNL     1     -23.434  -2.128   5.722  0.00  0.00    +0.000 C 
ATOM      5  H   UNL     1     -24.464  -2.506   5.728  0.00  0.00    +0.000 HD
ATOM      6  H   UNL     1     -23.493  -1.057   5.489  0.00  0.00    +0.000 HD
BRANCH   4   7
ATOM      7  C   UNL     1     -22.820  -2.306   7.112  0.00  0.00    +0.000 C 
ATOM      8  H   UNL     1     -23.586  -2.663   7.810  0.00  0.00    +0.000 HD
ATOM      9  H   UNL     1     -22.037  -3.073   7.068  0.00  0.00    +0.000 HD
BRANCH   7  10
ATOM     10  C   UNL     1     -22.221  -0.993   7.625  0.00  0.00    +0.000 C 
ATOM     11  H   UNL     1     -22.455  -0.874   8.690  0.00  0.00    +0.000 HD
ATOM     12  H   UNL     1     -22.683  -0.149   7.097  0.00  0.00    +0.000 HD
BRANCH  10  13
ATOM     13  C   UNL     1     -20.707  -0.955   7.422  0.00  0.00    +0.000 C 
ATOM     14  H   UNL     1     -20.306  -1.976   7.415  0.00  0.00    +0.000 HD
ATOM     15  H   UNL     1     -20.233  -0.426   8.257  0.00  0.00    +0.000 HD
BRANCH  13  16
ATOM     16  C   UNL     1     -20.336  -0.267   6.118  0.00  0.00    +0.000 C 
ATOM     17  H   UNL     1     -20.477  -0.941   5.266  0.00  0.00    +0.000 HD
ATOM     18  H   UNL     1     -19.291   0.059   6.130  0.00  0.00    +0.000 HD
ATOM     19  H   UNL     1     -20.966   0.614   5.962  0.00  0.00    +0.000 HD
ENDBRANCH  13  16
ENDBRANCH  10  13
ENDBRANCH   7  10
ENDBRANCH   4   7
ENDBRANCH   1   4
BRANCH   1  20
ATOM     20  C   UNL     1     -21.882  -4.065   5.096  0.00  0.00    +0.000 C 
ATOM     21  H   UNL     1     -22.108  -4.914   4.439  0.00  0.00    +0.000 HD
ATOM     22  H   UNL     1     -22.223  -4.336   6.103  0.00  0.00    +0.000 HD
BRANCH  20  23
ATOM     23  C   UNL     1     -20.374  -3.810   5.114  0.00  0.00    +0.000 C 
ATOM     24  H   UNL     1     -19.949  -4.164   6.061  0.00  0.00    +0.000 HD
ATOM     25  H   UNL     1     -20.182  -2.732   5.057  0.00  0.00    +0.000 HD
BRANCH  23  26
ATOM     26  C   UNL     1     -19.677  -4.514   3.945  0.00  0.00    +0.000 C 
ATOM     27  H   UNL     1     -20.413  -4.794   3.182  0.00  0.00    +0.000 HD
ATOM     28  H   UNL     1     -18.980  -3.826   3.451  0.00  0.00    +0.000 HD
BRANCH  26  29
ATOM     29  C   UNL     1     -18.918  -5.758   4.392  0.00  0.00    +0.000 C 
ATOM     30  H   UNL     1     -18.033  -5.914   3.766  0.00  0.00    +0.000 HD
ATOM     31  H   UNL     1     -19.557  -6.645   4.326  0.00  0.00    +0.000 HD
BRANCH  29  32
ATOM     32  O   UNL     1     -18.494  -5.609   5.739  0.00  0.00    +0.000 OA
ATOM     33  H   UNL     1     -17.730  -6.198   5.864  0.00  0.00    +0.000 HD
ENDBRANCH  29  32
ENDBRANCH  26  29
ENDBRANCH  23  26
ENDBRANCH  20  23
ENDBRANCH   1  20
TORSDOF 10
ENDMDL
MODEL 8
REMARK VINA RESULT:    -4.162     26.357     27.692
REMARK INTER + INTRA:          -7.108
REMARK INTER:                  -6.315
REMARK INTRA:                  -0.793
REMARK UNBOUND:                -0.756
REMARK  Name = 8174
REMARK  10 active torsions:
REMARK  status: ('A' for Active; 'I' for Inactive)
REMARK    1  A    between atoms: O_1  and  C_10
REMARK    2  A    between atoms: C_2  and  C_3
REMARK    3  A    between atoms: C_2  and  C_4
REMARK    4  A    between atoms: C_3  and  C_5
REMARK    5  A    between atoms: C_4  and  C_6
REMARK    6  A    between atoms: C_5  and  C_7
REMARK    7  A    between atoms: C_6  and  C_8
REMARK    8  A    between atoms: C_7  and  C_9
REMARK    9  A    between atoms: C_8  and  C_10
REMARK   10  A    between atoms: C_9  and  C_11
REMARK                            x       y       z     vdW  Elec       q    Type
REMARK                         _______ _______ _______ _____ _____    ______ ____
ROOT
ATOM      1  C   UNL     1      -2.787   8.529  -8.920  0.00  0.00    +0.000 C 
ATOM      2  H   UNL     1      -3.354   8.848  -8.036  0.00  0.00    +0.000 HD
ATOM      3  H   UNL     1      -1.794   8.224  -8.566  0.00  0.00    +0.000 HD
ENDROOT
BRANCH   1   4
ATOM      4  C   UNL     1      -2.634   9.723  -9.866  0.00  0.00    +0.000 C 
ATOM      5  H   UNL     1      -3.062  10.615  -9.393  0.00  0.00    +0.000 HD
ATOM      6  H   UNL     1      -3.222   9.533 -10.773  0.00  0.00    +0.000 HD
BRANCH   4   7
ATOM      7  C   UNL     1      -1.183  10.005 -10.261  0.00  0.00    +0.000 C 
ATOM      8  H   UNL     1      -0.856  10.949  -9.810  0.00  0.00    +0.000 HD
ATOM      9  H   UNL     1      -0.537   9.214  -9.862  0.00  0.00    +0.000 HD
BRANCH   7  10
ATOM     10  C   UNL     1      -1.027  10.075 -11.782  0.00  0.00    +0.000 C 
ATOM     11  H   UNL     1      -0.554  11.025 -12.060  0.00  0.00    +0.000 HD
ATOM     12  H   UNL     1      -2.017  10.059 -12.254  0.00  0.00    +0.000 HD
BRANCH  10  13
ATOM     13  C   UNL     1      -0.191   8.909 -12.310  0.00  0.00    +0.000 C 
ATOM     14  H   UNL     1      -0.581   7.963 -11.917  0.00  0.00    +0.000 HD
ATOM     15  H   UNL     1       0.843   9.005 -11.960  0.00  0.00    +0.000 HD
BRANCH  13  16
ATOM     16  C   UNL     1      -0.203   8.858 -13.829  0.00  0.00    +0.000 C 
ATOM     17  H   UNL     1       0.749   8.479 -14.216  0.00  0.00    +0.000 HD
ATOM     18  H   UNL     1      -0.377   9.851 -14.255  0.00  0.00    +0.000 HD
ATOM     19  H   UNL     1      -1.000   8.194 -14.179  0.00  0.00    +0.000 HD
ENDBRANCH  13  16
ENDBRANCH  10  13
ENDBRANCH   7  10
ENDBRANCH   4   7
ENDBRANCH   1   4
BRANCH   1  20
ATOM     20  C   UNL     1      -3.481   7.326  -9.563  0.00  0.00    +0.000 C 
ATOM     21  H   UNL     1      -4.460   7.634  -9.949  0.00  0.00    +0.000 HD
ATOM     22  H   UNL     1      -3.659   6.557  -8.802  0.00  0.00    +0.000 HD
BRANCH  20  23
ATOM     23  C   UNL     1      -2.637   6.743 -10.698  0.00  0.00    +0.000 C 
ATOM     24  H   UNL     1      -2.397   5.695 -10.480  0.00  0.00    +0.000 HD
ATOM     25  H   UNL     1      -1.686   7.285 -10.766  0.00  0.00    +0.000 HD
BRANCH  23  26
ATOM     26  C   UNL     1      -3.372   6.832 -12.040  0.00  0.00    +0.000 C 
ATOM     27  H   UNL     1      -2.837   7.509 -12.717  0.00  0.00    +0.000 HD
ATOM     28  H   UNL     1      -3.375   5.853 -12.535  0.00  0.00    +0.000 HD
BRANCH  26  29
ATOM     29  C   UNL     1      -4.809   7.314 -11.878  0.00  0.00    +0.000 C 
ATOM     30  H   UNL     1      -4.993   8.193 -12.504  0.00  0.00    +0.000 HD
ATOM     31  H   UNL     1      -5.013   7.575 -10.835  0.00  0.00    +0.000 HD
BRANCH  29  32
ATOM     32  O   UNL     1      -5.709   6.288 -12.270  0.00  0.00    +0.000 OA
ATOM     33  H   UNL     1      -5.264   5.439 -12.106  0.00  0.00    +0.000 HD
ENDBRANCH  29  32
ENDBRANCH  26  29
ENDBRANCH  23  26
ENDBRANCH  20  23
ENDBRANCH   1  20
TORSDOF 10
ENDMDL
MODEL 9
REMARK VINA RESULT:    -4.126      2.036      5.519
REMARK INTER + INTRA:          -7.052
REMARK INTER:                  -6.513
REMARK INTRA:                  -0.540
REMARK UNBOUND:                -0.756
REMARK  Name = 8174
REMARK  10 active torsions:
REMARK  status: ('A' for Active; 'I' for Inactive)
REMARK    1  A    between atoms: O_1  and  C_10
REMARK    2  A    between atoms: C_2  and  C_3
REMARK    3  A    between atoms: C_2  and  C_4
REMARK    4  A    between atoms: C_3  and  C_5
REMARK    5  A    between atoms: C_4  and  C_6
REMARK    6  A    between atoms: C_5  and  C_7
REMARK    7  A    between atoms: C_6  and  C_8
REMARK    8  A    between atoms: C_7  and  C_9
REMARK    9  A    between atoms: C_8  and  C_10
REMARK   10  A    between atoms: C_9  and  C_11
REMARK                            x       y       z     vdW  Elec       q    Type
REMARK                         _______ _______ _______ _____ _____    ______ ____
ROOT
ATOM      1  C   UNL     1     -20.772  -2.772   4.495  0.00  0.00    +0.000 C 
ATOM      2  H   UNL     1     -21.747  -2.899   4.006  0.00  0.00    +0.000 HD
ATOM      3  H   UNL     1     -20.025  -2.697   3.694  0.00  0.00    +0.000 HD
ENDROOT
BRANCH   1   4
ATOM      4  C   UNL     1     -20.476  -4.015   5.339  0.00  0.00    +0.000 C 
ATOM      5  H   UNL     1     -21.387  -4.622   5.418  0.00  0.00    +0.000 HD
ATOM      6  H   UNL     1     -20.218  -3.698   6.357  0.00  0.00    +0.000 HD
BRANCH   4   7
ATOM      7  C   UNL     1     -19.341  -4.875   4.780  0.00  0.00    +0.000 C 
ATOM      8  H   UNL     1     -18.410  -4.297   4.772  0.00  0.00    +0.000 HD
ATOM      9  H   UNL     1     -19.181  -5.739   5.437  0.00  0.00    +0.000 HD
BRANCH   7  10
ATOM     10  C   UNL     1     -19.661  -5.362   3.364  0.00  0.00    +0.000 C 
ATOM     11  H   UNL     1     -20.609  -4.922   3.029  0.00  0.00    +0.000 HD
ATOM     12  H   UNL     1     -19.796  -6.451   3.372  0.00  0.00    +0.000 HD
BRANCH  10  13
ATOM     13  C   UNL     1     -18.548  -4.994   2.383  0.00  0.00    +0.000 C 
ATOM     14  H   UNL     1     -18.069  -5.905   2.004  0.00  0.00    +0.000 HD
ATOM     15  H   UNL     1     -17.775  -4.412   2.899  0.00  0.00    +0.000 HD
BRANCH  13  16
ATOM     16  C   UNL     1     -19.082  -4.189   1.210  0.00  0.00    +0.000 C 
ATOM     17  H   UNL     1     -19.105  -4.794   0.298  0.00  0.00    +0.000 HD
ATOM     18  H   UNL     1     -18.460  -3.308   1.022  0.00  0.00    +0.000 HD
ATOM     19  H   UNL     1     -20.101  -3.847   1.417  0.00  0.00    +0.000 HD
ENDBRANCH  13  16
ENDBRANCH  10  13
ENDBRANCH   7  10
ENDBRANCH   4   7
ENDBRANCH   1   4
BRANCH   1  20
ATOM     20  C   UNL     1     -20.773  -1.473   5.303  0.00  0.00    +0.000 C 
ATOM     21  H   UNL     1     -21.766  -1.012   5.249  0.00  0.00    +0.000 HD
ATOM     22  H   UNL     1     -20.062  -0.765   4.859  0.00  0.00    +0.000 HD
BRANCH  20  23
ATOM     23  C   UNL     1     -20.399  -1.730   6.764  0.00  0.00    +0.000 C 
ATOM     24  H   UNL     1     -19.322  -1.580   6.902  0.00  0.00    +0.000 HD
ATOM     25  H   UNL     1     -20.617  -2.773   7.022  0.00  0.00    +0.000 HD
BRANCH  23  26
ATOM     26  C   UNL     1     -21.171  -0.800   7.707  0.00  0.00    +0.000 C 
ATOM     27  H   UNL     1     -20.476  -0.286   8.381  0.00  0.00    +0.000 HD
ATOM     28  H   UNL     1     -21.671  -0.010   7.132  0.00  0.00    +0.000 HD
BRANCH  26  29
ATOM     29  C   UNL     1     -22.210  -1.550   8.531  0.00  0.00    +0.000 C 
ATOM     30  H   UNL     1     -23.222  -1.294   8.201  0.00  0.00    +0.000 HD
ATOM     31  H   UNL     1     -22.112  -1.302   9.593  0.00  0.00    +0.000 HD
BRANCH  29  32
ATOM     32  O   UNL     1     -22.031  -2.950   8.379  0.00  0.00    +0.000 OA
ATOM     33  H   UNL     1     -22.736  -3.266   7.788  0.00  0.00    +0.000 HD
ENDBRANCH  29  32
ENDBRANCH  26  29
ENDBRANCH  23  26
ENDBRANCH  20  23
ENDBRANCH   1  20
TORSDOF 10
ENDMDL
MODEL 10
REMARK VINA RESULT:    -4.046     25.181     26.554
REMARK INTER + INTRA:          -6.931
REMARK INTER:                  -6.175
REMARK INTRA:                  -0.756
REMARK UNBOUND:                -0.756
REMARK  Name = 8174
REMARK  10 active torsions:
REMARK  status: ('A' for Active; 'I' for Inactive)
REMARK    1  A    between atoms: O_1  and  C_10
REMARK    2  A    between atoms: C_2  and  C_3
REMARK    3  A    between atoms: C_2  and  C_4
REMARK    4  A    between atoms: C_3  and  C_5
REMARK    5  A    between atoms: C_4  and  C_6
REMARK    6  A    between atoms: C_5  and  C_7
REMARK    7  A    between atoms: C_6  and  C_8
REMARK    8  A    between atoms: C_7  and  C_9
REMARK    9  A    between atoms: C_8  and  C_10
REMARK   10  A    between atoms: C_9  and  C_11
REMARK                            x       y       z     vdW  Elec       q    Type
REMARK                         _______ _______ _______ _____ _____    ______ ____
ROOT
ATOM      1  C   UNL     1      -2.860   8.645  -8.818  0.00  0.00    +0.000 C 
ATOM      2  H   UNL     1      -3.669   8.980  -8.157  0.00  0.00    +0.000 HD
ATOM      3  H   UNL     1      -1.933   8.695  -8.233  0.00  0.00    +0.000 HD
ENDROOT
BRANCH   1   4
ATOM      4  C   UNL     1      -2.756   9.611 -10.002  0.00  0.00    +0.000 C 
ATOM      5  H   UNL     1      -3.189  10.577  -9.717  0.00  0.00    +0.000 HD
ATOM      6  H   UNL     1      -3.365   9.223 -10.828  0.00  0.00    +0.000 HD
BRANCH   4   7
ATOM      7  C   UNL     1      -1.323   9.821 -10.492  0.00  0.00    +0.000 C 
ATOM      8  H   UNL     1      -1.042  10.874 -10.370  0.00  0.00    +0.000 HD
ATOM      9  H   UNL     1      -0.635   9.229  -9.875  0.00  0.00    +0.000 HD
BRANCH   7  10
ATOM     10  C   UNL     1      -1.174   9.410 -11.960  0.00  0.00    +0.000 C 
ATOM     11  H   UNL     1      -0.443  10.064 -12.452  0.00  0.00    +0.000 HD
ATOM     12  H   UNL     1      -2.131   9.548 -12.478  0.00  0.00    +0.000 HD
BRANCH  10  13
ATOM     13  C   UNL     1      -0.729   7.954 -12.088  0.00  0.00    +0.000 C 
ATOM     14  H   UNL     1      -0.802   7.454 -11.114  0.00  0.00    +0.000 HD
ATOM     15  H   UNL     1       0.322   7.911 -12.397  0.00  0.00    +0.000 HD
BRANCH  13  16
ATOM     16  C   UNL     1      -1.579   7.199 -13.097  0.00  0.00    +0.000 C 
ATOM     17  H   UNL     1      -2.646   7.331 -12.889  0.00  0.00    +0.000 HD
ATOM     18  H   UNL     1      -1.355   6.127 -13.076  0.00  0.00    +0.000 HD
ATOM     19  H   UNL     1      -1.382   7.567 -14.109  0.00  0.00    +0.000 HD
ENDBRANCH  13  16
ENDBRANCH  10  13
ENDBRANCH   7  10
ENDBRANCH   4   7
ENDBRANCH   1   4
BRANCH   1  20
ATOM     20  C   UNL     1      -3.110   7.194  -9.235  0.00  0.00    +0.000 C 
ATOM     21  H   UNL     1      -3.577   6.652  -8.404  0.00  0.00    +0.000 HD
ATOM     22  H   UNL     1      -2.152   6.703  -9.445  0.00  0.00    +0.000 HD
BRANCH  20  23
ATOM     23  C   UNL     1      -4.009   7.121 -10.472  0.00  0.00    +0.000 C 
ATOM     24  H   UNL     1      -3.482   6.600 -11.281  0.00  0.00    +0.000 HD
ATOM     25  H   UNL     1      -4.228   8.135 -10.828  0.00  0.00    +0.000 HD
BRANCH  23  26
ATOM     26  C   UNL     1      -5.321   6.394 -10.162  0.00  0.00    +0.000 C 
ATOM     27  H   UNL     1      -6.175   7.028 -10.430  0.00  0.00    +0.000 HD
ATOM     28  H   UNL     1      -5.411   5.494 -10.785  0.00  0.00    +0.000 HD
BRANCH  26  29
ATOM     29  C   UNL     1      -5.428   5.997  -8.695  0.00  0.00    +0.000 C 
ATOM     30  H   UNL     1      -5.510   6.886  -8.061  0.00  0.00    +0.000 HD
ATOM     31  H   UNL     1      -4.549   5.422  -8.386  0.00  0.00    +0.000 HD
BRANCH  29  32
ATOM     32  O   UNL     1      -6.583   5.196  -8.493  0.00  0.00    +0.000 OA
ATOM     33  H   UNL     1      -7.175   5.692  -7.901  0.00  0.00    +0.000 HD
ENDBRANCH  29  32
ENDBRANCH  26  29
ENDBRANCH  23  26
ENDBRANCH  20  23
ENDBRANCH   1  20
TORSDOF 10
ENDMDL
