MODEL 1
REMARK VINA RESULT:    -4.736      0.000      0.000
REMARK INTER + INTRA:          -8.327
REMARK INTER:                  -7.257
REMARK INTRA:                  -1.070
REMARK UNBOUND:                -0.684
REMARK  Name = 8192
REMARK  11 active torsions:
REMARK  status: ('A' for Active; 'I' for Inactive)
REMARK    1  A    between atoms: C_2  and  C_3
REMARK    2  A    between atoms: C_2  and  C_4
REMARK    3  A    between atoms: C_3  and  C_5
REMARK    4  A    between atoms: C_4  and  C_6
REMARK    5  A    between atoms: C_5  and  C_7
REMARK    6  A    between atoms: C_6  and  C_8
REMARK    7  A    between atoms: C_7  and  C_9
REMARK    8  A    between atoms: C_8  and  C_10
REMARK    9  A    between atoms: C_9  and  C_11
REMARK   10  A    between atoms: C_10  and  C_12
REMARK   11  A    between atoms: C_11  and  C_13
REMARK                            x       y       z     vdW  Elec       q    Type
REMARK                         _______ _______ _______ _____ _____    ______ ____
ROOT
ATOM      1  C   UNL     1     -20.548  -0.816   5.626  0.00  0.00    +0.000 C 
ATOM      2  H   UNL     1     -21.336  -0.064   5.507  0.00  0.00    +0.000 HD
ATOM      3  H   UNL     1     -19.605  -0.349   5.315  0.00  0.00    +0.000 HD
ENDROOT
BRANCH   1   4
ATOM      4  C   UNL     1     -20.847  -2.021   4.728  0.00  0.00    +0.000 C 
ATOM      5  H   UNL     1     -21.882  -1.966   4.370  0.00  0.00    +0.000 HD
ATOM      6  H   UNL     1     -20.196  -1.996   3.846  0.00  0.00    +0.000 HD
BRANCH   4   7
ATOM      7  C   UNL     1     -20.634  -3.337   5.480  0.00  0.00    +0.000 C 
ATOM      8  H   UNL     1     -21.417  -3.447   6.240  0.00  0.00    +0.000 HD
ATOM      9  H   UNL     1     -19.677  -3.300   6.015  0.00  0.00    +0.000 HD
BRANCH   7  10
ATOM     10  C   UNL     1     -20.649  -4.567   4.569  0.00  0.00    +0.000 C 
ATOM     11  H   UNL     1     -21.118  -5.403   5.103  0.00  0.00    +0.000 HD
ATOM     12  H   UNL     1     -21.280  -4.357   3.696  0.00  0.00    +0.000 HD
BRANCH  10  13
ATOM     13  C   UNL     1     -19.257  -4.994   4.099  0.00  0.00    +0.000 C 
ATOM     14  H   UNL     1     -19.110  -6.061   4.306  0.00  0.00    +0.000 HD
ATOM     15  H   UNL     1     -18.497  -4.447   4.670  0.00  0.00    +0.000 HD
BRANCH  13  16
ATOM     16  C   UNL     1     -19.070  -4.728   2.605  0.00  0.00    +0.000 C 
ATOM     17  H   UNL     1     -19.694  -5.417   2.024  0.00  0.00    +0.000 HD
ATOM     18  H   UNL     1     -19.399  -3.710   2.364  0.00  0.00    +0.000 HD
BRANCH  16  19
ATOM     19  C   UNL     1     -17.618  -4.893   2.186  0.00  0.00    +0.000 C 
ATOM     20  H   UNL     1     -17.533  -5.552   1.316  0.00  0.00    +0.000 HD
ATOM     21  H   UNL     1     -17.173  -3.925   1.929  0.00  0.00    +0.000 HD
ATOM     22  H   UNL     1     -17.035  -5.329   3.002  0.00  0.00    +0.000 HD
ENDBRANCH  16  19
ENDBRANCH  13  16
ENDBRANCH  10  13
ENDBRANCH   7  10
ENDBRANCH   4   7
ENDBRANCH   1   4
BRANCH   1  23
ATOM     23  C   UNL     1     -20.456  -1.230   7.095  0.00  0.00    +0.000 C 
ATOM     24  H   UNL     1     -20.825  -2.257   7.210  0.00  0.00    +0.000 HD
ATOM     25  H   UNL     1     -19.403  -1.236   7.404  0.00  0.00    +0.000 HD
BRANCH  23  26
ATOM     26  C   UNL     1     -21.242  -0.314   8.039  0.00  0.00    +0.000 C 
ATOM     27  H   UNL     1     -20.552   0.078   8.798  0.00  0.00    +0.000 HD
ATOM     28  H   UNL     1     -21.598   0.554   7.468  0.00  0.00    +0.000 HD
BRANCH  26  29
ATOM     29  C   UNL     1     -22.435  -0.955   8.753  0.00  0.00    +0.000 C 
ATOM     30  H   UNL     1     -23.355  -0.451   8.432  0.00  0.00    +0.000 HD
ATOM     31  H   UNL     1     -22.338  -0.780   9.831  0.00  0.00    +0.000 HD
BRANCH  29  32
ATOM     32  C   UNL     1     -22.567  -2.458   8.492  0.00  0.00    +0.000 C 
ATOM     33  H   UNL     1     -21.753  -2.785   7.835  0.00  0.00    +0.000 HD
ATOM     34  H   UNL     1     -22.460  -3.002   9.438  0.00  0.00    +0.000 HD
BRANCH  32  36
ATOM     35 CL   UNL     1     -24.100  -1.914   6.317  0.00  0.00    +0.000 Cl
ATOM     36  C   UNL     1     -23.912  -2.785   7.855  0.00  0.00    +0.000 C 
ATOM     37  H   UNL     1     -24.741  -2.491   8.507  0.00  0.00    +0.000 HD
ATOM     38  H   UNL     1     -24.000  -3.856   7.644  0.00  0.00    +0.000 HD
ENDBRANCH  32  36
ENDBRANCH  29  32
ENDBRANCH  26  29
ENDBRANCH  23  26
ENDBRANCH   1  23
TORSDOF 11
ENDMDL
MODEL 2
REMARK VINA RESULT:    -4.723     19.262     22.458
REMARK INTER + INTRA:          -8.306
REMARK INTER:                  -7.481
REMARK INTRA:                  -0.825
REMARK UNBOUND:                -0.684
REMARK  Name = 8192
REMARK  11 active torsions:
REMARK  status: ('A' for Active; 'I' for Inactive)
REMARK    1  A    between atoms: C_2  and  C_3
REMARK    2  A    between atoms: C_2  and  C_4
REMARK    3  A    between atoms: C_3  and  C_5
REMARK    4  A    between atoms: C_4  and  C_6
REMARK    5  A    between atoms: C_5  and  C_7
REMARK    6  A    between atoms: C_6  and  C_8
REMARK    7  A    between atoms: C_7  and  C_9
REMARK    8  A    between atoms: C_8  and  C_10
REMARK    9  A    between atoms: C_9  and  C_11
REMARK   10  A    between atoms: C_10  and  C_12
REMARK   11  A    between atoms: C_11  and  C_13
REMARK                            x       y       z     vdW  Elec       q    Type
REMARK                         _______ _______ _______ _____ _____    ______ ____
ROOT
ATOM      1  C   UNL     1      -6.972   4.353  -8.131  0.00  0.00    +0.000 C 
ATOM      2  H   UNL     1      -6.325   3.746  -8.774  0.00  0.00    +0.000 HD
ATOM      3  H   UNL     1      -6.766   4.061  -7.094  0.00  0.00    +0.000 HD
ENDROOT
BRANCH   1   4
ATOM      4  C   UNL     1      -8.441   4.071  -8.464  0.00  0.00    +0.000 C 
ATOM      5  H   UNL     1      -8.955   5.013  -8.689  0.00  0.00    +0.000 HD
ATOM      6  H   UNL     1      -8.503   3.446  -9.363  0.00  0.00    +0.000 HD
BRANCH   4   7
ATOM      7  C   UNL     1      -9.146   3.365  -7.304  0.00  0.00    +0.000 C 
ATOM      8  H   UNL     1      -9.237   2.296  -7.538  0.00  0.00    +0.000 HD
ATOM      9  H   UNL     1     -10.166   3.756  -7.205  0.00  0.00    +0.000 HD
BRANCH   7  10
ATOM     10  C   UNL     1      -8.419   3.521  -5.966  0.00  0.00    +0.000 C 
ATOM     11  H   UNL     1      -8.344   2.539  -5.482  0.00  0.00    +0.000 HD
ATOM     12  H   UNL     1      -7.393   3.859  -6.154  0.00  0.00    +0.000 HD
BRANCH  10  13
ATOM     13  C   UNL     1      -9.108   4.497  -5.010  0.00  0.00    +0.000 C 
ATOM     14  H   UNL     1      -9.227   4.026  -4.026  0.00  0.00    +0.000 HD
ATOM     15  H   UNL     1     -10.114   4.722  -5.383  0.00  0.00    +0.000 HD
BRANCH  13  16
ATOM     16  C   UNL     1      -8.309   5.792  -4.868  0.00  0.00    +0.000 C 
ATOM     17  H   UNL     1      -8.234   6.069  -3.810  0.00  0.00    +0.000 HD
ATOM     18  H   UNL     1      -7.287   5.642  -5.237  0.00  0.00    +0.000 HD
BRANCH  16  19
ATOM     19  C   UNL     1      -8.952   6.933  -5.640  0.00  0.00    +0.000 C 
ATOM     20  H   UNL     1      -9.872   7.268  -5.151  0.00  0.00    +0.000 HD
ATOM     21  H   UNL     1      -8.271   7.787  -5.715  0.00  0.00    +0.000 HD
ATOM     22  H   UNL     1      -9.204   6.609  -6.655  0.00  0.00    +0.000 HD
ENDBRANCH  16  19
ENDBRANCH  13  16
ENDBRANCH  10  13
ENDBRANCH   7  10
ENDBRANCH   4   7
ENDBRANCH   1   4
BRANCH   1  23
ATOM     23  C   UNL     1      -6.636   5.833  -8.323  0.00  0.00    +0.000 C 
ATOM     24  H   UNL     1      -7.534   6.371  -8.654  0.00  0.00    +0.000 HD
ATOM     25  H   UNL     1      -6.346   6.266  -7.358  0.00  0.00    +0.000 HD
BRANCH  23  26
ATOM     26  C   UNL     1      -5.512   6.078  -9.335  0.00  0.00    +0.000 C 
ATOM     27  H   UNL     1      -5.319   5.141  -9.874  0.00  0.00    +0.000 HD
ATOM     28  H   UNL     1      -5.866   6.798 -10.084  0.00  0.00    +0.000 HD
BRANCH  26  29
ATOM     29  C   UNL     1      -4.189   6.584  -8.754  0.00  0.00    +0.000 C 
ATOM     30  H   UNL     1      -3.834   5.870  -8.001  0.00  0.00    +0.000 HD
ATOM     31  H   UNL     1      -4.371   7.531  -8.231  0.00  0.00    +0.000 HD
BRANCH  29  32
ATOM     32  C   UNL     1      -3.098   6.788  -9.809  0.00  0.00    +0.000 C 
ATOM     33  H   UNL     1      -2.127   6.500  -9.387  0.00  0.00    +0.000 HD
ATOM     34  H   UNL     1      -3.290   6.127 -10.663  0.00  0.00    +0.000 HD
BRANCH  32  36
ATOM     35 CL   UNL     1      -2.217   9.250  -9.076  0.00  0.00    +0.000 Cl
ATOM     36  C   UNL     1      -3.053   8.238 -10.275  0.00  0.00    +0.000 C 
ATOM     37  H   UNL     1      -4.062   8.643 -10.405  0.00  0.00    +0.000 HD
ATOM     38  H   UNL     1      -2.516   8.332 -11.224  0.00  0.00    +0.000 HD
ENDBRANCH  32  36
ENDBRANCH  29  32
ENDBRANCH  26  29
ENDBRANCH  23  26
ENDBRANCH   1  23
TORSDOF 11
ENDMDL
MODEL 3
REMARK VINA RESULT:    -4.709     25.534     27.724
REMARK INTER + INTRA:          -8.283
REMARK INTER:                  -6.921
REMARK INTRA:                  -1.362
REMARK UNBOUND:                -0.684
REMARK  Name = 8192
REMARK  11 active torsions:
REMARK  status: ('A' for Active; 'I' for Inactive)
REMARK    1  A    between atoms: C_2  and  C_3
REMARK    2  A    between atoms: C_2  and  C_4
REMARK    3  A    between atoms: C_3  and  C_5
REMARK    4  A    between atoms: C_4  and  C_6
REMARK    5  A    between atoms: C_5  and  C_7
REMARK    6  A    between atoms: C_6  and  C_8
REMARK    7  A    between atoms: C_7  and  C_9
REMARK    8  A    between atoms: C_8  and  C_10
REMARK    9  A    between atoms: C_9  and  C_11
REMARK   10  A    between atoms: C_10  and  C_12
REMARK   11  A    between atoms: C_11  and  C_13
REMARK                            x       y       z     vdW  Elec       q    Type
REMARK                         _______ _______ _______ _____ _____    ______ ____
ROOT
ATOM      1  C   UNL     1      -2.713   9.709  -9.905  0.00  0.00    +0.000 C 
ATOM      2  H   UNL     1      -3.205   9.285 -10.788  0.00  0.00    +0.000 HD
ATOM      3  H   UNL     1      -3.243  10.637  -9.654  0.00  0.00    +0.000 HD
ENDROOT
BRANCH   1   4
ATOM      4  C   UNL     1      -1.250  10.023 -10.232  0.00  0.00    +0.000 C 
ATOM      5  H   UNL     1      -0.984  11.006  -9.824  0.00  0.00    +0.000 HD
ATOM      6  H   UNL     1      -0.597   9.286  -9.751  0.00  0.00    +0.000 HD
BRANCH   4   7
ATOM      7  C   UNL     1      -1.005  10.012 -11.743  0.00  0.00    +0.000 C 
ATOM      8  H   UNL     1      -0.309  10.821 -11.999  0.00  0.00    +0.000 HD
ATOM      9  H   UNL     1      -1.945  10.225 -12.266  0.00  0.00    +0.000 HD
BRANCH   7  10
ATOM     10  C   UNL     1      -0.436   8.686 -12.256  0.00  0.00    +0.000 C 
ATOM     11  H   UNL     1       0.660   8.724 -12.208  0.00  0.00    +0.000 HD
ATOM     12  H   UNL     1      -0.753   7.878 -11.586  0.00  0.00    +0.000 HD
BRANCH  10  13
ATOM     13  C   UNL     1      -0.861   8.356 -13.688  0.00  0.00    +0.000 C 
ATOM     14  H   UNL     1       0.028   8.264 -14.324  0.00  0.00    +0.000 HD
ATOM     15  H   UNL     1      -1.461   9.181 -14.089  0.00  0.00    +0.000 HD
BRANCH  13  16
ATOM     16  C   UNL     1      -1.668   7.059 -13.741  0.00  0.00    +0.000 C 
ATOM     17  H   UNL     1      -0.991   6.197 -13.703  0.00  0.00    +0.000 HD
ATOM     18  H   UNL     1      -2.326   6.993 -12.866  0.00  0.00    +0.000 HD
BRANCH  16  19
ATOM     19  C   UNL     1      -2.512   6.977 -15.003  0.00  0.00    +0.000 C 
ATOM     20  H   UNL     1      -2.149   6.187 -15.667  0.00  0.00    +0.000 HD
ATOM     21  H   UNL     1      -3.560   6.769 -14.760  0.00  0.00    +0.000 HD
ATOM     22  H   UNL     1      -2.472   7.925 -15.548  0.00  0.00    +0.000 HD
ENDBRANCH  16  19
ENDBRANCH  13  16
ENDBRANCH  10  13
ENDBRANCH   7  10
ENDBRANCH   4   7
ENDBRANCH   1   4
BRANCH   1  23
ATOM     23  C   UNL     1      -2.820   8.725  -8.739  0.00  0.00    +0.000 C 
ATOM     24  H   UNL     1      -1.858   8.674  -8.215  0.00  0.00    +0.000 HD
ATOM     25  H   UNL     1      -3.555   9.100  -8.016  0.00  0.00    +0.000 HD
BRANCH  23  26
ATOM     26  C   UNL     1      -3.225   7.311  -9.168  0.00  0.00    +0.000 C 
ATOM     27  H   UNL     1      -2.450   6.610  -8.830  0.00  0.00    +0.000 HD
ATOM     28  H   UNL     1      -4.144   7.034  -8.636  0.00  0.00    +0.000 HD
BRANCH  26  29
ATOM     29  C   UNL     1      -3.445   7.104 -10.669  0.00  0.00    +0.000 C 
ATOM     30  H   UNL     1      -2.761   6.324 -11.024  0.00  0.00    +0.000 HD
ATOM     31  H   UNL     1      -3.174   8.026 -11.197  0.00  0.00    +0.000 HD
BRANCH  29  32
ATOM     32  C   UNL     1      -4.881   6.717 -11.028  0.00  0.00    +0.000 C 
ATOM     33  H   UNL     1      -4.985   5.626 -10.984  0.00  0.00    +0.000 HD
ATOM     34  H   UNL     1      -5.569   7.138 -10.284  0.00  0.00    +0.000 HD
BRANCH  32  36
ATOM     35 CL   UNL     1      -4.639   8.871 -12.665  0.00  0.00    +0.000 Cl
ATOM     36  C   UNL     1      -5.251   7.220 -12.418  0.00  0.00    +0.000 C 
ATOM     37  H   UNL     1      -6.337   7.244 -12.554  0.00  0.00    +0.000 HD
ATOM     38  H   UNL     1      -4.817   6.584 -13.197  0.00  0.00    +0.000 HD
ENDBRANCH  32  36
ENDBRANCH  29  32
ENDBRANCH  26  29
ENDBRANCH  23  26
ENDBRANCH   1  23
TORSDOF 11
ENDMDL
MODEL 4
REMARK VINA RESULT:    -4.683      2.536      6.187
REMARK INTER + INTRA:          -8.242
REMARK INTER:                  -7.314
REMARK INTRA:                  -0.928
REMARK UNBOUND:                -0.684
REMARK  Name = 8192
REMARK  11 active torsions:
REMARK  status: ('A' for Active; 'I' for Inactive)
REMARK    1  A    between atoms: C_2  and  C_3
REMARK    2  A    between atoms: C_2  and  C_4
REMARK    3  A    between atoms: C_3  and  C_5
REMARK    4  A    between atoms: C_4  and  C_6
REMARK    5  A    between atoms: C_5  and  C_7
REMARK    6  A    between atoms: C_6  and  C_8
REMARK    7  A    between atoms: C_7  and  C_9
REMARK    8  A    between atoms: C_8  and  C_10
REMARK    9  A    between atoms: C_9  and  C_11
REMARK   10  A    between atoms: C_10  and  C_12
REMARK   11  A    between atoms: C_11  and  C_13
REMARK                            x       y       z     vdW  Elec       q    Type
REMARK                         _______ _______ _______ _____ _____    ______ ____
ROOT
ATOM      1  C   UNL     1     -20.967  -1.930   4.900  0.00  0.00    +0.000 C 
ATOM      2  H   UNL     1     -20.276  -2.034   4.055  0.00  0.00    +0.000 HD
ATOM      3  H   UNL     1     -21.973  -1.802   4.482  0.00  0.00    +0.000 HD
ENDROOT
BRANCH   1   4
ATOM      4  C   UNL     1     -20.590  -0.696   5.726  0.00  0.00    +0.000 C 
ATOM      5  H   UNL     1     -19.671  -0.252   5.325  0.00  0.00    +0.000 HD
ATOM      6  H   UNL     1     -21.379   0.060   5.642  0.00  0.00    +0.000 HD
BRANCH   4   7
ATOM      7  C   UNL     1     -20.386  -1.057   7.199  0.00  0.00    +0.000 C 
ATOM      8  H   UNL     1     -19.392  -0.717   7.517  0.00  0.00    +0.000 HD
ATOM      9  H   UNL     1     -20.397  -2.148   7.312  0.00  0.00    +0.000 HD
BRANCH   7  10
ATOM     10  C   UNL     1     -21.440  -0.447   8.126  0.00  0.00    +0.000 C 
ATOM     11  H   UNL     1     -20.936   0.058   8.960  0.00  0.00    +0.000 HD
ATOM     12  H   UNL     1     -21.993   0.326   7.578  0.00  0.00    +0.000 HD
BRANCH  10  13
ATOM     13  C   UNL     1     -22.424  -1.475   8.687  0.00  0.00    +0.000 C 
ATOM     14  H   UNL     1     -22.360  -1.486   9.782  0.00  0.00    +0.000 HD
ATOM     15  H   UNL     1     -22.145  -2.476   8.337  0.00  0.00    +0.000 HD
BRANCH  13  16
ATOM     16  C   UNL     1     -23.858  -1.161   8.259  0.00  0.00    +0.000 C 
ATOM     17  H   UNL     1     -24.565  -1.602   8.972  0.00  0.00    +0.000 HD
ATOM     18  H   UNL     1     -24.021  -0.077   8.268  0.00  0.00    +0.000 HD
BRANCH  16  19
ATOM     19  C   UNL     1     -24.154  -1.695   6.866  0.00  0.00    +0.000 C 
ATOM     20  H   UNL     1     -24.889  -1.066   6.353  0.00  0.00    +0.000 HD
ATOM     21  H   UNL     1     -23.244  -1.728   6.258  0.00  0.00    +0.000 HD
ATOM     22  H   UNL     1     -24.558  -2.710   6.927  0.00  0.00    +0.000 HD
ENDBRANCH  16  19
ENDBRANCH  13  16
ENDBRANCH  10  13
ENDBRANCH   7  10
ENDBRANCH   4   7
ENDBRANCH   1   4
BRANCH   1  23
ATOM     23  C   UNL     1     -20.924  -3.200   5.752  0.00  0.00    +0.000 C 
ATOM     24  H   UNL     1     -20.582  -2.949   6.764  0.00  0.00    +0.000 HD
ATOM     25  H   UNL     1     -21.940  -3.603   5.852  0.00  0.00    +0.000 HD
BRANCH  23  26
ATOM     26  C   UNL     1     -20.013  -4.290   5.179  0.00  0.00    +0.000 C 
ATOM     27  H   UNL     1     -18.997  -4.133   5.565  0.00  0.00    +0.000 HD
ATOM     28  H   UNL     1     -20.343  -5.262   5.568  0.00  0.00    +0.000 HD
BRANCH  26  29
ATOM     29  C   UNL     1     -19.944  -4.370   3.652  0.00  0.00    +0.000 C 
ATOM     30  H   UNL     1     -19.221  -3.628   3.289  0.00  0.00    +0.000 HD
ATOM     31  H   UNL     1     -20.920  -4.088   3.238  0.00  0.00    +0.000 HD
BRANCH  29  32
ATOM     32  C   UNL     1     -19.552  -5.754   3.129  0.00  0.00    +0.000 C 
ATOM     33  H   UNL     1     -18.961  -6.275   3.892  0.00  0.00    +0.000 HD
ATOM     34  H   UNL     1     -20.457  -6.348   2.958  0.00  0.00    +0.000 HD
BRANCH  32  36
ATOM     35 CL   UNL     1     -17.208  -4.811   2.131  0.00  0.00    +0.000 Cl
ATOM     36  C   UNL     1     -18.752  -5.643   1.837  0.00  0.00    +0.000 C 
ATOM     37  H   UNL     1     -19.299  -5.071   1.081  0.00  0.00    +0.000 HD
ATOM     38  H   UNL     1     -18.524  -6.632   1.427  0.00  0.00    +0.000 HD
ENDBRANCH  32  36
ENDBRANCH  29  32
ENDBRANCH  26  29
ENDBRANCH  23  26
ENDBRANCH   1  23
TORSDOF 11
ENDMDL
MODEL 5
REMARK VINA RESULT:    -4.669     26.934     30.081
REMARK INTER + INTRA:          -8.219
REMARK INTER:                  -7.570
REMARK INTRA:                  -0.649
REMARK UNBOUND:                -0.684
REMARK  Name = 8192
REMARK  11 active torsions:
REMARK  status: ('A' for Active; 'I' for Inactive)
REMARK    1  A    between atoms: C_2  and  C_3
REMARK    2  A    between atoms: C_2  and  C_4
REMARK    3  A    between atoms: C_3  and  C_5
REMARK    4  A    between atoms: C_4  and  C_6
REMARK    5  A    between atoms: C_5  and  C_7
REMARK    6  A    between atoms: C_6  and  C_8
REMARK    7  A    between atoms: C_7  and  C_9
REMARK    8  A    between atoms: C_8  and  C_10
REMARK    9  A    between atoms: C_9  and  C_11
REMARK   10  A    between atoms: C_10  and  C_12
REMARK   11  A    between atoms: C_11  and  C_13
REMARK                            x       y       z     vdW  Elec       q    Type
REMARK                         _______ _______ _______ _____ _____    ______ ____
ROOT
ATOM      1  C   UNL     1      -1.112  10.059 -11.975  0.00  0.00    +0.000 C 
ATOM      2  H   UNL     1      -0.653  10.985 -12.337  0.00  0.00    +0.000 HD
ATOM      3  H   UNL     1      -2.123  10.011 -12.399  0.00  0.00    +0.000 HD
ENDROOT
BRANCH   1   4
ATOM      4  C   UNL     1      -1.196  10.087 -10.446  0.00  0.00    +0.000 C 
ATOM      5  H   UNL     1      -0.509   9.343 -10.025  0.00  0.00    +0.000 HD
ATOM      6  H   UNL     1      -0.876  11.069 -10.076  0.00  0.00    +0.000 HD
BRANCH   4   7
ATOM      7  C   UNL     1      -2.620   9.801  -9.963  0.00  0.00    +0.000 C 
ATOM      8  H   UNL     1      -3.190   9.345 -10.782  0.00  0.00    +0.000 HD
ATOM      9  H   UNL     1      -3.118  10.747  -9.719  0.00  0.00    +0.000 HD
BRANCH   7  10
ATOM     10  C   UNL     1      -2.674   8.877  -8.744  0.00  0.00    +0.000 C 
ATOM     11  H   UNL     1      -1.655   8.719  -8.369  0.00  0.00    +0.000 HD
ATOM     12  H   UNL     1      -3.232   9.376  -7.942  0.00  0.00    +0.000 HD
BRANCH  10  13
ATOM     13  C   UNL     1      -3.314   7.519  -9.039  0.00  0.00    +0.000 C 
ATOM     14  H   UNL     1      -4.404   7.630  -9.096  0.00  0.00    +0.000 HD
ATOM     15  H   UNL     1      -3.103   6.830  -8.213  0.00  0.00    +0.000 HD
BRANCH  13  16
ATOM     16  C   UNL     1      -2.787   6.931 -10.348  0.00  0.00    +0.000 C 
ATOM     17  H   UNL     1      -1.950   7.534 -10.717  0.00  0.00    +0.000 HD
ATOM     18  H   UNL     1      -2.406   5.917 -10.175  0.00  0.00    +0.000 HD
BRANCH  16  19
ATOM     19  C   UNL     1      -3.872   6.876 -11.412  0.00  0.00    +0.000 C 
ATOM     20  H   UNL     1      -4.709   7.533 -11.153  0.00  0.00    +0.000 HD
ATOM     21  H   UNL     1      -3.480   7.186 -12.387  0.00  0.00    +0.000 HD
ATOM     22  H   UNL     1      -4.257   5.857 -11.509  0.00  0.00    +0.000 HD
ENDBRANCH  16  19
ENDBRANCH  13  16
ENDBRANCH  10  13
ENDBRANCH   7  10
ENDBRANCH   4   7
ENDBRANCH   1   4
BRANCH   1  23
ATOM     23  C   UNL     1      -0.295   8.861 -12.462  0.00  0.00    +0.000 C 
ATOM     24  H   UNL     1       0.577   8.724 -11.809  0.00  0.00    +0.000 HD
ATOM     25  H   UNL     1      -0.901   7.950 -12.376  0.00  0.00    +0.000 HD
BRANCH  23  26
ATOM     26  C   UNL     1       0.189   8.999 -13.909  0.00  0.00    +0.000 C 
ATOM     27  H   UNL     1       1.218   8.621 -13.969  0.00  0.00    +0.000 HD
ATOM     28  H   UNL     1      -0.418   8.341 -14.545  0.00  0.00    +0.000 HD
BRANCH  26  29
ATOM     29  C   UNL     1       0.157  10.413 -14.493  0.00  0.00    +0.000 C 
ATOM     30  H   UNL     1       0.618  11.105 -13.777  0.00  0.00    +0.000 HD
ATOM     31  H   UNL     1      -0.888  10.726 -14.607  0.00  0.00    +0.000 HD
BRANCH  29  32
ATOM     32  C   UNL     1       0.873  10.534 -15.841  0.00  0.00    +0.000 C 
ATOM     33  H   UNL     1       0.226  11.065 -16.549  0.00  0.00    +0.000 HD
ATOM     34  H   UNL     1       1.782  11.134 -15.718  0.00  0.00    +0.000 HD
BRANCH  32  36
ATOM     35 CL   UNL     1       0.865   9.074 -18.131  0.00  0.00    +0.000 Cl
ATOM     36  C   UNL     1       1.230   9.159 -16.394  0.00  0.00    +0.000 C 
ATOM     37  H   UNL     1       0.658   8.371 -15.895  0.00  0.00    +0.000 HD
ATOM     38  H   UNL     1       2.297   8.947 -16.267  0.00  0.00    +0.000 HD
ENDBRANCH  32  36
ENDBRANCH  29  32
ENDBRANCH  26  29
ENDBRANCH  23  26
ENDBRANCH   1  23
TORSDOF 11
ENDMDL
MODEL 6
REMARK VINA RESULT:    -4.633     24.418     27.533
REMARK INTER + INTRA:          -8.161
REMARK INTER:                  -6.734
REMARK INTRA:                  -1.427
REMARK UNBOUND:                -0.684
REMARK  Name = 8192
REMARK  11 active torsions:
REMARK  status: ('A' for Active; 'I' for Inactive)
REMARK    1  A    between atoms: C_2  and  C_3
REMARK    2  A    between atoms: C_2  and  C_4
REMARK    3  A    between atoms: C_3  and  C_5
REMARK    4  A    between atoms: C_4  and  C_6
REMARK    5  A    between atoms: C_5  and  C_7
REMARK    6  A    between atoms: C_6  and  C_8
REMARK    7  A    between atoms: C_7  and  C_9
REMARK    8  A    between atoms: C_8  and  C_10
REMARK    9  A    between atoms: C_9  and  C_11
REMARK   10  A    between atoms: C_10  and  C_12
REMARK   11  A    between atoms: C_11  and  C_13
REMARK                            x       y       z     vdW  Elec       q    Type
REMARK                         _______ _______ _______ _____ _____    ______ ____
ROOT
ATOM      1  C   UNL     1      -2.142   9.967 -11.657  0.00  0.00    +0.000 C 
ATOM      2  H   UNL     1      -1.730   9.256 -12.382  0.00  0.00    +0.000 HD
ATOM      3  H   UNL     1      -1.757  10.960 -11.921  0.00  0.00    +0.000 HD
ENDROOT
BRANCH   1   4
ATOM      4  C   UNL     1      -1.675   9.592 -10.247  0.00  0.00    +0.000 C 
ATOM      5  H   UNL     1      -1.216   8.596 -10.263  0.00  0.00    +0.000 HD
ATOM      6  H   UNL     1      -0.905  10.298  -9.912  0.00  0.00    +0.000 HD
BRANCH   4   7
ATOM      7  C   UNL     1      -2.841   9.604  -9.256  0.00  0.00    +0.000 C 
ATOM      8  H   UNL     1      -3.764   9.860  -9.792  0.00  0.00    +0.000 HD
ATOM      9  H   UNL     1      -2.678  10.393  -8.511  0.00  0.00    +0.000 HD
BRANCH   7  10
ATOM     10  C   UNL     1      -3.039   8.269  -8.534  0.00  0.00    +0.000 C 
ATOM     11  H   UNL     1      -2.242   8.142  -7.790  0.00  0.00    +0.000 HD
ATOM     12  H   UNL     1      -3.985   8.299  -7.980  0.00  0.00    +0.000 HD
BRANCH  10  13
ATOM     13  C   UNL     1      -3.039   7.063  -9.475  0.00  0.00    +0.000 C 
ATOM     14  H   UNL     1      -2.579   6.203  -8.972  0.00  0.00    +0.000 HD
ATOM     15  H   UNL     1      -2.424   7.288 -10.355  0.00  0.00    +0.000 HD
BRANCH  13  16
ATOM     16  C   UNL     1      -4.458   6.704  -9.916  0.00  0.00    +0.000 C 
ATOM     17  H   UNL     1      -4.966   7.597 -10.298  0.00  0.00    +0.000 HD
ATOM     18  H   UNL     1      -4.421   5.976 -10.736  0.00  0.00    +0.000 HD
BRANCH  16  19
ATOM     19  C   UNL     1      -5.268   6.119  -8.770  0.00  0.00    +0.000 C 
ATOM     20  H   UNL     1      -4.627   5.895  -7.911  0.00  0.00    +0.000 HD
ATOM     21  H   UNL     1      -6.047   6.817  -8.445  0.00  0.00    +0.000 HD
ATOM     22  H   UNL     1      -5.753   5.190  -9.084  0.00  0.00    +0.000 HD
ENDBRANCH  16  19
ENDBRANCH  13  16
ENDBRANCH  10  13
ENDBRANCH   7  10
ENDBRANCH   4   7
ENDBRANCH   1   4
BRANCH   1  23
ATOM     23  C   UNL     1      -3.668   9.966 -11.752  0.00  0.00    +0.000 C 
ATOM     24  H   UNL     1      -4.086   9.388 -10.918  0.00  0.00    +0.000 HD
ATOM     25  H   UNL     1      -4.038  10.993 -11.642  0.00  0.00    +0.000 HD
BRANCH  23  26
ATOM     26  C   UNL     1      -4.198   9.387 -13.068  0.00  0.00    +0.000 C 
ATOM     27  H   UNL     1      -5.280   9.570 -13.117  0.00  0.00    +0.000 HD
ATOM     28  H   UNL     1      -3.754   9.948 -13.901  0.00  0.00    +0.000 HD
BRANCH  26  29
ATOM     29  C   UNL     1      -3.948   7.894 -13.291  0.00  0.00    +0.000 C 
ATOM     30  H   UNL     1      -4.911   7.369 -13.298  0.00  0.00    +0.000 HD
ATOM     31  H   UNL     1      -3.379   7.499 -12.441  0.00  0.00    +0.000 HD
BRANCH  29  32
ATOM     32  C   UNL     1      -3.198   7.588 -14.590  0.00  0.00    +0.000 C 
ATOM     33  H   UNL     1      -3.653   6.716 -15.075  0.00  0.00    +0.000 HD
ATOM     34  H   UNL     1      -3.304   8.434 -15.280  0.00  0.00    +0.000 HD
BRANCH  32  36
ATOM     35 CL   UNL     1      -1.496   6.704 -12.668  0.00  0.00    +0.000 Cl
ATOM     36  C   UNL     1      -1.722   7.322 -14.319  0.00  0.00    +0.000 C 
ATOM     37  H   UNL     1      -1.131   8.238 -14.415  0.00  0.00    +0.000 HD
ATOM     38  H   UNL     1      -1.321   6.576 -15.012  0.00  0.00    +0.000 HD
ENDBRANCH  32  36
ENDBRANCH  29  32
ENDBRANCH  26  29
ENDBRANCH  23  26
ENDBRANCH   1  23
TORSDOF 11
ENDMDL
MODEL 7
REMARK VINA RESULT:    -4.554      1.576      3.397
REMARK INTER + INTRA:          -8.034
REMARK INTER:                  -6.953
REMARK INTRA:                  -1.081
REMARK UNBOUND:                -0.684
REMARK  Name = 8192
REMARK  11 active torsions:
REMARK  status: ('A' for Active; 'I' for Inactive)
REMARK    1  A    between atoms: C_2  and  C_3
REMARK    2  A    between atoms: C_2  and  C_4
REMARK    3  A    between atoms: C_3  and  C_5
REMARK    4  A    between atoms: C_4  and  C_6
REMARK    5  A    between atoms: C_5  and  C_7
REMARK    6  A    between atoms: C_6  and  C_8
REMARK    7  A    between atoms: C_7  and  C_9
REMARK    8  A    between atoms: C_8  and  C_10
REMARK    9  A    between atoms: C_9  and  C_11
REMARK   10  A    between atoms: C_10  and  C_12
REMARK   11  A    between atoms: C_11  and  C_13
REMARK                            x       y       z     vdW  Elec       q    Type
REMARK                         _______ _______ _______ _____ _____    ______ ____
ROOT
ATOM      1  C   UNL     1     -20.675  -4.511   4.662  0.00  0.00    +0.000 C 
ATOM      2  H   UNL     1     -21.404  -5.222   5.067  0.00  0.00    +0.000 HD
ATOM      3  H   UNL     1     -21.038  -4.201   3.675  0.00  0.00    +0.000 HD
ENDROOT
BRANCH   1   4
ATOM      4  C   UNL     1     -19.312  -5.197   4.519  0.00  0.00    +0.000 C 
ATOM      5  H   UNL     1     -18.513  -4.477   4.734  0.00  0.00    +0.000 HD
ATOM      6  H   UNL     1     -19.226  -6.006   5.253  0.00  0.00    +0.000 HD
BRANCH   4   7
ATOM      7  C   UNL     1     -19.124  -5.766   3.110  0.00  0.00    +0.000 C 
ATOM      8  H   UNL     1     -20.079  -6.179   2.761  0.00  0.00    +0.000 HD
ATOM      9  H   UNL     1     -18.414  -6.601   3.147  0.00  0.00    +0.000 HD
BRANCH   7  10
ATOM     10  C   UNL     1     -18.629  -4.731   2.097  0.00  0.00    +0.000 C 
ATOM     11  H   UNL     1     -18.400  -3.796   2.623  0.00  0.00    +0.000 HD
ATOM     12  H   UNL     1     -17.688  -5.084   1.657  0.00  0.00    +0.000 HD
BRANCH  10  13
ATOM     13  C   UNL     1     -19.635  -4.442   0.982  0.00  0.00    +0.000 C 
ATOM     14  H   UNL     1     -20.452  -5.173   1.025  0.00  0.00    +0.000 HD
ATOM     15  H   UNL     1     -19.145  -4.564   0.008  0.00  0.00    +0.000 HD
BRANCH  13  16
ATOM     16  C   UNL     1     -20.202  -3.027   1.100  0.00  0.00    +0.000 C 
ATOM     17  H   UNL     1     -19.682  -2.483   1.897  0.00  0.00    +0.000 HD
ATOM     18  H   UNL     1     -20.032  -2.478   0.167  0.00  0.00    +0.000 HD
BRANCH  16  19
ATOM     19  C   UNL     1     -21.693  -3.047   1.398  0.00  0.00    +0.000 C 
ATOM     20  H   UNL     1     -21.917  -3.712   2.238  0.00  0.00    +0.000 HD
ATOM     21  H   UNL     1     -22.055  -2.043   1.649  0.00  0.00    +0.000 HD
ATOM     22  H   UNL     1     -22.250  -3.400   0.525  0.00  0.00    +0.000 HD
ENDBRANCH  16  19
ENDBRANCH  13  16
ENDBRANCH  10  13
ENDBRANCH   7  10
ENDBRANCH   4   7
ENDBRANCH   1   4
BRANCH   1  23
ATOM     23  C   UNL     1     -20.586  -3.292   5.582  0.00  0.00    +0.000 C 
ATOM     24  H   UNL     1     -21.269  -3.424   6.430  0.00  0.00    +0.000 HD
ATOM     25  H   UNL     1     -19.573  -3.227   5.999  0.00  0.00    +0.000 HD
BRANCH  23  26
ATOM     26  C   UNL     1     -20.918  -1.972   4.880  0.00  0.00    +0.000 C 
ATOM     27  H   UNL     1     -20.364  -1.933   3.932  0.00  0.00    +0.000 HD
ATOM     28  H   UNL     1     -21.983  -1.975   4.614  0.00  0.00    +0.000 HD
BRANCH  26  29
ATOM     29  C   UNL     1     -20.613  -0.698   5.672  0.00  0.00    +0.000 C 
ATOM     30  H   UNL     1     -21.483  -0.031   5.622  0.00  0.00    +0.000 HD
ATOM     31  H   UNL     1     -19.783  -0.170   5.189  0.00  0.00    +0.000 HD
BRANCH  29  32
ATOM     32  C   UNL     1     -20.263  -0.960   7.139  0.00  0.00    +0.000 C 
ATOM     33  H   UNL     1     -19.975  -2.011   7.261  0.00  0.00    +0.000 HD
ATOM     34  H   UNL     1     -19.396  -0.351   7.421  0.00  0.00    +0.000 HD
BRANCH  32  36
ATOM     35 CL   UNL     1     -22.173  -2.130   8.674  0.00  0.00    +0.000 Cl
ATOM     36  C   UNL     1     -21.442  -0.636   8.048  0.00  0.00    +0.000 C 
ATOM     37  H   UNL     1     -22.219  -0.087   7.507  0.00  0.00    +0.000 HD
ATOM     38  H   UNL     1     -21.126  -0.034   8.906  0.00  0.00    +0.000 HD
ENDBRANCH  32  36
ENDBRANCH  29  32
ENDBRANCH  26  29
ENDBRANCH  23  26
ENDBRANCH   1  23
TORSDOF 11
ENDMDL
MODEL 8
REMARK VINA RESULT:    -4.488      2.332      5.272
REMARK INTER + INTRA:          -7.927
REMARK INTER:                  -6.631
REMARK INTRA:                  -1.296
REMARK UNBOUND:                -0.684
REMARK  Name = 8192
REMARK  11 active torsions:
REMARK  status: ('A' for Active; 'I' for Inactive)
REMARK    1  A    between atoms: C_2  and  C_3
REMARK    2  A    between atoms: C_2  and  C_4
REMARK    3  A    between atoms: C_3  and  C_5
REMARK    4  A    between atoms: C_4  and  C_6
REMARK    5  A    between atoms: C_5  and  C_7
REMARK    6  A    between atoms: C_6  and  C_8
REMARK    7  A    between atoms: C_7  and  C_9
REMARK    8  A    between atoms: C_8  and  C_10
REMARK    9  A    between atoms: C_9  and  C_11
REMARK   10  A    between atoms: C_10  and  C_12
REMARK   11  A    between atoms: C_11  and  C_13
REMARK                            x       y       z     vdW  Elec       q    Type
REMARK                         _______ _______ _______ _____ _____    ______ ____
ROOT
ATOM      1  C   UNL     1     -20.286  -1.223   7.011  0.00  0.00    +0.000 C 
ATOM      2  H   UNL     1     -20.237  -2.287   7.269  0.00  0.00    +0.000 HD
ATOM      3  H   UNL     1     -19.278  -0.810   7.143  0.00  0.00    +0.000 HD
ENDROOT
BRANCH   1   4
ATOM      4  C   UNL     1     -21.263  -0.510   7.951  0.00  0.00    +0.000 C 
ATOM      5  H   UNL     1     -20.708  -0.045   8.775  0.00  0.00    +0.000 HD
ATOM      6  H   UNL     1     -21.774   0.295   7.411  0.00  0.00    +0.000 HD
BRANCH   4   7
ATOM      7  C   UNL     1     -22.300  -1.483   8.515  0.00  0.00    +0.000 C 
ATOM      8  H   UNL     1     -22.261  -1.453   9.611  0.00  0.00    +0.000 HD
ATOM      9  H   UNL     1     -22.040  -2.506   8.216  0.00  0.00    +0.000 HD
BRANCH   7  10
ATOM     10  C   UNL     1     -23.730  -1.178   8.060  0.00  0.00    +0.000 C 
ATOM     11  H   UNL     1     -24.433  -1.542   8.819  0.00  0.00    +0.000 HD
ATOM     12  H   UNL     1     -23.862  -0.091   8.003  0.00  0.00    +0.000 HD
BRANCH  10  13
ATOM     13  C   UNL     1     -24.085  -1.805   6.710  0.00  0.00    +0.000 C 
ATOM     14  H   UNL     1     -23.341  -1.510   5.960  0.00  0.00    +0.000 HD
ATOM     15  H   UNL     1     -25.054  -1.417   6.372  0.00  0.00    +0.000 HD
BRANCH  13  16
ATOM     16  C   UNL     1     -24.145  -3.329   6.805  0.00  0.00    +0.000 C 
ATOM     17  H   UNL     1     -23.225  -3.710   7.263  0.00  0.00    +0.000 HD
ATOM     18  H   UNL     1     -24.978  -3.630   7.452  0.00  0.00    +0.000 HD
BRANCH  16  19
ATOM     19  C   UNL     1     -24.325  -3.968   5.437  0.00  0.00    +0.000 C 
ATOM     20  H   UNL     1     -24.917  -4.886   5.508  0.00  0.00    +0.000 HD
ATOM     21  H   UNL     1     -24.832  -3.283   4.749  0.00  0.00    +0.000 HD
ATOM     22  H   UNL     1     -23.352  -4.222   5.007  0.00  0.00    +0.000 HD
ENDBRANCH  16  19
ENDBRANCH  13  16
ENDBRANCH  10  13
ENDBRANCH   7  10
ENDBRANCH   4   7
ENDBRANCH   1   4
BRANCH   1  23
ATOM     23  C   UNL     1     -20.714  -1.073   5.550  0.00  0.00    +0.000 C 
ATOM     24  H   UNL     1     -21.684  -0.560   5.505  0.00  0.00    +0.000 HD
ATOM     25  H   UNL     1     -19.993  -0.433   5.026  0.00  0.00    +0.000 HD
BRANCH  23  26
ATOM     26  C   UNL     1     -20.826  -2.407   4.805  0.00  0.00    +0.000 C 
ATOM     27  H   UNL     1     -21.808  -2.450   4.314  0.00  0.00    +0.000 HD
ATOM     28  H   UNL     1     -20.079  -2.422   4.001  0.00  0.00    +0.000 HD
BRANCH  26  29
ATOM     29  C   UNL     1     -20.655  -3.666   5.659  0.00  0.00    +0.000 C 
ATOM     30  H   UNL     1     -21.619  -4.188   5.721  0.00  0.00    +0.000 HD
ATOM     31  H   UNL     1     -20.392  -3.368   6.681  0.00  0.00    +0.000 HD
BRANCH  29  32
ATOM     32  C   UNL     1     -19.595  -4.629   5.121  0.00  0.00    +0.000 C 
ATOM     33  H   UNL     1     -18.607  -4.158   5.193  0.00  0.00    +0.000 HD
ATOM     34  H   UNL     1     -19.571  -5.530   5.746  0.00  0.00    +0.000 HD
BRANCH  32  36
ATOM     35 CL   UNL     1     -18.402  -4.920   2.698  0.00  0.00    +0.000 Cl
ATOM     36  C   UNL     1     -19.886  -5.009   3.674  0.00  0.00    +0.000 C 
ATOM     37  H   UNL     1     -20.619  -4.331   3.227  0.00  0.00    +0.000 HD
ATOM     38  H   UNL     1     -20.270  -6.031   3.603  0.00  0.00    +0.000 HD
ENDBRANCH  32  36
ENDBRANCH  29  32
ENDBRANCH  26  29
ENDBRANCH  23  26
ENDBRANCH   1  23
TORSDOF 11
ENDMDL
MODEL 9
REMARK VINA RESULT:    -4.477     25.466     28.334
REMARK INTER + INTRA:          -7.910
REMARK INTER:                  -6.644
REMARK INTRA:                  -1.266
REMARK UNBOUND:                -0.684
REMARK  Name = 8192
REMARK  11 active torsions:
REMARK  status: ('A' for Active; 'I' for Inactive)
REMARK    1  A    between atoms: C_2  and  C_3
REMARK    2  A    between atoms: C_2  and  C_4
REMARK    3  A    between atoms: C_3  and  C_5
REMARK    4  A    between atoms: C_4  and  C_6
REMARK    5  A    between atoms: C_5  and  C_7
REMARK    6  A    between atoms: C_6  and  C_8
REMARK    7  A    between atoms: C_7  and  C_9
REMARK    8  A    between atoms: C_8  and  C_10
REMARK    9  A    between atoms: C_9  and  C_11
REMARK   10  A    between atoms: C_10  and  C_12
REMARK   11  A    between atoms: C_11  and  C_13
REMARK                            x       y       z     vdW  Elec       q    Type
REMARK                         _______ _______ _______ _____ _____    ______ ____
ROOT
ATOM      1  C   UNL     1      -1.664  10.073 -11.434  0.00  0.00    +0.000 C 
ATOM      2  H   UNL     1      -0.885  10.755 -11.079  0.00  0.00    +0.000 HD
ATOM      3  H   UNL     1      -2.084  10.508 -12.349  0.00  0.00    +0.000 HD
ENDROOT
BRANCH   1   4
ATOM      4  C   UNL     1      -2.762   9.947 -10.373  0.00  0.00    +0.000 C 
ATOM      5  H   UNL     1      -3.151  10.941 -10.124  0.00  0.00    +0.000 HD
ATOM      6  H   UNL     1      -3.599   9.363 -10.773  0.00  0.00    +0.000 HD
BRANCH   4   7
ATOM      7  C   UNL     1      -2.232   9.272  -9.105  0.00  0.00    +0.000 C 
ATOM      8  H   UNL     1      -2.083  10.034  -8.329  0.00  0.00    +0.000 HD
ATOM      9  H   UNL     1      -1.248   8.833  -9.311  0.00  0.00    +0.000 HD
BRANCH   7  10
ATOM     10  C   UNL     1      -3.161   8.183  -8.562  0.00  0.00    +0.000 C 
ATOM     11  H   UNL     1      -2.870   7.945  -7.531  0.00  0.00    +0.000 HD
ATOM     12  H   UNL     1      -4.184   8.576  -8.518  0.00  0.00    +0.000 HD
BRANCH  10  13
ATOM     13  C   UNL     1      -3.145   6.899  -9.394  0.00  0.00    +0.000 C 
ATOM     14  H   UNL     1      -2.957   6.039  -8.740  0.00  0.00    +0.000 HD
ATOM     15  H   UNL     1      -2.320   6.943 -10.115  0.00  0.00    +0.000 HD
BRANCH  13  16
ATOM     16  C   UNL     1      -4.467   6.703 -10.136  0.00  0.00    +0.000 C 
ATOM     17  H   UNL     1      -4.860   5.699  -9.938  0.00  0.00    +0.000 HD
ATOM     18  H   UNL     1      -5.211   7.420  -9.769  0.00  0.00    +0.000 HD
BRANCH  16  19
ATOM     19  C   UNL     1      -4.299   6.888 -11.636  0.00  0.00    +0.000 C 
ATOM     20  H   UNL     1      -3.240   6.936 -11.909  0.00  0.00    +0.000 HD
ATOM     21  H   UNL     1      -4.760   6.061 -12.187  0.00  0.00    +0.000 HD
ATOM     22  H   UNL     1      -4.776   7.818 -11.959  0.00  0.00    +0.000 HD
ENDBRANCH  16  19
ENDBRANCH  13  16
ENDBRANCH  10  13
ENDBRANCH   7  10
ENDBRANCH   4   7
ENDBRANCH   1   4
BRANCH   1  23
ATOM     23  C   UNL     1      -1.044   8.711 -11.752  0.00  0.00    +0.000 C 
ATOM     24  H   UNL     1      -0.477   8.356 -10.882  0.00  0.00    +0.000 HD
ATOM     25  H   UNL     1      -1.844   7.981 -11.928  0.00  0.00    +0.000 HD
BRANCH  23  26
ATOM     26  C   UNL     1      -0.115   8.732 -12.970  0.00  0.00    +0.000 C 
ATOM     27  H   UNL     1       0.492   9.646 -12.928  0.00  0.00    +0.000 HD
ATOM     28  H   UNL     1       0.587   7.892 -12.890  0.00  0.00    +0.000 HD
BRANCH  26  29
ATOM     29  C   UNL     1      -0.803   8.670 -14.337  0.00  0.00    +0.000 C 
ATOM     30  H   UNL     1      -0.036   8.652 -15.121  0.00  0.00    +0.000 HD
ATOM     31  H   UNL     1      -1.383   9.589 -14.484  0.00  0.00    +0.000 HD
BRANCH  29  32
ATOM     32  C   UNL     1      -1.722   7.457 -14.502  0.00  0.00    +0.000 C 
ATOM     33  H   UNL     1      -1.282   6.765 -15.230  0.00  0.00    +0.000 HD
ATOM     34  H   UNL     1      -1.795   6.922 -13.548  0.00  0.00    +0.000 HD
BRANCH  32  36
ATOM     35 CL   UNL     1      -3.370   9.612 -14.638  0.00  0.00    +0.000 Cl
ATOM     36  C   UNL     1      -3.111   7.884 -14.964  0.00  0.00    +0.000 C 
ATOM     37  H   UNL     1      -3.891   7.325 -14.438  0.00  0.00    +0.000 HD
ATOM     38  H   UNL     1      -3.235   7.725 -16.040  0.00  0.00    +0.000 HD
ENDBRANCH  32  36
ENDBRANCH  29  32
ENDBRANCH  26  29
ENDBRANCH  23  26
ENDBRANCH   1  23
TORSDOF 11
ENDMDL
MODEL 10
REMARK VINA RESULT:    -4.428     27.226     30.382
REMARK INTER + INTRA:          -7.830
REMARK INTER:                  -7.146
REMARK INTRA:                  -0.684
REMARK UNBOUND:                -0.684
REMARK  Name = 8192
REMARK  11 active torsions:
REMARK  status: ('A' for Active; 'I' for Inactive)
REMARK    1  A    between atoms: C_2  and  C_3
REMARK    2  A    between atoms: C_2  and  C_4
REMARK    3  A    between atoms: C_3  and  C_5
REMARK    4  A    between atoms: C_4  and  C_6
REMARK    5  A    between atoms: C_5  and  C_7
REMARK    6  A    between atoms: C_6  and  C_8
REMARK    7  A    between atoms: C_7  and  C_9
REMARK    8  A    between atoms: C_8  and  C_10
REMARK    9  A    between atoms: C_9  and  C_11
REMARK   10  A    between atoms: C_10  and  C_12
REMARK   11  A    between atoms: C_11  and  C_13
REMARK                            x       y       z     vdW  Elec       q    Type
REMARK                         _______ _______ _______ _____ _____    ______ ____
ROOT
ATOM      1  C   UNL     1      -1.448   8.631 -13.340  0.00  0.00    +0.000 C 
ATOM      2  H   UNL     1      -2.279   9.299 -13.090  0.00  0.00    +0.000 HD
ATOM      3  H   UNL     1      -1.597   8.300 -14.376  0.00  0.00    +0.000 HD
ENDROOT
BRANCH   1   4
ATOM      4  C   UNL     1      -1.461   7.417 -12.405  0.00  0.00    +0.000 C 
ATOM      5  H   UNL     1      -0.738   6.672 -12.757  0.00  0.00    +0.000 HD
ATOM      6  H   UNL     1      -1.149   7.721 -11.399  0.00  0.00    +0.000 HD
BRANCH   4   7
ATOM      7  C   UNL     1      -2.854   6.787 -12.336  0.00  0.00    +0.000 C 
ATOM      8  H   UNL     1      -2.752   5.695 -12.297  0.00  0.00    +0.000 HD
ATOM      9  H   UNL     1      -3.406   7.021 -13.255  0.00  0.00    +0.000 HD
BRANCH   7  10
ATOM     10  C   UNL     1      -3.673   7.253 -11.129  0.00  0.00    +0.000 C 
ATOM     11  H   UNL     1      -3.779   8.344 -11.167  0.00  0.00    +0.000 HD
ATOM     12  H   UNL     1      -4.684   6.834 -11.200  0.00  0.00    +0.000 HD
BRANCH  10  13
ATOM     13  C   UNL     1      -3.053   6.859  -9.786  0.00  0.00    +0.000 C 
ATOM     14  H   UNL     1      -1.997   6.598  -9.930  0.00  0.00    +0.000 HD
ATOM     15  H   UNL     1      -3.557   5.964  -9.401  0.00  0.00    +0.000 HD
BRANCH  13  16
ATOM     16  C   UNL     1      -3.170   7.993  -8.768  0.00  0.00    +0.000 C 
ATOM     17  H   UNL     1      -4.224   8.262  -8.629  0.00  0.00    +0.000 HD
ATOM     18  H   UNL     1      -2.788   7.662  -7.795  0.00  0.00    +0.000 HD
BRANCH  16  19
ATOM     19  C   UNL     1      -2.394   9.224  -9.211  0.00  0.00    +0.000 C 
ATOM     20  H   UNL     1      -2.737   9.572 -10.191  0.00  0.00    +0.000 HD
ATOM     21  H   UNL     1      -2.515  10.042  -8.493  0.00  0.00    +0.000 HD
ATOM     22  H   UNL     1      -1.327   8.992  -9.287  0.00  0.00    +0.000 HD
ENDBRANCH  16  19
ENDBRANCH  13  16
ENDBRANCH  10  13
ENDBRANCH   7  10
ENDBRANCH   4   7
ENDBRANCH   1   4
BRANCH   1  23
ATOM     23  C   UNL     1      -0.128   9.397 -13.232  0.00  0.00    +0.000 C 
ATOM     24  H   UNL     1      -0.329  10.428 -12.914  0.00  0.00    +0.000 HD
ATOM     25  H   UNL     1       0.492   8.940 -12.450  0.00  0.00    +0.000 HD
BRANCH  23  26
ATOM     26  C   UNL     1       0.668   9.430 -14.540  0.00  0.00    +0.000 C 
ATOM     27  H   UNL     1       1.699   9.117 -14.327  0.00  0.00    +0.000 HD
ATOM     28  H   UNL     1       0.253   8.677 -15.222  0.00  0.00    +0.000 HD
BRANCH  26  29
ATOM     29  C   UNL     1       0.711  10.778 -15.264  0.00  0.00    +0.000 C 
ATOM     30  H   UNL     1       0.011  10.751 -16.108  0.00  0.00    +0.000 HD
ATOM     31  H   UNL     1       1.712  10.921 -15.688  0.00  0.00    +0.000 HD
BRANCH  29  32
ATOM     32  C   UNL     1       0.367  11.966 -14.362  0.00  0.00    +0.000 C 
ATOM     33  H   UNL     1      -0.630  12.343 -14.623  0.00  0.00    +0.000 HD
ATOM     34  H   UNL     1       0.324  11.630 -13.319  0.00  0.00    +0.000 HD
BRANCH  32  36
ATOM     35 CL   UNL     1       2.957  12.414 -15.045  0.00  0.00    +0.000 Cl
ATOM     36  C   UNL     1       1.398  13.078 -14.507  0.00  0.00    +0.000 C 
ATOM     37  H   UNL     1       1.566  13.589 -13.553  0.00  0.00    +0.000 HD
ATOM     38  H   UNL     1       1.079  13.820 -15.246  0.00  0.00    +0.000 HD
ENDBRANCH  32  36
ENDBRANCH  29  32
ENDBRANCH  26  29
ENDBRANCH  23  26
ENDBRANCH   1  23
TORSDOF 11
ENDMDL
