MODEL 1
REMARK VINA RESULT:    -3.928      0.000      0.000
REMARK INTER + INTRA:          -5.219
REMARK INTER:                  -5.147
REMARK INTRA:                  -0.072
REMARK UNBOUND:                -0.142
REMARK  Name = 8103
REMARK  6 active torsions:
REMARK  status: ('A' for Active; 'I' for Inactive)
REMARK    1  A    between atoms: O_1  and  C_6
REMARK    2  A    between atoms: C_2  and  C_3
REMARK    3  A    between atoms: C_2  and  C_4
REMARK    4  A    between atoms: C_3  and  C_5
REMARK    5  A    between atoms: C_4  and  C_6
REMARK    6  A    between atoms: C_5  and  C_7
REMARK                            x       y       z     vdW  Elec       q    Type
REMARK                         _______ _______ _______ _____ _____    ______ ____
ROOT
ATOM      1  C   UNL     1     -20.481  -3.662   5.337  0.00  0.00    +0.000 C 
ATOM      2  H   UNL     1     -21.213  -3.928   6.109  0.00  0.00    +0.000 HD
ATOM      3  H   UNL     1     -19.525  -3.502   5.849  0.00  0.00    +0.000 HD
ENDROOT
BRANCH   1   4
ATOM      4  C   UNL     1     -20.916  -2.354   4.669  0.00  0.00    +0.000 C 
ATOM      5  H   UNL     1     -20.403  -2.254   3.705  0.00  0.00    +0.000 HD
ATOM      6  H   UNL     1     -21.990  -2.408   4.453  0.00  0.00    +0.000 HD
BRANCH   4   7
ATOM      7  C   UNL     1     -20.634  -1.115   5.520  0.00  0.00    +0.000 C 
ATOM      8  H   UNL     1     -19.717  -0.625   5.170  0.00  0.00    +0.000 HD
ATOM      9  H   UNL     1     -21.451  -0.394   5.408  0.00  0.00    +0.000 HD
BRANCH   7  10
ATOM     10  C   UNL     1     -20.476  -1.475   6.989  0.00  0.00    +0.000 C 
ATOM     11  H   UNL     1     -19.430  -1.709   7.212  0.00  0.00    +0.000 HD
ATOM     12  H   UNL     1     -20.782  -0.644   7.632  0.00  0.00    +0.000 HD
ATOM     13  H   UNL     1     -21.082  -2.350   7.246  0.00  0.00    +0.000 HD
ENDBRANCH   7  10
ENDBRANCH   4   7
ENDBRANCH   1   4
BRANCH   1  14
ATOM     14  C   UNL     1     -20.335  -4.825   4.357  0.00  0.00    +0.000 C 
ATOM     15  H   UNL     1     -20.617  -4.503   3.347  0.00  0.00    +0.000 HD
ATOM     16  H   UNL     1     -21.032  -5.632   4.619  0.00  0.00    +0.000 HD
BRANCH  14  17
ATOM     17  C   UNL     1     -18.914  -5.370   4.343  0.00  0.00    +0.000 C 
ATOM     18  H   UNL     1     -18.847  -6.307   3.782  0.00  0.00    +0.000 HD
ATOM     19  H   UNL     1     -18.221  -4.649   3.898  0.00  0.00    +0.000 HD
BRANCH  17  20
ATOM     20  O   UNL     1     -18.502  -5.613   5.681  0.00  0.00    +0.000 OA
ATOM     21  H   UNL     1     -19.166  -6.189   6.093  0.00  0.00    +0.000 HD
ENDBRANCH  17  20
ENDBRANCH  14  17
ENDBRANCH   1  14
TORSDOF 6
ENDMDL
MODEL 2
REMARK VINA RESULT:    -3.670     26.617     27.081
REMARK INTER + INTRA:          -4.884
REMARK INTER:                  -4.777
REMARK INTRA:                  -0.107
REMARK UNBOUND:                -0.142
REMARK  Name = 8103
REMARK  6 active torsions:
REMARK  status: ('A' for Active; 'I' for Inactive)
REMARK    1  A    between atoms: O_1  and  C_6
REMARK    2  A    between atoms: C_2  and  C_3
REMARK    3  A    between atoms: C_2  and  C_4
REMARK    4  A    between atoms: C_3  and  C_5
REMARK    5  A    between atoms: C_4  and  C_6
REMARK    6  A    between atoms: C_5  and  C_7
REMARK                            x       y       z     vdW  Elec       q    Type
REMARK                         _______ _______ _______ _____ _____    ______ ____
ROOT
ATOM      1  C   UNL     1      -2.719   9.561 -10.028  0.00  0.00    +0.000 C 
ATOM      2  H   UNL     1      -3.394  10.423  -9.956  0.00  0.00    +0.000 HD
ATOM      3  H   UNL     1      -3.070   8.954 -10.871  0.00  0.00    +0.000 HD
ENDROOT
BRANCH   1   4
ATOM      4  C   UNL     1      -2.827   8.738  -8.740  0.00  0.00    +0.000 C 
ATOM      5  H   UNL     1      -1.838   8.674  -8.271  0.00  0.00    +0.000 HD
ATOM      6  H   UNL     1      -3.479   9.268  -8.035  0.00  0.00    +0.000 HD
BRANCH   4   7
ATOM      7  C   UNL     1      -3.368   7.326  -8.966  0.00  0.00    +0.000 C 
ATOM      8  H   UNL     1      -3.030   6.665  -8.159  0.00  0.00    +0.000 HD
ATOM      9  H   UNL     1      -4.464   7.339  -8.937  0.00  0.00    +0.000 HD
BRANCH   7  10
ATOM     10  C   UNL     1      -2.905   6.761 -10.300  0.00  0.00    +0.000 C 
ATOM     11  H   UNL     1      -2.638   5.705 -10.192  0.00  0.00    +0.000 HD
ATOM     12  H   UNL     1      -3.696   6.836 -11.053  0.00  0.00    +0.000 HD
ATOM     13  H   UNL     1      -2.025   7.298 -10.670  0.00  0.00    +0.000 HD
ENDBRANCH   7  10
ENDBRANCH   4   7
ENDBRANCH   1   4
BRANCH   1  14
ATOM     14  C   UNL     1      -1.302  10.052 -10.318  0.00  0.00    +0.000 C 
ATOM     15  H   UNL     1      -0.620   9.721  -9.525  0.00  0.00    +0.000 HD
ATOM     16  H   UNL     1      -1.270  11.149 -10.302  0.00  0.00    +0.000 HD
BRANCH  14  17
ATOM     17  C   UNL     1      -0.803   9.553 -11.666  0.00  0.00    +0.000 C 
ATOM     18  H   UNL     1       0.151   9.025 -11.573  0.00  0.00    +0.000 HD
ATOM     19  H   UNL     1      -1.530   8.877 -12.129  0.00  0.00    +0.000 HD
BRANCH  17  20
ATOM     20  O   UNL     1      -0.620  10.666 -12.530  0.00  0.00    +0.000 OA
ATOM     21  H   UNL     1       0.308  10.944 -12.460  0.00  0.00    +0.000 HD
ENDBRANCH  17  20
ENDBRANCH  14  17
ENDBRANCH   1  14
TORSDOF 6
ENDMDL
MODEL 3
REMARK VINA RESULT:    -3.662     26.315     26.701
REMARK INTER + INTRA:          -4.874
REMARK INTER:                  -4.815
REMARK INTRA:                  -0.059
REMARK UNBOUND:                -0.142
REMARK  Name = 8103
REMARK  6 active torsions:
REMARK  status: ('A' for Active; 'I' for Inactive)
REMARK    1  A    between atoms: O_1  and  C_6
REMARK    2  A    between atoms: C_2  and  C_3
REMARK    3  A    between atoms: C_2  and  C_4
REMARK    4  A    between atoms: C_3  and  C_5
REMARK    5  A    between atoms: C_4  and  C_6
REMARK    6  A    between atoms: C_5  and  C_7
REMARK                            x       y       z     vdW  Elec       q    Type
REMARK                         _______ _______ _______ _____ _____    ______ ____
ROOT
ATOM      1  C   UNL     1      -2.917   7.210 -11.128  0.00  0.00    +0.000 C 
ATOM      2  H   UNL     1      -3.096   8.291 -11.187  0.00  0.00    +0.000 HD
ATOM      3  H   UNL     1      -3.681   6.729 -11.751  0.00  0.00    +0.000 HD
ENDROOT
BRANCH   1   4
ATOM      4  C   UNL     1      -3.096   6.755  -9.676  0.00  0.00    +0.000 C 
ATOM      5  H   UNL     1      -3.987   6.119  -9.606  0.00  0.00    +0.000 HD
ATOM      6  H   UNL     1      -2.239   6.133  -9.392  0.00  0.00    +0.000 HD
BRANCH   4   7
ATOM      7  C   UNL     1      -3.229   7.915  -8.688  0.00  0.00    +0.000 C 
ATOM      8  H   UNL     1      -4.280   8.043  -8.404  0.00  0.00    +0.000 HD
ATOM      9  H   UNL     1      -2.669   7.688  -7.773  0.00  0.00    +0.000 HD
BRANCH   7  10
ATOM     10  C   UNL     1      -2.713   9.215  -9.287  0.00  0.00    +0.000 C 
ATOM     11  H   UNL     1      -3.520   9.736  -9.812  0.00  0.00    +0.000 HD
ATOM     12  H   UNL     1      -2.329   9.881  -8.507  0.00  0.00    +0.000 HD
ATOM     13  H   UNL     1      -1.908   9.025 -10.004  0.00  0.00    +0.000 HD
ENDBRANCH   7  10
ENDBRANCH   4   7
ENDBRANCH   1   4
BRANCH   1  14
ATOM     14  C   UNL     1      -1.535   6.896 -11.697  0.00  0.00    +0.000 C 
ATOM     15  H   UNL     1      -1.551   5.925 -12.208  0.00  0.00    +0.000 HD
ATOM     16  H   UNL     1      -0.804   6.794 -10.884  0.00  0.00    +0.000 HD
BRANCH  14  17
ATOM     17  C   UNL     1      -1.069   7.976 -12.663  0.00  0.00    +0.000 C 
ATOM     18  H   UNL     1      -1.071   7.619 -13.697  0.00  0.00    +0.000 HD
ATOM     19  H   UNL     1      -1.709   8.862 -12.600  0.00  0.00    +0.000 HD
BRANCH  17  20
ATOM     20  O   UNL     1       0.255   8.360 -12.319  0.00  0.00    +0.000 OA
ATOM     21  H   UNL     1       0.679   7.600 -11.888  0.00  0.00    +0.000 HD
ENDBRANCH  17  20
ENDBRANCH  14  17
ENDBRANCH   1  14
TORSDOF 6
ENDMDL
MODEL 4
REMARK VINA RESULT:    -3.655     26.086     26.484
REMARK INTER + INTRA:          -4.866
REMARK INTER:                  -4.745
REMARK INTRA:                  -0.121
REMARK UNBOUND:                -0.142
REMARK  Name = 8103
REMARK  6 active torsions:
REMARK  status: ('A' for Active; 'I' for Inactive)
REMARK    1  A    between atoms: O_1  and  C_6
REMARK    2  A    between atoms: C_2  and  C_3
REMARK    3  A    between atoms: C_2  and  C_4
REMARK    4  A    between atoms: C_3  and  C_5
REMARK    5  A    between atoms: C_4  and  C_6
REMARK    6  A    between atoms: C_5  and  C_7
REMARK                            x       y       z     vdW  Elec       q    Type
REMARK                         _______ _______ _______ _____ _____    ______ ____
ROOT
ATOM      1  C   UNL     1      -2.845   8.594  -8.811  0.00  0.00    +0.000 C 
ATOM      2  H   UNL     1      -3.566   8.985  -8.083  0.00  0.00    +0.000 HD
ATOM      3  H   UNL     1      -1.874   8.556  -8.304  0.00  0.00    +0.000 HD
ENDROOT
BRANCH   1   4
ATOM      4  C   UNL     1      -2.755   9.567  -9.991  0.00  0.00    +0.000 C 
ATOM      5  H   UNL     1      -3.146   9.078 -10.891  0.00  0.00    +0.000 HD
ATOM      6  H   UNL     1      -3.405  10.428  -9.790  0.00  0.00    +0.000 HD
BRANCH   4   7
ATOM      7  C   UNL     1      -1.334  10.059 -10.265  0.00  0.00    +0.000 C 
ATOM      8  H   UNL     1      -1.240  11.110  -9.965  0.00  0.00    +0.000 HD
ATOM      9  H   UNL     1      -0.619   9.485  -9.664  0.00  0.00    +0.000 HD
BRANCH   7  10
ATOM     10  C   UNL     1      -0.976   9.928 -11.737  0.00  0.00    +0.000 C 
ATOM     11  H   UNL     1      -1.335   8.972 -12.131  0.00  0.00    +0.000 HD
ATOM     12  H   UNL     1      -1.432  10.730 -12.325  0.00  0.00    +0.000 HD
ATOM     13  H   UNL     1       0.109   9.969 -11.883  0.00  0.00    +0.000 HD
ENDBRANCH   7  10
ENDBRANCH   4   7
ENDBRANCH   1   4
BRANCH   1  14
ATOM     14  C   UNL     1      -3.254   7.180  -9.219  0.00  0.00    +0.000 C 
ATOM     15  H   UNL     1      -4.293   6.990  -8.924  0.00  0.00    +0.000 HD
ATOM     16  H   UNL     1      -2.648   6.440  -8.681  0.00  0.00    +0.000 HD
BRANCH  14  17
ATOM     17  C   UNL     1      -3.100   6.965 -10.718  0.00  0.00    +0.000 C 
ATOM     18  H   UNL     1      -3.803   6.214 -11.092  0.00  0.00    +0.000 HD
ATOM     19  H   UNL     1      -3.263   7.897 -11.269  0.00  0.00    +0.000 HD
BRANCH  17  20
ATOM     20  O   UNL     1      -1.777   6.519 -10.985  0.00  0.00    +0.000 OA
ATOM     21  H   UNL     1      -1.750   5.563 -10.816  0.00  0.00    +0.000 HD
ENDBRANCH  17  20
ENDBRANCH  14  17
ENDBRANCH   1  14
TORSDOF 6
ENDMDL
MODEL 5
REMARK VINA RESULT:    -3.642     25.736     26.225
REMARK INTER + INTRA:          -4.848
REMARK INTER:                  -4.712
REMARK INTRA:                  -0.137
REMARK UNBOUND:                -0.142
REMARK  Name = 8103
REMARK  6 active torsions:
REMARK  status: ('A' for Active; 'I' for Inactive)
REMARK    1  A    between atoms: O_1  and  C_6
REMARK    2  A    between atoms: C_2  and  C_3
REMARK    3  A    between atoms: C_2  and  C_4
REMARK    4  A    between atoms: C_3  and  C_5
REMARK    5  A    between atoms: C_4  and  C_6
REMARK    6  A    between atoms: C_5  and  C_7
REMARK                            x       y       z     vdW  Elec       q    Type
REMARK                         _______ _______ _______ _____ _____    ______ ____
ROOT
ATOM      1  C   UNL     1      -3.005   7.479  -9.413  0.00  0.00    +0.000 C 
ATOM      2  H   UNL     1      -2.634   6.752  -8.680  0.00  0.00    +0.000 HD
ATOM      3  H   UNL     1      -4.098   7.387  -9.422  0.00  0.00    +0.000 HD
ENDROOT
BRANCH   1   4
ATOM      4  C   UNL     1      -2.460   7.112 -10.796  0.00  0.00    +0.000 C 
ATOM      5  H   UNL     1      -1.807   7.918 -11.151  0.00  0.00    +0.000 HD
ATOM      6  H   UNL     1      -1.834   6.215 -10.704  0.00  0.00    +0.000 HD
BRANCH   4   7
ATOM      7  C   UNL     1      -3.555   6.859 -11.833  0.00  0.00    +0.000 C 
ATOM      8  H   UNL     1      -3.571   7.677 -12.563  0.00  0.00    +0.000 HD
ATOM      9  H   UNL     1      -3.339   5.936 -12.383  0.00  0.00    +0.000 HD
BRANCH   7  10
ATOM     10  C   UNL     1      -4.923   6.749 -11.178  0.00  0.00    +0.000 C 
ATOM     11  H   UNL     1      -4.845   6.223 -10.222  0.00  0.00    +0.000 HD
ATOM     12  H   UNL     1      -5.347   7.740 -10.986  0.00  0.00    +0.000 HD
ATOM     13  H   UNL     1      -5.620   6.194 -11.816  0.00  0.00    +0.000 HD
ENDBRANCH   7  10
ENDBRANCH   4   7
ENDBRANCH   1   4
BRANCH   1  14
ATOM     14  C   UNL     1      -2.624   8.888  -8.963  0.00  0.00    +0.000 C 
ATOM     15  H   UNL     1      -1.857   8.838  -8.180  0.00  0.00    +0.000 HD
ATOM     16  H   UNL     1      -3.488   9.387  -8.506  0.00  0.00    +0.000 HD
BRANCH  14  17
ATOM     17  C   UNL     1      -2.114   9.727 -10.127  0.00  0.00    +0.000 C 
ATOM     18  H   UNL     1      -2.170   9.180 -11.073  0.00  0.00    +0.000 HD
ATOM     19  H   UNL     1      -2.691  10.652 -10.227  0.00  0.00    +0.000 HD
BRANCH  17  20
ATOM     20  O   UNL     1      -0.758  10.074  -9.884  0.00  0.00    +0.000 OA
ATOM     21  H   UNL     1      -0.365   9.367  -9.347  0.00  0.00    +0.000 HD
ENDBRANCH  17  20
ENDBRANCH  14  17
ENDBRANCH   1  14
TORSDOF 6
ENDMDL
MODEL 6
REMARK VINA RESULT:    -3.505     26.501     26.932
REMARK INTER + INTRA:          -4.671
REMARK INTER:                  -4.529
REMARK INTRA:                  -0.142
REMARK UNBOUND:                -0.142
REMARK  Name = 8103
REMARK  6 active torsions:
REMARK  status: ('A' for Active; 'I' for Inactive)
REMARK    1  A    between atoms: O_1  and  C_6
REMARK    2  A    between atoms: C_2  and  C_3
REMARK    3  A    between atoms: C_2  and  C_4
REMARK    4  A    between atoms: C_3  and  C_5
REMARK    5  A    between atoms: C_4  and  C_6
REMARK    6  A    between atoms: C_5  and  C_7
REMARK                            x       y       z     vdW  Elec       q    Type
REMARK                         _______ _______ _______ _____ _____    ______ ____
ROOT
ATOM      1  C   UNL     1      -1.442   7.571 -11.656  0.00  0.00    +0.000 C 
ATOM      2  H   UNL     1      -1.187   7.050 -12.588  0.00  0.00    +0.000 HD
ATOM      3  H   UNL     1      -0.517   7.640 -11.071  0.00  0.00    +0.000 HD
ENDROOT
BRANCH   1   4
ATOM      4  C   UNL     1      -2.462   6.731 -10.882  0.00  0.00    +0.000 C 
ATOM      5  H   UNL     1      -3.307   6.495 -11.539  0.00  0.00    +0.000 HD
ATOM      6  H   UNL     1      -1.998   5.775 -10.606  0.00  0.00    +0.000 HD
BRANCH   4   7
ATOM      7  C   UNL     1      -2.985   7.420  -9.621  0.00  0.00    +0.000 C 
ATOM      8  H   UNL     1      -2.157   7.600  -8.925  0.00  0.00    +0.000 HD
ATOM      9  H   UNL     1      -3.410   8.397  -9.881  0.00  0.00    +0.000 HD
BRANCH   7  10
ATOM     10  C   UNL     1      -4.044   6.577  -8.926  0.00  0.00    +0.000 C 
ATOM     11  H   UNL     1      -3.906   6.615  -7.842  0.00  0.00    +0.000 HD
ATOM     12  H   UNL     1      -5.049   6.945  -9.154  0.00  0.00    +0.000 HD
ATOM     13  H   UNL     1      -3.981   5.531  -9.241  0.00  0.00    +0.000 HD
ENDBRANCH   7  10
ENDBRANCH   4   7
ENDBRANCH   1   4
BRANCH   1  14
ATOM     14  C   UNL     1      -1.936   8.978 -11.982  0.00  0.00    +0.000 C 
ATOM     15  H   UNL     1      -2.848   9.198 -11.412  0.00  0.00    +0.000 HD
ATOM     16  H   UNL     1      -2.221   9.045 -13.040  0.00  0.00    +0.000 HD
BRANCH  14  17
ATOM     17  C   UNL     1      -0.877  10.027 -11.678  0.00  0.00    +0.000 C 
ATOM     18  H   UNL     1       0.102   9.738 -12.074  0.00  0.00    +0.000 HD
ATOM     19  H   UNL     1      -1.150  10.998 -12.105  0.00  0.00    +0.000 HD
BRANCH  17  20
ATOM     20  O   UNL     1      -0.769  10.178 -10.269  0.00  0.00    +0.000 OA
ATOM     21  H   UNL     1      -0.058   9.590  -9.965  0.00  0.00    +0.000 HD
ENDBRANCH  17  20
ENDBRANCH  14  17
ENDBRANCH   1  14
TORSDOF 6
ENDMDL
MODEL 7
REMARK VINA RESULT:    -3.491     28.361     28.869
REMARK INTER + INTRA:          -4.653
REMARK INTER:                  -4.516
REMARK INTRA:                  -0.137
REMARK UNBOUND:                -0.142
REMARK  Name = 8103
REMARK  6 active torsions:
REMARK  status: ('A' for Active; 'I' for Inactive)
REMARK    1  A    between atoms: O_1  and  C_6
REMARK    2  A    between atoms: C_2  and  C_3
REMARK    3  A    between atoms: C_2  and  C_4
REMARK    4  A    between atoms: C_3  and  C_5
REMARK    5  A    between atoms: C_4  and  C_6
REMARK    6  A    between atoms: C_5  and  C_7
REMARK                            x       y       z     vdW  Elec       q    Type
REMARK                         _______ _______ _______ _____ _____    ______ ____
ROOT
ATOM      1  C   UNL     1       4.039  10.583  -0.528  0.00  0.00    +0.000 C 
ATOM      2  H   UNL     1       4.723  10.302  -1.338  0.00  0.00    +0.000 HD
ATOM      3  H   UNL     1       3.125  10.960  -1.004  0.00  0.00    +0.000 HD
ENDROOT
BRANCH   1   4
ATOM      4  C   UNL     1       4.676  11.709   0.292  0.00  0.00    +0.000 C 
ATOM      5  H   UNL     1       4.132  12.642   0.107  0.00  0.00    +0.000 HD
ATOM      6  H   UNL     1       4.559  11.480   1.359  0.00  0.00    +0.000 HD
BRANCH   4   7
ATOM      7  C   UNL     1       6.158  11.922  -0.018  0.00  0.00    +0.000 C 
ATOM      8  H   UNL     1       6.349  12.985  -0.207  0.00  0.00    +0.000 HD
ATOM      9  H   UNL     1       6.765  11.632   0.848  0.00  0.00    +0.000 HD
BRANCH   7  10
ATOM     10  C   UNL     1       6.592  11.115  -1.232  0.00  0.00    +0.000 C 
ATOM     11  H   UNL     1       7.625  10.775  -1.111  0.00  0.00    +0.000 HD
ATOM     12  H   UNL     1       5.958  10.233  -1.364  0.00  0.00    +0.000 HD
ATOM     13  H   UNL     1       6.538  11.718  -2.144  0.00  0.00    +0.000 HD
ENDBRANCH   7  10
ENDBRANCH   4   7
ENDBRANCH   1   4
BRANCH   1  14
ATOM     14  C   UNL     1       3.700   9.345   0.299  0.00  0.00    +0.000 C 
ATOM     15  H   UNL     1       4.226   8.470  -0.102  0.00  0.00    +0.000 HD
ATOM     16  H   UNL     1       2.630   9.115   0.218  0.00  0.00    +0.000 HD
BRANCH  14  17
ATOM     17  C   UNL     1       4.065   9.535   1.765  0.00  0.00    +0.000 C 
ATOM     18  H   UNL     1       4.754   8.760   2.113  0.00  0.00    +0.000 HD
ATOM     19  H   UNL     1       4.531  10.513   1.931  0.00  0.00    +0.000 HD
BRANCH  17  20
ATOM     20  O   UNL     1       2.880   9.471   2.546  0.00  0.00    +0.000 OA
ATOM     21  H   UNL     1       2.177   9.103   1.985  0.00  0.00    +0.000 HD
ENDBRANCH  17  20
ENDBRANCH  14  17
ENDBRANCH   1  14
TORSDOF 6
ENDMDL
MODEL 8
REMARK VINA RESULT:    -3.458     27.935     28.397
REMARK INTER + INTRA:          -4.611
REMARK INTER:                  -4.531
REMARK INTRA:                  -0.080
REMARK UNBOUND:                -0.142
REMARK  Name = 8103
REMARK  6 active torsions:
REMARK  status: ('A' for Active; 'I' for Inactive)
REMARK    1  A    between atoms: O_1  and  C_6
REMARK    2  A    between atoms: C_2  and  C_3
REMARK    3  A    between atoms: C_2  and  C_4
REMARK    4  A    between atoms: C_3  and  C_5
REMARK    5  A    between atoms: C_4  and  C_6
REMARK    6  A    between atoms: C_5  and  C_7
REMARK                            x       y       z     vdW  Elec       q    Type
REMARK                         _______ _______ _______ _____ _____    ______ ____
ROOT
ATOM      1  C   UNL     1       5.669   8.634   1.297  0.00  0.00    +0.000 C 
ATOM      2  H   UNL     1       5.507   7.834   0.564  0.00  0.00    +0.000 HD
ATOM      3  H   UNL     1       6.186   9.445   0.770  0.00  0.00    +0.000 HD
ENDROOT
BRANCH   1   4
ATOM      4  C   UNL     1       6.575   8.108   2.415  0.00  0.00    +0.000 C 
ATOM      5  H   UNL     1       7.507   7.733   1.976  0.00  0.00    +0.000 HD
ATOM      6  H   UNL     1       6.847   8.942   3.073  0.00  0.00    +0.000 HD
BRANCH   4   7
ATOM      7  C   UNL     1       5.930   6.998   3.247  0.00  0.00    +0.000 C 
ATOM      8  H   UNL     1       4.838   7.073   3.184  0.00  0.00    +0.000 HD
ATOM      9  H   UNL     1       6.213   6.019   2.843  0.00  0.00    +0.000 HD
BRANCH   7  10
ATOM     10  C   UNL     1       6.352   7.083   4.706  0.00  0.00    +0.000 C 
ATOM     11  H   UNL     1       7.045   6.272   4.948  0.00  0.00    +0.000 HD
ATOM     12  H   UNL     1       6.854   8.033   4.914  0.00  0.00    +0.000 HD
ATOM     13  H   UNL     1       5.485   6.999   5.370  0.00  0.00    +0.000 HD
ENDBRANCH   7  10
ENDBRANCH   4   7
ENDBRANCH   1   4
BRANCH   1  14
ATOM     14  C   UNL     1       4.319   9.142   1.797  0.00  0.00    +0.000 C 
ATOM     15  H   UNL     1       4.449   9.691   2.738  0.00  0.00    +0.000 HD
ATOM     16  H   UNL     1       3.659   8.297   2.032  0.00  0.00    +0.000 HD
BRANCH  14  17
ATOM     17  C   UNL     1       3.644  10.039   0.770  0.00  0.00    +0.000 C 
ATOM     18  H   UNL     1       4.297  10.235  -0.086  0.00  0.00    +0.000 HD
ATOM     19  H   UNL     1       2.716   9.587   0.402  0.00  0.00    +0.000 HD
BRANCH  17  20
ATOM     20  O   UNL     1       3.319  11.278   1.384  0.00  0.00    +0.000 OA
ATOM     21  H   UNL     1       2.728  11.090   2.132  0.00  0.00    +0.000 HD
ENDBRANCH  17  20
ENDBRANCH  14  17
ENDBRANCH   1  14
TORSDOF 6
ENDMDL
MODEL 9
REMARK VINA RESULT:    -3.456     29.692     30.246
REMARK INTER + INTRA:          -4.608
REMARK INTER:                  -4.523
REMARK INTRA:                  -0.085
REMARK UNBOUND:                -0.142
REMARK  Name = 8103
REMARK  6 active torsions:
REMARK  status: ('A' for Active; 'I' for Inactive)
REMARK    1  A    between atoms: O_1  and  C_6
REMARK    2  A    between atoms: C_2  and  C_3
REMARK    3  A    between atoms: C_2  and  C_4
REMARK    4  A    between atoms: C_3  and  C_5
REMARK    5  A    between atoms: C_4  and  C_6
REMARK    6  A    between atoms: C_5  and  C_7
REMARK                            x       y       z     vdW  Elec       q    Type
REMARK                         _______ _______ _______ _____ _____    ______ ____
ROOT
ATOM      1  C   UNL     1       5.935  10.785  -0.113  0.00  0.00    +0.000 C 
ATOM      2  H   UNL     1       6.033  11.475   0.733  0.00  0.00    +0.000 HD
ATOM      3  H   UNL     1       6.251   9.798   0.246  0.00  0.00    +0.000 HD
ENDROOT
BRANCH   1   4
ATOM      4  C   UNL     1       6.878  11.235  -1.233  0.00  0.00    +0.000 C 
ATOM      5  H   UNL     1       6.347  11.189  -2.191  0.00  0.00    +0.000 HD
ATOM      6  H   UNL     1       7.145  12.286  -1.069  0.00  0.00    +0.000 HD
BRANCH   4   7
ATOM      7  C   UNL     1       8.154  10.398  -1.326  0.00  0.00    +0.000 C 
ATOM      8  H   UNL     1       8.807  10.801  -2.109  0.00  0.00    +0.000 HD
ATOM      9  H   UNL     1       8.706  10.456  -0.381  0.00  0.00    +0.000 HD
BRANCH   7  10
ATOM     10  C   UNL     1       7.841   8.942  -1.639  0.00  0.00    +0.000 C 
ATOM     11  H   UNL     1       7.420   8.853  -2.645  0.00  0.00    +0.000 HD
ATOM     12  H   UNL     1       8.746   8.328  -1.594  0.00  0.00    +0.000 HD
ATOM     13  H   UNL     1       7.114   8.536  -0.928  0.00  0.00    +0.000 HD
ENDBRANCH   7  10
ENDBRANCH   4   7
ENDBRANCH   1   4
BRANCH   1  14
ATOM     14  C   UNL     1       4.471  10.716  -0.543  0.00  0.00    +0.000 C 
ATOM     15  H   UNL     1       4.046   9.740  -0.276  0.00  0.00    +0.000 HD
ATOM     16  H   UNL     1       4.392  10.788  -1.635  0.00  0.00    +0.000 HD
BRANCH  14  17
ATOM     17  C   UNL     1       3.648  11.825   0.097  0.00  0.00    +0.000 C 
ATOM     18  H   UNL     1       4.234  12.742   0.221  0.00  0.00    +0.000 HD
ATOM     19  H   UNL     1       2.764  12.058  -0.507  0.00  0.00    +0.000 HD
BRANCH  17  20
ATOM     20  O   UNL     1       3.209  11.393   1.377  0.00  0.00    +0.000 OA
ATOM     21  H   UNL     1       2.596  10.650   1.242  0.00  0.00    +0.000 HD
ENDBRANCH  17  20
ENDBRANCH  14  17
ENDBRANCH   1  14
TORSDOF 6
ENDMDL
MODEL 10
REMARK VINA RESULT:    -3.408     28.476     28.910
REMARK INTER + INTRA:          -4.546
REMARK INTER:                  -4.403
REMARK INTRA:                  -0.143
REMARK UNBOUND:                -0.142
REMARK  Name = 8103
REMARK  6 active torsions:
REMARK  status: ('A' for Active; 'I' for Inactive)
REMARK    1  A    between atoms: O_1  and  C_6
REMARK    2  A    between atoms: C_2  and  C_3
REMARK    3  A    between atoms: C_2  and  C_4
REMARK    4  A    between atoms: C_3  and  C_5
REMARK    5  A    between atoms: C_4  and  C_6
REMARK    6  A    between atoms: C_5  and  C_7
REMARK                            x       y       z     vdW  Elec       q    Type
REMARK                         _______ _______ _______ _____ _____    ______ ____
ROOT
ATOM      1  C   UNL     1       4.365   9.127   0.373  0.00  0.00    +0.000 C 
ATOM      2  H   UNL     1       4.291   9.268  -0.713  0.00  0.00    +0.000 HD
ATOM      3  H   UNL     1       3.820   8.204   0.608  0.00  0.00    +0.000 HD
ENDROOT
BRANCH   1   4
ATOM      4  C   UNL     1       3.681  10.304   1.075  0.00  0.00    +0.000 C 
ATOM      5  H   UNL     1       2.671  10.004   1.379  0.00  0.00    +0.000 HD
ATOM      6  H   UNL     1       4.233  10.537   1.994  0.00  0.00    +0.000 HD
BRANCH   4   7
ATOM      7  C   UNL     1       3.592  11.560   0.207  0.00  0.00    +0.000 C 
ATOM      8  H   UNL     1       2.734  12.167   0.520  0.00  0.00    +0.000 HD
ATOM      9  H   UNL     1       4.491  12.171   0.344  0.00  0.00    +0.000 HD
BRANCH   7  10
ATOM     10  C   UNL     1       3.441  11.207  -1.265  0.00  0.00    +0.000 C 
ATOM     11  H   UNL     1       3.606  10.136  -1.417  0.00  0.00    +0.000 HD
ATOM     12  H   UNL     1       2.436  11.449  -1.626  0.00  0.00    +0.000 HD
ATOM     13  H   UNL     1       4.167  11.753  -1.876  0.00  0.00    +0.000 HD
ENDBRANCH   7  10
ENDBRANCH   4   7
ENDBRANCH   1   4
BRANCH   1  14
ATOM     14  C   UNL     1       5.832   8.956   0.762  0.00  0.00    +0.000 C 
ATOM     15  H   UNL     1       5.998   7.951   1.167  0.00  0.00    +0.000 HD
ATOM     16  H   UNL     1       6.094   9.652   1.569  0.00  0.00    +0.000 HD
BRANCH  14  17
ATOM     17  C   UNL     1       6.756   9.190  -0.425  0.00  0.00    +0.000 C 
ATOM     18  H   UNL     1       6.194   9.302  -1.357  0.00  0.00    +0.000 HD
ATOM     19  H   UNL     1       7.366  10.087  -0.278  0.00  0.00    +0.000 HD
BRANCH  17  20
ATOM     20  O   UNL     1       7.629   8.076  -0.554  0.00  0.00    +0.000 OA
ATOM     21  H   UNL     1       7.317   7.544  -1.305  0.00  0.00    +0.000 HD
ENDBRANCH  17  20
ENDBRANCH  14  17
ENDBRANCH   1  14
TORSDOF 6
ENDMDL
