MODEL 1
REMARK VINA RESULT:    -4.504      0.000      0.000
REMARK INTER + INTRA:          -6.500
REMARK INTER:                  -6.283
REMARK INTRA:                  -0.217
REMARK UNBOUND:                -0.152
REMARK  Name = 957
REMARK  8 active torsions:
REMARK  status: ('A' for Active; 'I' for Inactive)
REMARK    1  A    between atoms: O_1  and  C_8
REMARK    2  A    between atoms: C_2  and  C_3
REMARK    3  A    between atoms: C_2  and  C_4
REMARK    4  A    between atoms: C_3  and  C_5
REMARK    5  A    between atoms: C_4  and  C_6
REMARK    6  A    between atoms: C_5  and  C_7
REMARK    7  A    between atoms: C_6  and  C_8
REMARK    8  A    between atoms: C_7  and  C_9
REMARK                            x       y       z     vdW  Elec       q    Type
REMARK                         _______ _______ _______ _____ _____    ______ ____
ROOT
ATOM      1  C   UNL     1     -21.247  -2.313   3.805  0.00  0.00    +0.000 C 
ATOM      2  H   UNL     1     -22.279  -2.356   3.434  0.00  0.00    +0.000 HD
ATOM      3  H   UNL     1     -20.764  -1.469   3.298  0.00  0.00    +0.000 HD
ENDROOT
BRANCH   1   4
ATOM      4  C   UNL     1     -21.270  -2.041   5.312  0.00  0.00    +0.000 C 
ATOM      5  H   UNL     1     -22.312  -2.014   5.657  0.00  0.00    +0.000 HD
ATOM      6  H   UNL     1     -20.788  -2.880   5.830  0.00  0.00    +0.000 HD
BRANCH   4   7
ATOM      7  C   UNL     1     -20.569  -0.740   5.707  0.00  0.00    +0.000 C 
ATOM      8  H   UNL     1     -21.218   0.112   5.473  0.00  0.00    +0.000 HD
ATOM      9  H   UNL     1     -19.655  -0.623   5.111  0.00  0.00    +0.000 HD
BRANCH   7  10
ATOM     10  C   UNL     1     -20.216  -0.731   7.194  0.00  0.00    +0.000 C 
ATOM     11  H   UNL     1     -19.682  -1.652   7.456  0.00  0.00    +0.000 HD
ATOM     12  H   UNL     1     -19.544   0.107   7.414  0.00  0.00    +0.000 HD
BRANCH  10  13
ATOM     13  C   UNL     1     -21.459  -0.611   8.061  0.00  0.00    +0.000 C 
ATOM     14  H   UNL     1     -21.596   0.418   8.409  0.00  0.00    +0.000 HD
ATOM     15  H   UNL     1     -21.392  -1.264   8.937  0.00  0.00    +0.000 HD
ATOM     16  H   UNL     1     -22.348  -0.897   7.491  0.00  0.00    +0.000 HD
ENDBRANCH  10  13
ENDBRANCH   7  10
ENDBRANCH   4   7
ENDBRANCH   1   4
BRANCH   1  17
ATOM     17  C   UNL     1     -20.517  -3.605   3.431  0.00  0.00    +0.000 C 
ATOM     18  H   UNL     1     -19.557  -3.358   2.962  0.00  0.00    +0.000 HD
ATOM     19  H   UNL     1     -21.106  -4.160   2.691  0.00  0.00    +0.000 HD
BRANCH  17  20
ATOM     20  C   UNL     1     -20.280  -4.482   4.660  0.00  0.00    +0.000 C 
ATOM     21  H   UNL     1     -21.151  -5.124   4.838  0.00  0.00    +0.000 HD
ATOM     22  H   UNL     1     -20.176  -3.860   5.558  0.00  0.00    +0.000 HD
BRANCH  20  23
ATOM     23  C   UNL     1     -19.035  -5.344   4.502  0.00  0.00    +0.000 C 
ATOM     24  H   UNL     1     -19.266  -6.300   4.021  0.00  0.00    +0.000 HD
ATOM     25  H   UNL     1     -18.274  -4.831   3.906  0.00  0.00    +0.000 HD
BRANCH  23  26
ATOM     26  O   UNL     1     -18.490  -5.603   5.789  0.00  0.00    +0.000 OA
ATOM     27  H   UNL     1     -18.756  -4.873   6.373  0.00  0.00    +0.000 HD
ENDBRANCH  23  26
ENDBRANCH  20  23
ENDBRANCH  17  20
ENDBRANCH   1  17
TORSDOF 8
ENDMDL
MODEL 2
REMARK VINA RESULT:    -4.373     25.827     26.632
REMARK INTER + INTRA:          -6.315
REMARK INTER:                  -5.849
REMARK INTRA:                  -0.467
REMARK UNBOUND:                -0.152
REMARK  Name = 957
REMARK  8 active torsions:
REMARK  status: ('A' for Active; 'I' for Inactive)
REMARK    1  A    between atoms: O_1  and  C_8
REMARK    2  A    between atoms: C_2  and  C_3
REMARK    3  A    between atoms: C_2  and  C_4
REMARK    4  A    between atoms: C_3  and  C_5
REMARK    5  A    between atoms: C_4  and  C_6
REMARK    6  A    between atoms: C_5  and  C_7
REMARK    7  A    between atoms: C_6  and  C_8
REMARK    8  A    between atoms: C_7  and  C_9
REMARK                            x       y       z     vdW  Elec       q    Type
REMARK                         _______ _______ _______ _____ _____    ______ ____
ROOT
ATOM      1  C   UNL     1      -3.287   7.932  -8.712  0.00  0.00    +0.000 C 
ATOM      2  H   UNL     1      -4.362   8.140  -8.782  0.00  0.00    +0.000 HD
ATOM      3  H   UNL     1      -3.104   7.551  -7.699  0.00  0.00    +0.000 HD
ENDROOT
BRANCH   1   4
ATOM      4  C   UNL     1      -2.921   6.845  -9.726  0.00  0.00    +0.000 C 
ATOM      5  H   UNL     1      -1.939   7.076 -10.161  0.00  0.00    +0.000 HD
ATOM      6  H   UNL     1      -2.816   5.890  -9.198  0.00  0.00    +0.000 HD
BRANCH   4   7
ATOM      7  C   UNL     1      -3.949   6.688 -10.848  0.00  0.00    +0.000 C 
ATOM      8  H   UNL     1      -4.753   7.422 -10.715  0.00  0.00    +0.000 HD
ATOM      9  H   UNL     1      -4.406   5.693 -10.785  0.00  0.00    +0.000 HD
BRANCH   7  10
ATOM     10  C   UNL     1      -3.301   6.868 -12.221  0.00  0.00    +0.000 C 
ATOM     11  H   UNL     1      -3.622   6.063 -12.893  0.00  0.00    +0.000 HD
ATOM     12  H   UNL     1      -3.630   7.814 -12.668  0.00  0.00    +0.000 HD
BRANCH  10  13
ATOM     13  C   UNL     1      -1.784   6.865 -12.126  0.00  0.00    +0.000 C 
ATOM     14  H   UNL     1      -1.455   6.636 -11.107  0.00  0.00    +0.000 HD
ATOM     15  H   UNL     1      -1.370   7.838 -12.410  0.00  0.00    +0.000 HD
ATOM     16  H   UNL     1      -1.364   6.108 -12.796  0.00  0.00    +0.000 HD
ENDBRANCH  10  13
ENDBRANCH   7  10
ENDBRANCH   4   7
ENDBRANCH   1   4
BRANCH   1  17
ATOM     17  C   UNL     1      -2.503   9.233  -8.904  0.00  0.00    +0.000 C 
ATOM     18  H   UNL     1      -1.435   9.004  -8.996  0.00  0.00    +0.000 HD
ATOM     19  H   UNL     1      -2.623   9.869  -8.019  0.00  0.00    +0.000 HD
BRANCH  17  20
ATOM     20  C   UNL     1      -2.979   9.987 -10.145  0.00  0.00    +0.000 C 
ATOM     21  H   UNL     1      -3.440  10.938  -9.855  0.00  0.00    +0.000 HD
ATOM     22  H   UNL     1      -3.763   9.417 -10.660  0.00  0.00    +0.000 HD
BRANCH  20  23
ATOM     23  C   UNL     1      -1.834  10.251 -11.114  0.00  0.00    +0.000 C 
ATOM     24  H   UNL     1      -1.868   9.571 -11.972  0.00  0.00    +0.000 HD
ATOM     25  H   UNL     1      -1.862  11.280 -11.485  0.00  0.00    +0.000 HD
BRANCH  23  26
ATOM     26  O   UNL     1      -0.602  10.060 -10.431  0.00  0.00    +0.000 OA
ATOM     27  H   UNL     1      -0.589  10.669  -9.674  0.00  0.00    +0.000 HD
ENDBRANCH  23  26
ENDBRANCH  20  23
ENDBRANCH  17  20
ENDBRANCH   1  17
TORSDOF 8
ENDMDL
MODEL 3
REMARK VINA RESULT:    -4.349     26.169     26.862
REMARK INTER + INTRA:          -6.281
REMARK INTER:                  -5.762
REMARK INTRA:                  -0.519
REMARK UNBOUND:                -0.152
REMARK  Name = 957
REMARK  8 active torsions:
REMARK  status: ('A' for Active; 'I' for Inactive)
REMARK    1  A    between atoms: O_1  and  C_8
REMARK    2  A    between atoms: C_2  and  C_3
REMARK    3  A    between atoms: C_2  and  C_4
REMARK    4  A    between atoms: C_3  and  C_5
REMARK    5  A    between atoms: C_4  and  C_6
REMARK    6  A    between atoms: C_5  and  C_7
REMARK    7  A    between atoms: C_6  and  C_8
REMARK    8  A    between atoms: C_7  and  C_9
REMARK                            x       y       z     vdW  Elec       q    Type
REMARK                         _______ _______ _______ _____ _____    ______ ____
ROOT
ATOM      1  C   UNL     1      -2.746   9.709  -9.683  0.00  0.00    +0.000 C 
ATOM      2  H   UNL     1      -3.489   9.694 -10.491  0.00  0.00    +0.000 HD
ATOM      3  H   UNL     1      -2.918  10.630  -9.113  0.00  0.00    +0.000 HD
ENDROOT
BRANCH   1   4
ATOM      4  C   UNL     1      -2.981   8.505  -8.766  0.00  0.00    +0.000 C 
ATOM      5  H   UNL     1      -2.221   8.503  -7.974  0.00  0.00    +0.000 HD
ATOM      6  H   UNL     1      -3.953   8.622  -8.271  0.00  0.00    +0.000 HD
BRANCH   4   7
ATOM      7  C   UNL     1      -2.952   7.164  -9.502  0.00  0.00    +0.000 C 
ATOM      8  H   UNL     1      -2.778   6.354  -8.783  0.00  0.00    +0.000 HD
ATOM      9  H   UNL     1      -2.114   7.155 -10.209  0.00  0.00    +0.000 HD
BRANCH   7  10
ATOM     10  C   UNL     1      -4.260   6.918 -10.254  0.00  0.00    +0.000 C 
ATOM     11  H   UNL     1      -4.692   5.958  -9.946  0.00  0.00    +0.000 HD
ATOM     12  H   UNL     1      -4.989   7.697 -10.003  0.00  0.00    +0.000 HD
BRANCH  10  13
ATOM     13  C   UNL     1      -4.044   6.908 -11.759  0.00  0.00    +0.000 C 
ATOM     14  H   UNL     1      -3.010   7.171 -12.009  0.00  0.00    +0.000 HD
ATOM     15  H   UNL     1      -4.709   7.621 -12.257  0.00  0.00    +0.000 HD
ATOM     16  H   UNL     1      -4.247   5.913 -12.166  0.00  0.00    +0.000 HD
ENDBRANCH  10  13
ENDBRANCH   7  10
ENDBRANCH   4   7
ENDBRANCH   1   4
BRANCH   1  17
ATOM     17  C   UNL     1      -1.340   9.750 -10.285  0.00  0.00    +0.000 C 
ATOM     18  H   UNL     1      -0.748   8.918  -9.885  0.00  0.00    +0.000 HD
ATOM     19  H   UNL     1      -0.838  10.678  -9.986  0.00  0.00    +0.000 HD
BRANCH  17  20
ATOM     20  C   UNL     1      -1.388   9.662 -11.810  0.00  0.00    +0.000 C 
ATOM     21  H   UNL     1      -1.314  10.665 -12.248  0.00  0.00    +0.000 HD
ATOM     22  H   UNL     1      -2.356   9.262 -12.138  0.00  0.00    +0.000 HD
BRANCH  20  23
ATOM     23  C   UNL     1      -0.272   8.783 -12.357  0.00  0.00    +0.000 C 
ATOM     24  H   UNL     1      -0.201   8.854 -13.447  0.00  0.00    +0.000 HD
ATOM     25  H   UNL     1       0.695   9.062 -11.928  0.00  0.00    +0.000 HD
BRANCH  23  26
ATOM     26  O   UNL     1      -0.539   7.431 -12.007  0.00  0.00    +0.000 OA
ATOM     27  H   UNL     1       0.275   7.060 -11.628  0.00  0.00    +0.000 HD
ENDBRANCH  23  26
ENDBRANCH  20  23
ENDBRANCH  17  20
ENDBRANCH   1  17
TORSDOF 8
ENDMDL
MODEL 4
REMARK VINA RESULT:    -4.190      2.534      5.012
REMARK INTER + INTRA:          -6.057
REMARK INTER:                  -5.922
REMARK INTRA:                  -0.135
REMARK UNBOUND:                -0.152
REMARK  Name = 957
REMARK  8 active torsions:
REMARK  status: ('A' for Active; 'I' for Inactive)
REMARK    1  A    between atoms: O_1  and  C_8
REMARK    2  A    between atoms: C_2  and  C_3
REMARK    3  A    between atoms: C_2  and  C_4
REMARK    4  A    between atoms: C_3  and  C_5
REMARK    5  A    between atoms: C_4  and  C_6
REMARK    6  A    between atoms: C_5  and  C_7
REMARK    7  A    between atoms: C_6  and  C_8
REMARK    8  A    between atoms: C_7  and  C_9
REMARK                            x       y       z     vdW  Elec       q    Type
REMARK                         _______ _______ _______ _____ _____    ______ ____
ROOT
ATOM      1  C   UNL     1     -21.350  -2.318   5.379  0.00  0.00    +0.000 C 
ATOM      2  H   UNL     1     -21.686  -2.357   4.335  0.00  0.00    +0.000 HD
ATOM      3  H   UNL     1     -22.253  -2.304   6.002  0.00  0.00    +0.000 HD
ENDROOT
BRANCH   1   4
ATOM      4  C   UNL     1     -20.547  -3.584   5.693  0.00  0.00    +0.000 C 
ATOM      5  H   UNL     1     -19.527  -3.300   5.984  0.00  0.00    +0.000 HD
ATOM      6  H   UNL     1     -20.997  -4.080   6.562  0.00  0.00    +0.000 HD
BRANCH   4   7
ATOM      7  C   UNL     1     -20.487  -4.572   4.527  0.00  0.00    +0.000 C 
ATOM      8  H   UNL     1     -20.666  -4.040   3.585  0.00  0.00    +0.000 HD
ATOM      9  H   UNL     1     -21.287  -5.314   4.636  0.00  0.00    +0.000 HD
BRANCH   7  10
ATOM     10  C   UNL     1     -19.134  -5.282   4.473  0.00  0.00    +0.000 C 
ATOM     11  H   UNL     1     -18.494  -4.925   5.288  0.00  0.00    +0.000 HD
ATOM     12  H   UNL     1     -19.272  -6.360   4.616  0.00  0.00    +0.000 HD
BRANCH  10  13
ATOM     13  C   UNL     1     -18.433  -5.044   3.145  0.00  0.00    +0.000 C 
ATOM     14  H   UNL     1     -17.603  -5.745   3.008  0.00  0.00    +0.000 HD
ATOM     15  H   UNL     1     -18.034  -4.025   3.088  0.00  0.00    +0.000 HD
ATOM     16  H   UNL     1     -19.133  -5.181   2.316  0.00  0.00    +0.000 HD
ENDBRANCH  10  13
ENDBRANCH   7  10
ENDBRANCH   4   7
ENDBRANCH   1   4
BRANCH   1  17
ATOM     17  C   UNL     1     -20.564  -1.025   5.613  0.00  0.00    +0.000 C 
ATOM     18  H   UNL     1     -21.065  -0.197   5.099  0.00  0.00    +0.000 HD
ATOM     19  H   UNL     1     -19.563  -1.119   5.176  0.00  0.00    +0.000 HD
BRANCH  17  20
ATOM     20  C   UNL     1     -20.446  -0.712   7.104  0.00  0.00    +0.000 C 
ATOM     21  H   UNL     1     -20.116   0.324   7.246  0.00  0.00    +0.000 HD
ATOM     22  H   UNL     1     -19.672  -1.340   7.565  0.00  0.00    +0.000 HD
BRANCH  20  23
ATOM     23  C   UNL     1     -21.766  -0.932   7.829  0.00  0.00    +0.000 C 
ATOM     24  H   UNL     1     -22.621  -0.803   7.158  0.00  0.00    +0.000 HD
ATOM     25  H   UNL     1     -21.814  -1.935   8.264  0.00  0.00    +0.000 HD
BRANCH  23  26
ATOM     26  O   UNL     1     -21.872   0.014   8.885  0.00  0.00    +0.000 OA
ATOM     27  H   UNL     1     -21.195   0.696   8.737  0.00  0.00    +0.000 HD
ENDBRANCH  23  26
ENDBRANCH  20  23
ENDBRANCH  17  20
ENDBRANCH   1  17
TORSDOF 8
ENDMDL
MODEL 5
REMARK VINA RESULT:    -4.049     17.365     18.821
REMARK INTER + INTRA:          -5.859
REMARK INTER:                  -5.708
REMARK INTRA:                  -0.150
REMARK UNBOUND:                -0.152
REMARK  Name = 957
REMARK  8 active torsions:
REMARK  status: ('A' for Active; 'I' for Inactive)
REMARK    1  A    between atoms: O_1  and  C_8
REMARK    2  A    between atoms: C_2  and  C_3
REMARK    3  A    between atoms: C_2  and  C_4
REMARK    4  A    between atoms: C_3  and  C_5
REMARK    5  A    between atoms: C_4  and  C_6
REMARK    6  A    between atoms: C_5  and  C_7
REMARK    7  A    between atoms: C_6  and  C_8
REMARK    8  A    between atoms: C_7  and  C_9
REMARK                            x       y       z     vdW  Elec       q    Type
REMARK                         _______ _______ _______ _____ _____    ______ ____
ROOT
ATOM      1  C   UNL     1      -8.374  11.020   6.913  0.00  0.00    +0.000 C 
ATOM      2  H   UNL     1      -7.347  11.276   7.201  0.00  0.00    +0.000 HD
ATOM      3  H   UNL     1      -9.024  11.798   7.333  0.00  0.00    +0.000 HD
ENDROOT
BRANCH   1   4
ATOM      4  C   UNL     1      -8.486  11.049   5.386  0.00  0.00    +0.000 C 
ATOM      5  H   UNL     1      -8.619  10.024   5.015  0.00  0.00    +0.000 HD
ATOM      6  H   UNL     1      -9.391  11.604   5.108  0.00  0.00    +0.000 HD
BRANCH   4   7
ATOM      7  C   UNL     1      -7.277  11.685   4.699  0.00  0.00    +0.000 C 
ATOM      8  H   UNL     1      -7.277  11.421   3.634  0.00  0.00    +0.000 HD
ATOM      9  H   UNL     1      -6.355  11.279   5.132  0.00  0.00    +0.000 HD
BRANCH   7  10
ATOM     10  C   UNL     1      -7.288  13.206   4.856  0.00  0.00    +0.000 C 
ATOM     11  H   UNL     1      -7.531  13.678   3.897  0.00  0.00    +0.000 HD
ATOM     12  H   UNL     1      -8.067  13.502   5.569  0.00  0.00    +0.000 HD
BRANCH  10  13
ATOM     13  C   UNL     1      -5.945  13.726   5.343  0.00  0.00    +0.000 C 
ATOM     14  H   UNL     1      -5.685  14.667   4.847  0.00  0.00    +0.000 HD
ATOM     15  H   UNL     1      -5.148  13.002   5.147  0.00  0.00    +0.000 HD
ATOM     16  H   UNL     1      -5.979  13.911   6.422  0.00  0.00    +0.000 HD
ENDBRANCH  10  13
ENDBRANCH   7  10
ENDBRANCH   4   7
ENDBRANCH   1   4
BRANCH   1  17
ATOM     17  C   UNL     1      -8.754   9.669   7.525  0.00  0.00    +0.000 C 
ATOM     18  H   UNL     1      -8.067   8.898   7.158  0.00  0.00    +0.000 HD
ATOM     19  H   UNL     1      -9.762   9.388   7.199  0.00  0.00    +0.000 HD
BRANCH  17  20
ATOM     20  C   UNL     1      -8.704   9.721   9.052  0.00  0.00    +0.000 C 
ATOM     21  H   UNL     1      -9.688   9.474   9.470  0.00  0.00    +0.000 HD
ATOM     22  H   UNL     1      -8.481  10.741   9.391  0.00  0.00    +0.000 HD
BRANCH  20  23
ATOM     23  C   UNL     1      -7.658   8.767   9.611  0.00  0.00    +0.000 C 
ATOM     24  H   UNL     1      -7.154   8.210   8.815  0.00  0.00    +0.000 HD
ATOM     25  H   UNL     1      -6.902   9.307  10.189  0.00  0.00    +0.000 HD
BRANCH  23  26
ATOM     26  O   UNL     1      -8.300   7.841  10.478  0.00  0.00    +0.000 OA
ATOM     27  H   UNL     1      -7.626   7.494  11.088  0.00  0.00    +0.000 HD
ENDBRANCH  23  26
ENDBRANCH  20  23
ENDBRANCH  17  20
ENDBRANCH   1  17
TORSDOF 8
ENDMDL
MODEL 6
REMARK VINA RESULT:    -3.994     27.200     27.819
REMARK INTER + INTRA:          -5.781
REMARK INTER:                  -5.515
REMARK INTRA:                  -0.266
REMARK UNBOUND:                -0.152
REMARK  Name = 957
REMARK  8 active torsions:
REMARK  status: ('A' for Active; 'I' for Inactive)
REMARK    1  A    between atoms: O_1  and  C_8
REMARK    2  A    between atoms: C_2  and  C_3
REMARK    3  A    between atoms: C_2  and  C_4
REMARK    4  A    between atoms: C_3  and  C_5
REMARK    5  A    between atoms: C_4  and  C_6
REMARK    6  A    between atoms: C_5  and  C_7
REMARK    7  A    between atoms: C_6  and  C_8
REMARK    8  A    between atoms: C_7  and  C_9
REMARK                            x       y       z     vdW  Elec       q    Type
REMARK                         _______ _______ _______ _____ _____    ______ ____
ROOT
ATOM      1  C   UNL     1      -1.419   6.927 -11.746  0.00  0.00    +0.000 C 
ATOM      2  H   UNL     1      -0.855   7.376 -10.919  0.00  0.00    +0.000 HD
ATOM      3  H   UNL     1      -0.981   5.938 -11.928  0.00  0.00    +0.000 HD
ENDROOT
BRANCH   1   4
ATOM      4  C   UNL     1      -2.880   6.754 -11.320  0.00  0.00    +0.000 C 
ATOM      5  H   UNL     1      -3.518   7.371 -11.965  0.00  0.00    +0.000 HD
ATOM      6  H   UNL     1      -3.175   5.711 -11.487  0.00  0.00    +0.000 HD
BRANCH   4   7
ATOM      7  C   UNL     1      -3.133   7.118  -9.856  0.00  0.00    +0.000 C 
ATOM      8  H   UNL     1      -2.628   6.394  -9.204  0.00  0.00    +0.000 HD
ATOM      9  H   UNL     1      -4.207   7.049  -9.644  0.00  0.00    +0.000 HD
BRANCH   7  10
ATOM     10  C   UNL     1      -2.639   8.531  -9.543  0.00  0.00    +0.000 C 
ATOM     11  H   UNL     1      -1.545   8.563  -9.598  0.00  0.00    +0.000 HD
ATOM     12  H   UNL     1      -3.022   9.235 -10.292  0.00  0.00    +0.000 HD
BRANCH  10  13
ATOM     13  C   UNL     1      -3.085   8.984  -8.162  0.00  0.00    +0.000 C 
ATOM     14  H   UNL     1      -2.252   9.427  -7.607  0.00  0.00    +0.000 HD
ATOM     15  H   UNL     1      -3.478   8.144  -7.580  0.00  0.00    +0.000 HD
ATOM     16  H   UNL     1      -3.874   9.738  -8.247  0.00  0.00    +0.000 HD
ENDBRANCH  10  13
ENDBRANCH   7  10
ENDBRANCH   4   7
ENDBRANCH   1   4
BRANCH   1  17
ATOM     17  C   UNL     1      -1.250   7.785 -13.003  0.00  0.00    +0.000 C 
ATOM     18  H   UNL     1      -2.216   8.227 -13.274  0.00  0.00    +0.000 HD
ATOM     19  H   UNL     1      -0.935   7.153 -13.841  0.00  0.00    +0.000 HD
BRANCH  17  20
ATOM     20  C   UNL     1      -0.220   8.893 -12.781  0.00  0.00    +0.000 C 
ATOM     21  H   UNL     1       0.586   8.533 -12.131  0.00  0.00    +0.000 HD
ATOM     22  H   UNL     1      -0.678   9.738 -12.252  0.00  0.00    +0.000 HD
BRANCH  20  23
ATOM     23  C   UNL     1       0.366   9.385 -14.097  0.00  0.00    +0.000 C 
ATOM     24  H   UNL     1      -0.171  10.260 -14.476  0.00  0.00    +0.000 HD
ATOM     25  H   UNL     1       1.422   9.650 -13.983  0.00  0.00    +0.000 HD
BRANCH  23  26
ATOM     26  O   UNL     1       0.273   8.342 -15.059  0.00  0.00    +0.000 OA
ATOM     27  H   UNL     1       1.113   7.853 -15.043  0.00  0.00    +0.000 HD
ENDBRANCH  23  26
ENDBRANCH  20  23
ENDBRANCH  17  20
ENDBRANCH   1  17
TORSDOF 8
ENDMDL
MODEL 7
REMARK VINA RESULT:    -3.814     25.623     26.284
REMARK INTER + INTRA:          -5.526
REMARK INTER:                  -5.156
REMARK INTRA:                  -0.370
REMARK UNBOUND:                -0.152
REMARK  Name = 957
REMARK  8 active torsions:
REMARK  status: ('A' for Active; 'I' for Inactive)
REMARK    1  A    between atoms: O_1  and  C_8
REMARK    2  A    between atoms: C_2  and  C_3
REMARK    3  A    between atoms: C_2  and  C_4
REMARK    4  A    between atoms: C_3  and  C_5
REMARK    5  A    between atoms: C_4  and  C_6
REMARK    6  A    between atoms: C_5  and  C_7
REMARK    7  A    between atoms: C_6  and  C_8
REMARK    8  A    between atoms: C_7  and  C_9
REMARK                            x       y       z     vdW  Elec       q    Type
REMARK                         _______ _______ _______ _____ _____    ______ ____
ROOT
ATOM      1  C   UNL     1      -2.601   8.846  -8.989  0.00  0.00    +0.000 C 
ATOM      2  H   UNL     1      -1.575   8.925  -8.606  0.00  0.00    +0.000 HD
ATOM      3  H   UNL     1      -3.269   8.955  -8.125  0.00  0.00    +0.000 HD
ENDROOT
BRANCH   1   4
ATOM      4  C   UNL     1      -2.859   9.995  -9.967  0.00  0.00    +0.000 C 
ATOM      5  H   UNL     1      -3.931  10.236  -9.963  0.00  0.00    +0.000 HD
ATOM      6  H   UNL     1      -2.334  10.889  -9.608  0.00  0.00    +0.000 HD
BRANCH   4   7
ATOM      7  C   UNL     1      -2.411   9.690 -11.397  0.00  0.00    +0.000 C 
ATOM      8  H   UNL     1      -2.959  10.331 -12.098  0.00  0.00    +0.000 HD
ATOM      9  H   UNL     1      -2.661   8.652 -11.644  0.00  0.00    +0.000 HD
BRANCH   7  10
ATOM     10  C   UNL     1      -0.907   9.908 -11.563  0.00  0.00    +0.000 C 
ATOM     11  H   UNL     1      -0.723  10.833 -12.121  0.00  0.00    +0.000 HD
ATOM     12  H   UNL     1      -0.435  10.022 -10.580  0.00  0.00    +0.000 HD
BRANCH  10  13
ATOM     13  C   UNL     1      -0.253   8.745 -12.294  0.00  0.00    +0.000 C 
ATOM     14  H   UNL     1      -0.508   7.791 -11.821  0.00  0.00    +0.000 HD
ATOM     15  H   UNL     1       0.837   8.847 -12.298  0.00  0.00    +0.000 HD
ATOM     16  H   UNL     1      -0.595   8.710 -13.333  0.00  0.00    +0.000 HD
ENDBRANCH  10  13
ENDBRANCH   7  10
ENDBRANCH   4   7
ENDBRANCH   1   4
BRANCH   1  17
ATOM     17  C   UNL     1      -2.808   7.461  -9.608  0.00  0.00    +0.000 C 
ATOM     18  H   UNL     1      -1.866   6.902  -9.572  0.00  0.00    +0.000 HD
ATOM     19  H   UNL     1      -3.083   7.568 -10.664  0.00  0.00    +0.000 HD
BRANCH  17  20
ATOM     20  C   UNL     1      -3.898   6.684  -8.871  0.00  0.00    +0.000 C 
ATOM     21  H   UNL     1      -4.234   7.247  -7.991  0.00  0.00    +0.000 HD
ATOM     22  H   UNL     1      -3.497   5.737  -8.486  0.00  0.00    +0.000 HD
BRANCH  20  23
ATOM     23  C   UNL     1      -5.088   6.393  -9.774  0.00  0.00    +0.000 C 
ATOM     24  H   UNL     1      -5.417   5.352  -9.685  0.00  0.00    +0.000 HD
ATOM     25  H   UNL     1      -5.934   7.045  -9.534  0.00  0.00    +0.000 HD
BRANCH  23  26
ATOM     26  O   UNL     1      -4.711   6.636 -11.123  0.00  0.00    +0.000 OA
ATOM     27  H   UNL     1      -4.744   5.787 -11.594  0.00  0.00    +0.000 HD
ENDBRANCH  23  26
ENDBRANCH  20  23
ENDBRANCH  17  20
ENDBRANCH   1  17
TORSDOF 8
ENDMDL
MODEL 8
REMARK VINA RESULT:    -3.789     25.816     26.921
REMARK INTER + INTRA:          -5.492
REMARK INTER:                  -5.385
REMARK INTRA:                  -0.107
REMARK UNBOUND:                -0.152
REMARK  Name = 957
REMARK  8 active torsions:
REMARK  status: ('A' for Active; 'I' for Inactive)
REMARK    1  A    between atoms: O_1  and  C_8
REMARK    2  A    between atoms: C_2  and  C_3
REMARK    3  A    between atoms: C_2  and  C_4
REMARK    4  A    between atoms: C_3  and  C_5
REMARK    5  A    between atoms: C_4  and  C_6
REMARK    6  A    between atoms: C_5  and  C_7
REMARK    7  A    between atoms: C_6  and  C_8
REMARK    8  A    between atoms: C_7  and  C_9
REMARK                            x       y       z     vdW  Elec       q    Type
REMARK                         _______ _______ _______ _____ _____    ______ ____
ROOT
ATOM      1  C   UNL     1      -0.295   0.084 -12.582  0.00  0.00    +0.000 C 
ATOM      2  H   UNL     1      -0.327  -0.744 -13.302  0.00  0.00    +0.000 HD
ATOM      3  H   UNL     1      -0.886   0.901 -13.014  0.00  0.00    +0.000 HD
ENDROOT
BRANCH   1   4
ATOM      4  C   UNL     1      -0.950  -0.366 -11.273  0.00  0.00    +0.000 C 
ATOM      5  H   UNL     1      -0.625  -1.390 -11.042  0.00  0.00    +0.000 HD
ATOM      6  H   UNL     1      -0.586   0.272 -10.459  0.00  0.00    +0.000 HD
BRANCH   4   7
ATOM      7  C   UNL     1      -2.478  -0.313 -11.307  0.00  0.00    +0.000 C 
ATOM      8  H   UNL     1      -2.858  -1.079 -11.994  0.00  0.00    +0.000 HD
ATOM      9  H   UNL     1      -2.800   0.660 -11.699  0.00  0.00    +0.000 HD
BRANCH   7  10
ATOM     10  C   UNL     1      -3.070  -0.525  -9.914  0.00  0.00    +0.000 C 
ATOM     11  H   UNL     1      -2.785  -1.514  -9.535  0.00  0.00    +0.000 HD
ATOM     12  H   UNL     1      -2.664   0.219  -9.218  0.00  0.00    +0.000 HD
BRANCH  10  13
ATOM     13  C   UNL     1      -4.586  -0.414  -9.930  0.00  0.00    +0.000 C 
ATOM     14  H   UNL     1      -4.907   0.513 -10.417  0.00  0.00    +0.000 HD
ATOM     15  H   UNL     1      -4.992  -0.426  -8.913  0.00  0.00    +0.000 HD
ATOM     16  H   UNL     1      -5.023  -1.253 -10.480  0.00  0.00    +0.000 HD
ENDBRANCH  10  13
ENDBRANCH   7  10
ENDBRANCH   4   7
ENDBRANCH   1   4
BRANCH   1  17
ATOM     17  C   UNL     1       1.152   0.552 -12.409  0.00  0.00    +0.000 C 
ATOM     18  H   UNL     1       1.752  -0.266 -11.994  0.00  0.00    +0.000 HD
ATOM     19  H   UNL     1       1.188   1.378 -11.690  0.00  0.00    +0.000 HD
BRANCH  17  20
ATOM     20  C   UNL     1       1.750   1.005 -13.741  0.00  0.00    +0.000 C 
ATOM     21  H   UNL     1       1.996   2.073 -13.700  0.00  0.00    +0.000 HD
ATOM     22  H   UNL     1       1.011   0.898 -14.546  0.00  0.00    +0.000 HD
BRANCH  20  23
ATOM     23  C   UNL     1       2.997   0.207 -14.096  0.00  0.00    +0.000 C 
ATOM     24  H   UNL     1       2.855  -0.375 -15.013  0.00  0.00    +0.000 HD
ATOM     25  H   UNL     1       3.859   0.866 -14.235  0.00  0.00    +0.000 HD
BRANCH  23  26
ATOM     26  O   UNL     1       3.289  -0.686 -13.031  0.00  0.00    +0.000 OA
ATOM     27  H   UNL     1       4.253  -0.810 -13.007  0.00  0.00    +0.000 HD
ENDBRANCH  23  26
ENDBRANCH  20  23
ENDBRANCH  17  20
ENDBRANCH   1  17
TORSDOF 8
ENDMDL
MODEL 9
REMARK VINA RESULT:    -3.777     17.974     18.768
REMARK INTER + INTRA:          -5.475
REMARK INTER:                  -4.950
REMARK INTRA:                  -0.524
REMARK UNBOUND:                -0.152
REMARK  Name = 957
REMARK  8 active torsions:
REMARK  status: ('A' for Active; 'I' for Inactive)
REMARK    1  A    between atoms: O_1  and  C_8
REMARK    2  A    between atoms: C_2  and  C_3
REMARK    3  A    between atoms: C_2  and  C_4
REMARK    4  A    between atoms: C_3  and  C_5
REMARK    5  A    between atoms: C_4  and  C_6
REMARK    6  A    between atoms: C_5  and  C_7
REMARK    7  A    between atoms: C_6  and  C_8
REMARK    8  A    between atoms: C_7  and  C_9
REMARK                            x       y       z     vdW  Elec       q    Type
REMARK                         _______ _______ _______ _____ _____    ______ ____
ROOT
ATOM      1  C   UNL     1      -8.753   5.885  -5.020  0.00  0.00    +0.000 C 
ATOM      2  H   UNL     1      -9.773   5.670  -5.364  0.00  0.00    +0.000 HD
ATOM      3  H   UNL     1      -8.848   6.466  -4.094  0.00  0.00    +0.000 HD
ENDROOT
BRANCH   1   4
ATOM      4  C   UNL     1      -8.041   4.565  -4.709  0.00  0.00    +0.000 C 
ATOM      5  H   UNL     1      -7.249   4.401  -5.451  0.00  0.00    +0.000 HD
ATOM      6  H   UNL     1      -7.547   4.651  -3.734  0.00  0.00    +0.000 HD
BRANCH   4   7
ATOM      7  C   UNL     1      -8.980   3.357  -4.691  0.00  0.00    +0.000 C 
ATOM      8  H   UNL     1      -9.296   3.153  -3.661  0.00  0.00    +0.000 HD
ATOM      9  H   UNL     1      -8.439   2.471  -5.045  0.00  0.00    +0.000 HD
BRANCH   7  10
ATOM     10  C   UNL     1     -10.206   3.596  -5.573  0.00  0.00    +0.000 C 
ATOM     11  H   UNL     1     -11.092   3.152  -5.106  0.00  0.00    +0.000 HD
ATOM     12  H   UNL     1     -10.394   4.672  -5.668  0.00  0.00    +0.000 HD
BRANCH  10  13
ATOM     13  C   UNL     1     -10.019   3.001  -6.960  0.00  0.00    +0.000 C 
ATOM     14  H   UNL     1      -8.956   2.919  -7.212  0.00  0.00    +0.000 HD
ATOM     15  H   UNL     1     -10.506   3.618  -7.722  0.00  0.00    +0.000 HD
ATOM     16  H   UNL     1     -10.456   1.999  -7.004  0.00  0.00    +0.000 HD
ENDBRANCH  10  13
ENDBRANCH   7  10
ENDBRANCH   4   7
ENDBRANCH   1   4
BRANCH   1  17
ATOM     17  C   UNL     1      -8.030   6.734  -6.069  0.00  0.00    +0.000 C 
ATOM     18  H   UNL     1      -6.954   6.532  -6.021  0.00  0.00    +0.000 HD
ATOM     19  H   UNL     1      -8.171   7.797  -5.843  0.00  0.00    +0.000 HD
BRANCH  17  20
ATOM     20  C   UNL     1      -8.549   6.435  -7.475  0.00  0.00    +0.000 C 
ATOM     21  H   UNL     1      -8.696   7.371  -8.029  0.00  0.00    +0.000 HD
ATOM     22  H   UNL     1      -9.537   5.959  -7.423  0.00  0.00    +0.000 HD
BRANCH  20  23
ATOM     23  C   UNL     1      -7.597   5.531  -8.244  0.00  0.00    +0.000 C 
ATOM     24  H   UNL     1      -7.735   4.479  -7.976  0.00  0.00    +0.000 HD
ATOM     25  H   UNL     1      -7.741   5.635  -9.324  0.00  0.00    +0.000 HD
BRANCH  23  26
ATOM     26  O   UNL     1      -6.261   5.906  -7.938  0.00  0.00    +0.000 OA
ATOM     27  H   UNL     1      -5.671   5.376  -8.501  0.00  0.00    +0.000 HD
ENDBRANCH  23  26
ENDBRANCH  20  23
ENDBRANCH  17  20
ENDBRANCH   1  17
TORSDOF 8
ENDMDL
MODEL 10
REMARK VINA RESULT:    -3.734     29.105     29.683
REMARK INTER + INTRA:          -5.415
REMARK INTER:                  -5.263
REMARK INTRA:                  -0.152
REMARK UNBOUND:                -0.152
REMARK  Name = 957
REMARK  8 active torsions:
REMARK  status: ('A' for Active; 'I' for Inactive)
REMARK    1  A    between atoms: O_1  and  C_8
REMARK    2  A    between atoms: C_2  and  C_3
REMARK    3  A    between atoms: C_2  and  C_4
REMARK    4  A    between atoms: C_3  and  C_5
REMARK    5  A    between atoms: C_4  and  C_6
REMARK    6  A    between atoms: C_5  and  C_7
REMARK    7  A    between atoms: C_6  and  C_8
REMARK    8  A    between atoms: C_7  and  C_9
REMARK                            x       y       z     vdW  Elec       q    Type
REMARK                         _______ _______ _______ _____ _____    ______ ____
ROOT
ATOM      1  C   UNL     1      -0.820   9.780 -12.942  0.00  0.00    +0.000 C 
ATOM      2  H   UNL     1      -1.859   9.946 -13.255  0.00  0.00    +0.000 HD
ATOM      3  H   UNL     1      -0.353  10.769 -12.859  0.00  0.00    +0.000 HD
ENDROOT
BRANCH   1   4
ATOM      4  C   UNL     1      -0.815   9.109 -11.565  0.00  0.00    +0.000 C 
ATOM      5  H   UNL     1      -1.494   8.246 -11.583  0.00  0.00    +0.000 HD
ATOM      6  H   UNL     1       0.189   8.716 -11.367  0.00  0.00    +0.000 HD
BRANCH   4   7
ATOM      7  C   UNL     1      -1.218  10.050 -10.428  0.00  0.00    +0.000 C 
ATOM      8  H   UNL     1      -1.270  11.079 -10.804  0.00  0.00    +0.000 HD
ATOM      9  H   UNL     1      -0.448  10.029  -9.648  0.00  0.00    +0.000 HD
BRANCH   7  10
ATOM     10  C   UNL     1      -2.566   9.647  -9.828  0.00  0.00    +0.000 C 
ATOM     11  H   UNL     1      -2.663  10.063  -8.819  0.00  0.00    +0.000 HD
ATOM     12  H   UNL     1      -3.382  10.063 -10.431  0.00  0.00    +0.000 HD
BRANCH  10  13
ATOM     13  C   UNL     1      -2.717   8.136  -9.764  0.00  0.00    +0.000 C 
ATOM     14  H   UNL     1      -3.725   7.856  -9.439  0.00  0.00    +0.000 HD
ATOM     15  H   UNL     1      -1.997   7.698  -9.065  0.00  0.00    +0.000 HD
ATOM     16  H   UNL     1      -2.545   7.695 -10.751  0.00  0.00    +0.000 HD
ENDBRANCH  10  13
ENDBRANCH   7  10
ENDBRANCH   4   7
ENDBRANCH   1   4
BRANCH   1  17
ATOM     17  C   UNL     1      -0.087   8.972 -14.015  0.00  0.00    +0.000 C 
ATOM     18  H   UNL     1      -0.820   8.517 -14.692  0.00  0.00    +0.000 HD
ATOM     19  H   UNL     1       0.470   8.154 -13.544  0.00  0.00    +0.000 HD
BRANCH  17  20
ATOM     20  C   UNL     1       0.873   9.854 -14.812  0.00  0.00    +0.000 C 
ATOM     21  H   UNL     1       1.895   9.737 -14.433  0.00  0.00    +0.000 HD
ATOM     22  H   UNL     1       0.621  10.913 -14.674  0.00  0.00    +0.000 HD
BRANCH  20  23
ATOM     23  C   UNL     1       0.839   9.521 -16.297  0.00  0.00    +0.000 C 
ATOM     24  H   UNL     1      -0.187   9.402 -16.660  0.00  0.00    +0.000 HD
ATOM     25  H   UNL     1       1.326  10.304 -16.887  0.00  0.00    +0.000 HD
BRANCH  23  26
ATOM     26  O   UNL     1       1.541   8.304 -16.511  0.00  0.00    +0.000 OA
ATOM     27  H   UNL     1       2.488   8.487 -16.391  0.00  0.00    +0.000 HD
ENDBRANCH  23  26
ENDBRANCH  20  23
ENDBRANCH  17  20
ENDBRANCH   1  17
TORSDOF 8
ENDMDL
