MODEL 1
REMARK VINA RESULT:    -3.521      0.000      0.000
REMARK INTER + INTRA:          -4.428
REMARK INTER:                  -4.403
REMARK INTRA:                  -0.024
REMARK UNBOUND:                -0.083
REMARK  Name = 6276
REMARK  5 active torsions:
REMARK  status: ('A' for Active; 'I' for Inactive)
REMARK    1  A    between atoms: O_1  and  C_5
REMARK    2  A    between atoms: C_2  and  C_3
REMARK    3  A    between atoms: C_2  and  C_4
REMARK    4  A    between atoms: C_3  and  C_5
REMARK    5  A    between atoms: C_4  and  C_6
REMARK                            x       y       z     vdW  Elec       q    Type
REMARK                         _______ _______ _______ _____ _____    ______ ____
ROOT
ATOM      1  C   UNL     1     -20.342  -3.760   5.536  0.00  0.00    +0.000 C 
ATOM      2  H   UNL     1     -19.383  -3.657   6.056  0.00  0.00    +0.000 HD
ATOM      3  H   UNL     1     -21.038  -4.243   6.234  0.00  0.00    +0.000 HD
ENDROOT
BRANCH   1   4
ATOM      4  C   UNL     1     -20.165  -4.641   4.302  0.00  0.00    +0.000 C 
ATOM      5  H   UNL     1     -20.054  -4.020   3.404  0.00  0.00    +0.000 HD
ATOM      6  H   UNL     1     -21.067  -5.244   4.137  0.00  0.00    +0.000 HD
BRANCH   4   7
ATOM      7  C   UNL     1     -18.959  -5.560   4.435  0.00  0.00    +0.000 C 
ATOM      8  H   UNL     1     -18.124  -5.222   3.812  0.00  0.00    +0.000 HD
ATOM      9  H   UNL     1     -19.213  -6.585   4.147  0.00  0.00    +0.000 HD
BRANCH   7  10
ATOM     10  O   UNL     1     -18.537  -5.571   5.791  0.00  0.00    +0.000 OA
ATOM     11  H   UNL     1     -18.880  -4.765   6.212  0.00  0.00    +0.000 HD
ENDBRANCH   7  10
ENDBRANCH   4   7
ENDBRANCH   1   4
BRANCH   1  12
ATOM     12  C   UNL     1     -20.875  -2.377   5.161  0.00  0.00    +0.000 C 
ATOM     13  H   UNL     1     -20.433  -2.053   4.212  0.00  0.00    +0.000 HD
ATOM     14  H   UNL     1     -21.960  -2.423   5.015  0.00  0.00    +0.000 HD
BRANCH  12  15
ATOM     15  C   UNL     1     -20.562  -1.349   6.236  0.00  0.00    +0.000 C 
ATOM     16  H   UNL     1     -19.529  -0.998   6.156  0.00  0.00    +0.000 HD
ATOM     17  H   UNL     1     -21.227  -0.483   6.156  0.00  0.00    +0.000 HD
ATOM     18  H   UNL     1     -20.696  -1.788   7.231  0.00  0.00    +0.000 HD
ENDBRANCH  12  15
ENDBRANCH   1  12
TORSDOF 5
ENDMDL
MODEL 2
REMARK VINA RESULT:    -3.513     25.988     26.246
REMARK INTER + INTRA:          -4.417
REMARK INTER:                  -4.360
REMARK INTRA:                  -0.057
REMARK UNBOUND:                -0.083
REMARK  Name = 6276
REMARK  5 active torsions:
REMARK  status: ('A' for Active; 'I' for Inactive)
REMARK    1  A    between atoms: O_1  and  C_5
REMARK    2  A    between atoms: C_2  and  C_3
REMARK    3  A    between atoms: C_2  and  C_4
REMARK    4  A    between atoms: C_3  and  C_5
REMARK    5  A    between atoms: C_4  and  C_6
REMARK                            x       y       z     vdW  Elec       q    Type
REMARK                         _______ _______ _______ _____ _____    ______ ____
ROOT
ATOM      1  C   UNL     1      -3.148   7.911  -8.845  0.00  0.00    +0.000 C 
ATOM      2  H   UNL     1      -4.200   7.840  -8.543  0.00  0.00    +0.000 HD
ATOM      3  H   UNL     1      -2.553   7.427  -8.060  0.00  0.00    +0.000 HD
ENDROOT
BRANCH   1   4
ATOM      4  C   UNL     1      -2.744   9.379  -8.958  0.00  0.00    +0.000 C 
ATOM      5  H   UNL     1      -2.097   9.661  -8.119  0.00  0.00    +0.000 HD
ATOM      6  H   UNL     1      -3.631  10.021  -8.881  0.00  0.00    +0.000 HD
BRANCH   4   7
ATOM      7  C   UNL     1      -2.027   9.665 -10.270  0.00  0.00    +0.000 C 
ATOM      8  H   UNL     1      -2.556  10.419 -10.863  0.00  0.00    +0.000 HD
ATOM      9  H   UNL     1      -1.932   8.756 -10.872  0.00  0.00    +0.000 HD
BRANCH   7  10
ATOM     10  O   UNL     1      -0.722  10.147  -9.984  0.00  0.00    +0.000 OA
ATOM     11  H   UNL     1      -0.776  11.115  -9.911  0.00  0.00    +0.000 HD
ENDBRANCH   7  10
ENDBRANCH   4   7
ENDBRANCH   1   4
BRANCH   1  12
ATOM     12  C   UNL     1      -2.942   7.174 -10.167  0.00  0.00    +0.000 C 
ATOM     13  H   UNL     1      -2.365   7.801 -10.856  0.00  0.00    +0.000 HD
ATOM     14  H   UNL     1      -2.362   6.259  -9.998  0.00  0.00    +0.000 HD
BRANCH  12  15
ATOM     15  C   UNL     1      -4.268   6.808 -10.814  0.00  0.00    +0.000 C 
ATOM     16  H   UNL     1      -4.842   6.128 -10.176  0.00  0.00    +0.000 HD
ATOM     17  H   UNL     1      -4.875   7.700 -10.998  0.00  0.00    +0.000 HD
ATOM     18  H   UNL     1      -4.097   6.310 -11.774  0.00  0.00    +0.000 HD
ENDBRANCH  12  15
ENDBRANCH   1  12
TORSDOF 5
ENDMDL
MODEL 3
REMARK VINA RESULT:    -3.415     20.806     21.292
REMARK INTER + INTRA:          -4.297
REMARK INTER:                  -4.229
REMARK INTRA:                  -0.067
REMARK UNBOUND:                -0.083
REMARK  Name = 6276
REMARK  5 active torsions:
REMARK  status: ('A' for Active; 'I' for Inactive)
REMARK    1  A    between atoms: O_1  and  C_5
REMARK    2  A    between atoms: C_2  and  C_3
REMARK    3  A    between atoms: C_2  and  C_4
REMARK    4  A    between atoms: C_3  and  C_5
REMARK    5  A    between atoms: C_4  and  C_6
REMARK                            x       y       z     vdW  Elec       q    Type
REMARK                         _______ _______ _______ _____ _____    ______ ____
ROOT
ATOM      1  C   UNL     1      -9.936   8.057  18.845  0.00  0.00    +0.000 C 
ATOM      2  H   UNL     1      -8.979   7.525  18.866  0.00  0.00    +0.000 HD
ATOM      3  H   UNL     1     -10.709   7.324  18.581  0.00  0.00    +0.000 HD
ENDROOT
BRANCH   1   4
ATOM      4  C   UNL     1      -9.890   9.154  17.783  0.00  0.00    +0.000 C 
ATOM      5  H   UNL     1     -10.392  10.058  18.148  0.00  0.00    +0.000 HD
ATOM      6  H   UNL     1     -10.450   8.840  16.893  0.00  0.00    +0.000 HD
BRANCH   4   7
ATOM      7  C   UNL     1      -8.460   9.492  17.386  0.00  0.00    +0.000 C 
ATOM      8  H   UNL     1      -8.049  10.295  18.008  0.00  0.00    +0.000 HD
ATOM      9  H   UNL     1      -8.407   9.804  16.338  0.00  0.00    +0.000 HD
BRANCH   7  10
ATOM     10  O   UNL     1      -7.653   8.336  17.546  0.00  0.00    +0.000 OA
ATOM     11  H   UNL     1      -7.942   7.884  18.358  0.00  0.00    +0.000 HD
ENDBRANCH   7  10
ENDBRANCH   4   7
ENDBRANCH   1   4
BRANCH   1  12
ATOM     12  C   UNL     1     -10.235   8.636  20.228  0.00  0.00    +0.000 C 
ATOM     13  H   UNL     1     -10.547   7.834  20.907  0.00  0.00    +0.000 HD
ATOM     14  H   UNL     1      -9.327   9.082  20.649  0.00  0.00    +0.000 HD
BRANCH  12  15
ATOM     15  C   UNL     1     -11.325   9.693  20.166  0.00  0.00    +0.000 C 
ATOM     16  H   UNL     1     -12.294   9.246  19.921  0.00  0.00    +0.000 HD
ATOM     17  H   UNL     1     -11.421  10.215  21.123  0.00  0.00    +0.000 HD
ATOM     18  H   UNL     1     -11.090  10.436  19.396  0.00  0.00    +0.000 HD
ENDBRANCH  12  15
ENDBRANCH   1  12
TORSDOF 5
ENDMDL
MODEL 4
REMARK VINA RESULT:    -3.353     16.994     17.220
REMARK INTER + INTRA:          -4.220
REMARK INTER:                  -4.176
REMARK INTRA:                  -0.044
REMARK UNBOUND:                -0.083
REMARK  Name = 6276
REMARK  5 active torsions:
REMARK  status: ('A' for Active; 'I' for Inactive)
REMARK    1  A    between atoms: O_1  and  C_5
REMARK    2  A    between atoms: C_2  and  C_3
REMARK    3  A    between atoms: C_2  and  C_4
REMARK    4  A    between atoms: C_3  and  C_5
REMARK    5  A    between atoms: C_4  and  C_6
REMARK                            x       y       z     vdW  Elec       q    Type
REMARK                         _______ _______ _______ _____ _____    ______ ____
ROOT
ATOM      1  C   UNL     1      -9.156   3.283  -4.748  0.00  0.00    +0.000 C 
ATOM      2  H   UNL     1      -9.350   2.834  -3.767  0.00  0.00    +0.000 HD
ATOM      3  H   UNL     1      -8.813   2.478  -5.411  0.00  0.00    +0.000 HD
ENDROOT
BRANCH   1   4
ATOM      4  C   UNL     1      -8.061   4.340  -4.622  0.00  0.00    +0.000 C 
ATOM      5  H   UNL     1      -7.189   4.059  -5.225  0.00  0.00    +0.000 HD
ATOM      6  H   UNL     1      -7.704   4.391  -3.586  0.00  0.00    +0.000 HD
BRANCH   4   7
ATOM      7  C   UNL     1      -8.554   5.714  -5.054  0.00  0.00    +0.000 C 
ATOM      8  H   UNL     1      -9.556   5.924  -4.666  0.00  0.00    +0.000 HD
ATOM      9  H   UNL     1      -8.581   5.796  -6.145  0.00  0.00    +0.000 HD
BRANCH   7  10
ATOM     10  O   UNL     1      -7.660   6.700  -4.558  0.00  0.00    +0.000 OA
ATOM     11  H   UNL     1      -8.144   7.542  -4.517  0.00  0.00    +0.000 HD
ENDBRANCH   7  10
ENDBRANCH   4   7
ENDBRANCH   1   4
BRANCH   1  12
ATOM     12  C   UNL     1     -10.447   3.884  -5.304  0.00  0.00    +0.000 C 
ATOM     13  H   UNL     1     -10.763   4.727  -4.680  0.00  0.00    +0.000 HD
ATOM     14  H   UNL     1     -10.273   4.274  -6.313  0.00  0.00    +0.000 HD
BRANCH  12  15
ATOM     15  C   UNL     1     -11.563   2.853  -5.356  0.00  0.00    +0.000 C 
ATOM     16  H   UNL     1     -11.256   1.916  -4.881  0.00  0.00    +0.000 HD
ATOM     17  H   UNL     1     -12.459   3.219  -4.844  0.00  0.00    +0.000 HD
ATOM     18  H   UNL     1     -11.831   2.637  -6.395  0.00  0.00    +0.000 HD
ENDBRANCH  12  15
ENDBRANCH   1  12
TORSDOF 5
ENDMDL
MODEL 5
REMARK VINA RESULT:    -3.292     26.600     26.857
REMARK INTER + INTRA:          -4.145
REMARK INTER:                  -4.107
REMARK INTRA:                  -0.038
REMARK UNBOUND:                -0.083
REMARK  Name = 6276
REMARK  5 active torsions:
REMARK  status: ('A' for Active; 'I' for Inactive)
REMARK    1  A    between atoms: O_1  and  C_5
REMARK    2  A    between atoms: C_2  and  C_3
REMARK    3  A    between atoms: C_2  and  C_4
REMARK    4  A    between atoms: C_3  and  C_5
REMARK    5  A    between atoms: C_4  and  C_6
REMARK                            x       y       z     vdW  Elec       q    Type
REMARK                         _______ _______ _______ _____ _____    ______ ____
ROOT
ATOM      1  C   UNL     1      -3.005   6.895 -11.161  0.00  0.00    +0.000 C 
ATOM      2  H   UNL     1      -3.524   6.071 -11.663  0.00  0.00    +0.000 HD
ATOM      3  H   UNL     1      -3.520   7.822 -11.445  0.00  0.00    +0.000 HD
ENDROOT
BRANCH   1   4
ATOM      4  C   UNL     1      -1.554   6.953 -11.632  0.00  0.00    +0.000 C 
ATOM      5  H   UNL     1      -1.385   6.223 -12.434  0.00  0.00    +0.000 HD
ATOM      6  H   UNL     1      -0.881   6.661 -10.816  0.00  0.00    +0.000 HD
BRANCH   4   7
ATOM      7  C   UNL     1      -1.177   8.343 -12.125  0.00  0.00    +0.000 C 
ATOM      8  H   UNL     1      -1.455   9.116 -11.401  0.00  0.00    +0.000 HD
ATOM      9  H   UNL     1      -1.668   8.568 -13.077  0.00  0.00    +0.000 HD
BRANCH   7  10
ATOM     10  O   UNL     1       0.228   8.394 -12.326  0.00  0.00    +0.000 OA
ATOM     11  H   UNL     1       0.437   9.255 -12.725  0.00  0.00    +0.000 HD
ENDBRANCH   7  10
ENDBRANCH   4   7
ENDBRANCH   1   4
BRANCH   1  12
ATOM     12  C   UNL     1      -3.090   6.710  -9.646  0.00  0.00    +0.000 C 
ATOM     13  H   UNL     1      -4.001   6.157  -9.390  0.00  0.00    +0.000 HD
ATOM     14  H   UNL     1      -2.240   6.115  -9.295  0.00  0.00    +0.000 HD
BRANCH  12  15
ATOM     15  C   UNL     1      -3.095   8.046  -8.921  0.00  0.00    +0.000 C 
ATOM     16  H   UNL     1      -2.455   8.014  -8.034  0.00  0.00    +0.000 HD
ATOM     17  H   UNL     1      -2.736   8.849  -9.574  0.00  0.00    +0.000 HD
ATOM     18  H   UNL     1      -4.110   8.299  -8.599  0.00  0.00    +0.000 HD
ENDBRANCH  12  15
ENDBRANCH   1  12
TORSDOF 5
ENDMDL
MODEL 6
REMARK VINA RESULT:    -3.286      3.433      4.457
REMARK INTER + INTRA:          -4.138
REMARK INTER:                  -4.069
REMARK INTRA:                  -0.069
REMARK UNBOUND:                -0.083
REMARK  Name = 6276
REMARK  5 active torsions:
REMARK  status: ('A' for Active; 'I' for Inactive)
REMARK    1  A    between atoms: O_1  and  C_5
REMARK    2  A    between atoms: C_2  and  C_3
REMARK    3  A    between atoms: C_2  and  C_4
REMARK    4  A    between atoms: C_3  and  C_5
REMARK    5  A    between atoms: C_4  and  C_6
REMARK                            x       y       z     vdW  Elec       q    Type
REMARK                         _______ _______ _______ _____ _____    ______ ____
ROOT
ATOM      1  C   UNL     1     -20.456  -1.061   7.262  0.00  0.00    +0.000 C 
ATOM      2  H   UNL     1     -20.567  -2.131   7.052  0.00  0.00    +0.000 HD
ATOM      3  H   UNL     1     -19.507  -0.932   7.797  0.00  0.00    +0.000 HD
ENDROOT
BRANCH   1   4
ATOM      4  C   UNL     1     -21.608  -0.590   8.148  0.00  0.00    +0.000 C 
ATOM      5  H   UNL     1     -22.277   0.070   7.583  0.00  0.00    +0.000 HD
ATOM      6  H   UNL     1     -21.221   0.015   8.978  0.00  0.00    +0.000 HD
BRANCH   4   7
ATOM      7  C   UNL     1     -22.404  -1.762   8.705  0.00  0.00    +0.000 C 
ATOM      8  H   UNL     1     -23.465  -1.689   8.443  0.00  0.00    +0.000 HD
ATOM      9  H   UNL     1     -22.319  -1.811   9.795  0.00  0.00    +0.000 HD
BRANCH   7  10
ATOM     10  O   UNL     1     -21.886  -2.968   8.164  0.00  0.00    +0.000 OA
ATOM     11  H   UNL     1     -22.624  -3.446   7.749  0.00  0.00    +0.000 HD
ENDBRANCH   7  10
ENDBRANCH   4   7
ENDBRANCH   1   4
BRANCH   1  12
ATOM     12  C   UNL     1     -20.410  -0.280   5.949  0.00  0.00    +0.000 C 
ATOM     13  H   UNL     1     -21.043   0.611   6.024  0.00  0.00    +0.000 HD
ATOM     14  H   UNL     1     -19.388   0.063   5.755  0.00  0.00    +0.000 HD
BRANCH  12  15
ATOM     15  C   UNL     1     -20.879  -1.131   4.779  0.00  0.00    +0.000 C 
ATOM     16  H   UNL     1     -21.942  -1.374   4.871  0.00  0.00    +0.000 HD
ATOM     17  H   UNL     1     -20.727  -0.608   3.829  0.00  0.00    +0.000 HD
ATOM     18  H   UNL     1     -20.317  -2.069   4.744  0.00  0.00    +0.000 HD
ENDBRANCH  12  15
ENDBRANCH   1  12
TORSDOF 5
ENDMDL
MODEL 7
REMARK VINA RESULT:    -3.207      3.098      4.579
REMARK INTER + INTRA:          -4.039
REMARK INTER:                  -4.016
REMARK INTRA:                  -0.023
REMARK UNBOUND:                -0.083
REMARK  Name = 6276
REMARK  5 active torsions:
REMARK  status: ('A' for Active; 'I' for Inactive)
REMARK    1  A    between atoms: O_1  and  C_5
REMARK    2  A    between atoms: C_2  and  C_3
REMARK    3  A    between atoms: C_2  and  C_4
REMARK    4  A    between atoms: C_3  and  C_5
REMARK    5  A    between atoms: C_4  and  C_6
REMARK                            x       y       z     vdW  Elec       q    Type
REMARK                         _______ _______ _______ _____ _____    ______ ____
ROOT
ATOM      1  C   UNL     1     -20.693  -1.667   5.685  0.00  0.00    +0.000 C 
ATOM      2  H   UNL     1     -19.862  -1.547   4.980  0.00  0.00    +0.000 HD
ATOM      3  H   UNL     1     -21.605  -1.343   5.168  0.00  0.00    +0.000 HD
ENDROOT
BRANCH   1   4
ATOM      4  C   UNL     1     -20.459  -0.783   6.908  0.00  0.00    +0.000 C 
ATOM      5  H   UNL     1     -20.596   0.273   6.646  0.00  0.00    +0.000 HD
ATOM      6  H   UNL     1     -19.420  -0.875   7.247  0.00  0.00    +0.000 HD
BRANCH   4   7
ATOM      7  C   UNL     1     -21.396  -1.147   8.051  0.00  0.00    +0.000 C 
ATOM      8  H   UNL     1     -20.917  -1.824   8.766  0.00  0.00    +0.000 HD
ATOM      9  H   UNL     1     -22.305  -1.627   7.676  0.00  0.00    +0.000 HD
BRANCH   7  10
ATOM     10  O   UNL     1     -21.771   0.041   8.734  0.00  0.00    +0.000 OA
ATOM     11  H   UNL     1     -22.247   0.606   8.102  0.00  0.00    +0.000 HD
ENDBRANCH   7  10
ENDBRANCH   4   7
ENDBRANCH   1   4
BRANCH   1  12
ATOM     12  C   UNL     1     -20.826  -3.137   6.079  0.00  0.00    +0.000 C 
ATOM     13  H   UNL     1     -20.232  -3.337   6.978  0.00  0.00    +0.000 HD
ATOM     14  H   UNL     1     -21.870  -3.365   6.322  0.00  0.00    +0.000 HD
BRANCH  12  15
ATOM     15  C   UNL     1     -20.364  -4.058   4.960  0.00  0.00    +0.000 C 
ATOM     16  H   UNL     1     -19.272  -4.122   4.929  0.00  0.00    +0.000 HD
ATOM     17  H   UNL     1     -20.764  -5.068   5.093  0.00  0.00    +0.000 HD
ATOM     18  H   UNL     1     -20.711  -3.681   3.992  0.00  0.00    +0.000 HD
ENDBRANCH  12  15
ENDBRANCH   1  12
TORSDOF 5
ENDMDL
MODEL 8
REMARK VINA RESULT:    -3.169     29.378     29.766
REMARK INTER + INTRA:          -3.992
REMARK INTER:                  -3.929
REMARK INTRA:                  -0.064
REMARK UNBOUND:                -0.083
REMARK  Name = 6276
REMARK  5 active torsions:
REMARK  status: ('A' for Active; 'I' for Inactive)
REMARK    1  A    between atoms: O_1  and  C_5
REMARK    2  A    between atoms: C_2  and  C_3
REMARK    3  A    between atoms: C_2  and  C_4
REMARK    4  A    between atoms: C_3  and  C_5
REMARK    5  A    between atoms: C_4  and  C_6
REMARK                            x       y       z     vdW  Elec       q    Type
REMARK                         _______ _______ _______ _____ _____    ______ ____
ROOT
ATOM      1  C   UNL     1       4.505  10.507   0.628  0.00  0.00    +0.000 C 
ATOM      2  H   UNL     1       4.828  10.777   1.640  0.00  0.00    +0.000 HD
ATOM      3  H   UNL     1       3.802   9.670   0.726  0.00  0.00    +0.000 HD
ENDROOT
BRANCH   1   4
ATOM      4  C   UNL     1       5.712  10.066  -0.196  0.00  0.00    +0.000 C 
ATOM      5  H   UNL     1       5.384   9.622  -1.144  0.00  0.00    +0.000 HD
ATOM      6  H   UNL     1       6.259   9.275   0.331  0.00  0.00    +0.000 HD
BRANCH   4   7
ATOM      7  C   UNL     1       6.653  11.228  -0.481  0.00  0.00    +0.000 C 
ATOM      8  H   UNL     1       7.635  11.073  -0.021  0.00  0.00    +0.000 HD
ATOM      9  H   UNL     1       6.240  12.169  -0.106  0.00  0.00    +0.000 HD
BRANCH   7  10
ATOM     10  O   UNL     1       6.825  11.347  -1.886  0.00  0.00    +0.000 OA
ATOM     11  H   UNL     1       6.721  12.285  -2.117  0.00  0.00    +0.000 HD
ENDBRANCH   7  10
ENDBRANCH   4   7
ENDBRANCH   1   4
BRANCH   1  12
ATOM     12  C   UNL     1       3.794  11.695  -0.019  0.00  0.00    +0.000 C 
ATOM     13  H   UNL     1       3.013  12.072   0.651  0.00  0.00    +0.000 HD
ATOM     14  H   UNL     1       4.505  12.514  -0.179  0.00  0.00    +0.000 HD
BRANCH  12  15
ATOM     15  C   UNL     1       3.170  11.313  -1.351  0.00  0.00    +0.000 C 
ATOM     16  H   UNL     1       3.061  12.187  -2.000  0.00  0.00    +0.000 HD
ATOM     17  H   UNL     1       3.783  10.571  -1.874  0.00  0.00    +0.000 HD
ATOM     18  H   UNL     1       2.176  10.881  -1.194  0.00  0.00    +0.000 HD
ENDBRANCH  12  15
ENDBRANCH   1  12
TORSDOF 5
ENDMDL
MODEL 9
REMARK VINA RESULT:    -3.166     29.382     29.825
REMARK INTER + INTRA:          -3.990
REMARK INTER:                  -3.960
REMARK INTRA:                  -0.030
REMARK UNBOUND:                -0.083
REMARK  Name = 6276
REMARK  5 active torsions:
REMARK  status: ('A' for Active; 'I' for Inactive)
REMARK    1  A    between atoms: O_1  and  C_5
REMARK    2  A    between atoms: C_2  and  C_3
REMARK    3  A    between atoms: C_2  and  C_4
REMARK    4  A    between atoms: C_3  and  C_5
REMARK    5  A    between atoms: C_4  and  C_6
REMARK                            x       y       z     vdW  Elec       q    Type
REMARK                         _______ _______ _______ _____ _____    ______ ____
ROOT
ATOM      1  C   UNL     1       5.338  10.375  -0.568  0.00  0.00    +0.000 C 
ATOM      2  H   UNL     1       5.453   9.431  -1.112  0.00  0.00    +0.000 HD
ATOM      3  H   UNL     1       5.359  10.136   0.503  0.00  0.00    +0.000 HD
ENDROOT
BRANCH   1   4
ATOM      4  C   UNL     1       3.995  11.011  -0.921  0.00  0.00    +0.000 C 
ATOM      5  H   UNL     1       3.230  10.236  -1.053  0.00  0.00    +0.000 HD
ATOM      6  H   UNL     1       4.065  11.528  -1.886  0.00  0.00    +0.000 HD
BRANCH   4   7
ATOM      7  C   UNL     1       3.540  11.995   0.147  0.00  0.00    +0.000 C 
ATOM      8  H   UNL     1       2.632  12.528  -0.155  0.00  0.00    +0.000 HD
ATOM      9  H   UNL     1       4.320  12.733   0.359  0.00  0.00    +0.000 HD
BRANCH   7  10
ATOM     10  O   UNL     1       3.269  11.281   1.345  0.00  0.00    +0.000 OA
ATOM     11  H   UNL     1       3.077  11.934   2.039  0.00  0.00    +0.000 HD
ENDBRANCH   7  10
ENDBRANCH   4   7
ENDBRANCH   1   4
BRANCH   1  12
ATOM     12  C   UNL     1       6.500  11.309  -0.904  0.00  0.00    +0.000 C 
ATOM     13  H   UNL     1       6.224  11.960  -1.742  0.00  0.00    +0.000 HD
ATOM     14  H   UNL     1       6.717  11.958  -0.048  0.00  0.00    +0.000 HD
BRANCH  12  15
ATOM     15  C   UNL     1       7.754  10.529  -1.267  0.00  0.00    +0.000 C 
ATOM     16  H   UNL     1       8.329  11.047  -2.041  0.00  0.00    +0.000 HD
ATOM     17  H   UNL     1       8.399  10.395  -0.392  0.00  0.00    +0.000 HD
ATOM     18  H   UNL     1       7.487   9.538  -1.647  0.00  0.00    +0.000 HD
ENDBRANCH  12  15
ENDBRANCH   1  12
TORSDOF 5
ENDMDL
MODEL 10
REMARK VINA RESULT:    -2.963      2.669      2.992
REMARK INTER + INTRA:          -3.739
REMARK INTER:                  -3.656
REMARK INTRA:                  -0.083
REMARK UNBOUND:                -0.083
REMARK  Name = 6276
REMARK  5 active torsions:
REMARK  status: ('A' for Active; 'I' for Inactive)
REMARK    1  A    between atoms: O_1  and  C_5
REMARK    2  A    between atoms: C_2  and  C_3
REMARK    3  A    between atoms: C_2  and  C_4
REMARK    4  A    between atoms: C_3  and  C_5
REMARK    5  A    between atoms: C_4  and  C_6
REMARK                            x       y       z     vdW  Elec       q    Type
REMARK                         _______ _______ _______ _____ _____    ______ ____
ROOT
ATOM      1  C   UNL     1     -20.805  -1.568   5.117  0.00  0.00    +0.000 C 
ATOM      2  H   UNL     1     -21.806  -1.397   4.703  0.00  0.00    +0.000 HD
ATOM      3  H   UNL     1     -20.101  -1.562   4.275  0.00  0.00    +0.000 HD
ENDROOT
BRANCH   1   4
ATOM      4  C   UNL     1     -20.761  -2.929   5.808  0.00  0.00    +0.000 C 
ATOM      5  H   UNL     1     -20.696  -2.802   6.896  0.00  0.00    +0.000 HD
ATOM      6  H   UNL     1     -19.853  -3.471   5.515  0.00  0.00    +0.000 HD
BRANCH   4   7
ATOM      7  C   UNL     1     -21.982  -3.772   5.469  0.00  0.00    +0.000 C 
ATOM      8  H   UNL     1     -21.710  -4.813   5.266  0.00  0.00    +0.000 HD
ATOM      9  H   UNL     1     -22.504  -3.373   4.594  0.00  0.00    +0.000 HD
BRANCH   7  10
ATOM     10  O   UNL     1     -22.879  -3.745   6.570  0.00  0.00    +0.000 OA
ATOM     11  H   UNL     1     -22.880  -2.840   6.927  0.00  0.00    +0.000 HD
ENDBRANCH   7  10
ENDBRANCH   4   7
ENDBRANCH   1   4
BRANCH   1  12
ATOM     12  C   UNL     1     -20.450  -0.441   6.086  0.00  0.00    +0.000 C 
ATOM     13  H   UNL     1     -19.381  -0.212   6.014  0.00  0.00    +0.000 HD
ATOM     14  H   UNL     1     -20.996   0.470   5.815  0.00  0.00    +0.000 HD
BRANCH  12  15
ATOM     15  C   UNL     1     -20.787  -0.813   7.521  0.00  0.00    +0.000 C 
ATOM     16  H   UNL     1     -21.685  -1.438   7.565  0.00  0.00    +0.000 HD
ATOM     17  H   UNL     1     -19.964  -1.364   7.988  0.00  0.00    +0.000 HD
ATOM     18  H   UNL     1     -20.971   0.089   8.113  0.00  0.00    +0.000 HD
ENDBRANCH  12  15
ENDBRANCH   1  12
TORSDOF 5
ENDMDL
