MODEL 1
REMARK VINA RESULT:    -4.638      0.000      0.000
REMARK INTER + INTRA:          -7.169
REMARK INTER:                  -6.498
REMARK INTRA:                  -0.671
REMARK UNBOUND:                -0.361
REMARK  Name = 12741
REMARK  9 active torsions:
REMARK  status: ('A' for Active; 'I' for Inactive)
REMARK    1  A    between atoms: C_2  and  C_3
REMARK    2  A    between atoms: C_2  and  C_4
REMARK    3  A    between atoms: C_3  and  C_5
REMARK    4  A    between atoms: C_4  and  C_6
REMARK    5  A    between atoms: C_5  and  C_7
REMARK    6  A    between atoms: C_6  and  C_8
REMARK    7  A    between atoms: C_7  and  C_9
REMARK    8  A    between atoms: C_8  and  C_10
REMARK    9  A    between atoms: C_10  and  C_11
REMARK                            x       y       z     vdW  Elec       q    Type
REMARK                         _______ _______ _______ _____ _____    ______ ____
ROOT
ATOM      1  C   UNL     1      -2.965  10.063 -10.081  0.00  0.00    +0.000 C 
ATOM      2  H   UNL     1      -2.819  11.083  -9.705  0.00  0.00    +0.000 HD
ATOM      3  H   UNL     1      -4.046   9.882 -10.116  0.00  0.00    +0.000 HD
ENDROOT
BRANCH   1   4
ATOM      4  C   UNL     1      -2.308   9.064  -9.127  0.00  0.00    +0.000 C 
ATOM      5  H   UNL     1      -2.052   9.566  -8.187  0.00  0.00    +0.000 HD
ATOM      6  H   UNL     1      -1.371   8.700  -9.566  0.00  0.00    +0.000 HD
BRANCH   4   7
ATOM      7  C   UNL     1      -3.232   7.878  -8.843  0.00  0.00    +0.000 C 
ATOM      8  H   UNL     1      -3.041   7.498  -7.832  0.00  0.00    +0.000 HD
ATOM      9  H   UNL     1      -4.276   8.212  -8.870  0.00  0.00    +0.000 HD
BRANCH   7  10
ATOM     10  C   UNL     1      -3.027   6.757  -9.861  0.00  0.00    +0.000 C 
ATOM     11  H   UNL     1      -2.050   6.870 -10.347  0.00  0.00    +0.000 HD
ATOM     12  H   UNL     1      -3.027   5.787  -9.352  0.00  0.00    +0.000 HD
BRANCH  10  13
ATOM     13  C   UNL     1      -4.113   6.766 -10.925  0.00  0.00    +0.000 C 
ATOM     14  H   UNL     1      -4.911   6.060 -10.674  0.00  0.00    +0.000 HD
ATOM     15  H   UNL     1      -3.696   6.476 -11.894  0.00  0.00    +0.000 HD
ATOM     16  H   UNL     1      -4.554   7.762 -11.028  0.00  0.00    +0.000 HD
ENDBRANCH  10  13
ENDBRANCH   7  10
ENDBRANCH   4   7
ENDBRANCH   1   4
BRANCH   1  17
ATOM     17  C   UNL     1      -2.383   9.949 -11.492  0.00  0.00    +0.000 C 
ATOM     18  H   UNL     1      -2.631  10.849 -12.067  0.00  0.00    +0.000 HD
ATOM     19  H   UNL     1      -2.844   9.099 -12.010  0.00  0.00    +0.000 HD
BRANCH  17  20
ATOM     20  C   UNL     1      -0.865   9.769 -11.457  0.00  0.00    +0.000 C 
ATOM     21  H   UNL     1      -0.378  10.640 -11.912  0.00  0.00    +0.000 HD
ATOM     22  H   UNL     1      -0.524   9.728 -10.414  0.00  0.00    +0.000 HD
BRANCH  20  23
ATOM     23  C   UNL     1      -0.439   8.499 -12.187  0.00  0.00    +0.000 C 
ATOM     24  H   UNL     1      -1.186   7.711 -12.035  0.00  0.00    +0.000 HD
ATOM     25  H   UNL     1       0.522   8.149 -11.795  0.00  0.00    +0.000 HD
BRANCH  23  27
ATOM     26  O   UNL     1       0.611   9.405 -14.167  0.00  0.00    +0.000 OA
ATOM     27  C   UNL     1      -0.281   8.711 -13.683  0.00  0.00    +0.000 C 
BRANCH  27  28
ATOM     28  C   UNL     1      -1.289   8.018 -14.561  0.00  0.00    +0.000 C 
ATOM     29  H   UNL     1      -0.886   7.059 -14.895  0.00  0.00    +0.000 HD
ATOM     30  H   UNL     1      -2.216   7.864 -14.003  0.00  0.00    +0.000 HD
ATOM     31  H   UNL     1      -1.503   8.636 -15.437  0.00  0.00    +0.000 HD
ENDBRANCH  27  28
ENDBRANCH  23  27
ENDBRANCH  20  23
ENDBRANCH  17  20
ENDBRANCH   1  17
TORSDOF 9
ENDMDL
MODEL 2
REMARK VINA RESULT:    -4.602      1.138      2.424
REMARK INTER + INTRA:          -7.115
REMARK INTER:                  -6.375
REMARK INTRA:                  -0.740
REMARK UNBOUND:                -0.361
REMARK  Name = 12741
REMARK  9 active torsions:
REMARK  status: ('A' for Active; 'I' for Inactive)
REMARK    1  A    between atoms: C_2  and  C_3
REMARK    2  A    between atoms: C_2  and  C_4
REMARK    3  A    between atoms: C_3  and  C_5
REMARK    4  A    between atoms: C_4  and  C_6
REMARK    5  A    between atoms: C_5  and  C_7
REMARK    6  A    between atoms: C_6  and  C_8
REMARK    7  A    between atoms: C_7  and  C_9
REMARK    8  A    between atoms: C_8  and  C_10
REMARK    9  A    between atoms: C_10  and  C_11
REMARK                            x       y       z     vdW  Elec       q    Type
REMARK                         _______ _______ _______ _____ _____    ______ ____
ROOT
ATOM      1  C   UNL     1      -3.711   6.927 -11.335  0.00  0.00    +0.000 C 
ATOM      2  H   UNL     1      -4.343   7.819 -11.252  0.00  0.00    +0.000 HD
ATOM      3  H   UNL     1      -4.378   6.071 -11.492  0.00  0.00    +0.000 HD
ENDROOT
BRANCH   1   4
ATOM      4  C   UNL     1      -2.925   6.732 -10.038  0.00  0.00    +0.000 C 
ATOM      5  H   UNL     1      -1.852   6.824 -10.239  0.00  0.00    +0.000 HD
ATOM      6  H   UNL     1      -3.096   5.719  -9.654  0.00  0.00    +0.000 HD
BRANCH   4   7
ATOM      7  C   UNL     1      -3.339   7.755  -8.977  0.00  0.00    +0.000 C 
ATOM      8  H   UNL     1      -4.381   8.055  -9.143  0.00  0.00    +0.000 HD
ATOM      9  H   UNL     1      -3.290   7.294  -7.985  0.00  0.00    +0.000 HD
BRANCH   7  10
ATOM     10  C   UNL     1      -2.437   8.988  -9.013  0.00  0.00    +0.000 C 
ATOM     11  H   UNL     1      -2.365   9.427  -8.011  0.00  0.00    +0.000 HD
ATOM     12  H   UNL     1      -1.424   8.700  -9.315  0.00  0.00    +0.000 HD
BRANCH  10  13
ATOM     13  C   UNL     1      -2.967  10.038  -9.976  0.00  0.00    +0.000 C 
ATOM     14  H   UNL     1      -4.053   9.954 -10.088  0.00  0.00    +0.000 HD
ATOM     15  H   UNL     1      -2.513   9.911 -10.964  0.00  0.00    +0.000 HD
ATOM     16  H   UNL     1      -2.735  11.049  -9.623  0.00  0.00    +0.000 HD
ENDBRANCH  10  13
ENDBRANCH   7  10
ENDBRANCH   4   7
ENDBRANCH   1   4
BRANCH   1  17
ATOM     17  C   UNL     1      -2.774   7.071 -12.536  0.00  0.00    +0.000 C 
ATOM     18  H   UNL     1      -2.913   8.057 -12.996  0.00  0.00    +0.000 HD
ATOM     19  H   UNL     1      -3.034   6.322 -13.294  0.00  0.00    +0.000 HD
BRANCH  17  20
ATOM     20  C   UNL     1      -1.311   6.902 -12.125  0.00  0.00    +0.000 C 
ATOM     21  H   UNL     1      -1.256   6.487 -11.112  0.00  0.00    +0.000 HD
ATOM     22  H   UNL     1      -0.824   6.177 -12.789  0.00  0.00    +0.000 HD
BRANCH  20  23
ATOM     23  C   UNL     1      -0.562   8.231 -12.180  0.00  0.00    +0.000 C 
ATOM     24  H   UNL     1       0.505   8.066 -11.991  0.00  0.00    +0.000 HD
ATOM     25  H   UNL     1      -0.951   8.910 -11.415  0.00  0.00    +0.000 HD
BRANCH  23  27
ATOM     26  O   UNL     1      -0.315   8.413 -14.578  0.00  0.00    +0.000 OA
ATOM     27  C   UNL     1      -0.698   8.921 -13.527  0.00  0.00    +0.000 C 
BRANCH  27  28
ATOM     28  C   UNL     1      -1.336  10.286 -13.510  0.00  0.00    +0.000 C 
ATOM     29  H   UNL     1      -0.995  10.860 -14.374  0.00  0.00    +0.000 HD
ATOM     30  H   UNL     1      -2.423  10.182 -13.530  0.00  0.00    +0.000 HD
ATOM     31  H   UNL     1      -1.048  10.817 -12.598  0.00  0.00    +0.000 HD
ENDBRANCH  27  28
ENDBRANCH  23  27
ENDBRANCH  20  23
ENDBRANCH  17  20
ENDBRANCH   1  17
TORSDOF 9
ENDMDL
MODEL 3
REMARK VINA RESULT:    -4.523      1.930      2.948
REMARK INTER + INTRA:          -7.000
REMARK INTER:                  -6.363
REMARK INTRA:                  -0.637
REMARK UNBOUND:                -0.361
REMARK  Name = 12741
REMARK  9 active torsions:
REMARK  status: ('A' for Active; 'I' for Inactive)
REMARK    1  A    between atoms: C_2  and  C_3
REMARK    2  A    between atoms: C_2  and  C_4
REMARK    3  A    between atoms: C_3  and  C_5
REMARK    4  A    between atoms: C_4  and  C_6
REMARK    5  A    between atoms: C_5  and  C_7
REMARK    6  A    between atoms: C_6  and  C_8
REMARK    7  A    between atoms: C_7  and  C_9
REMARK    8  A    between atoms: C_8  and  C_10
REMARK    9  A    between atoms: C_10  and  C_11
REMARK                            x       y       z     vdW  Elec       q    Type
REMARK                         _______ _______ _______ _____ _____    ______ ____
ROOT
ATOM      1  C   UNL     1      -4.091   6.967 -11.161  0.00  0.00    +0.000 C 
ATOM      2  H   UNL     1      -4.734   7.842 -11.312  0.00  0.00    +0.000 HD
ATOM      3  H   UNL     1      -4.722   6.078 -11.274  0.00  0.00    +0.000 HD
ENDROOT
BRANCH   1   4
ATOM      4  C   UNL     1      -3.499   7.001  -9.751  0.00  0.00    +0.000 C 
ATOM      5  H   UNL     1      -3.290   8.038  -9.464  0.00  0.00    +0.000 HD
ATOM      6  H   UNL     1      -2.544   6.463  -9.742  0.00  0.00    +0.000 HD
BRANCH   4   7
ATOM      7  C   UNL     1      -4.451   6.367  -8.734  0.00  0.00    +0.000 C 
ATOM      8  H   UNL     1      -3.995   5.459  -8.321  0.00  0.00    +0.000 HD
ATOM      9  H   UNL     1      -4.607   7.059  -7.898  0.00  0.00    +0.000 HD
BRANCH   7  10
ATOM     10  C   UNL     1      -5.797   6.024  -9.372  0.00  0.00    +0.000 C 
ATOM     11  H   UNL     1      -6.336   6.945  -9.622  0.00  0.00    +0.000 HD
ATOM     12  H   UNL     1      -5.637   5.476 -10.307  0.00  0.00    +0.000 HD
BRANCH  10  13
ATOM     13  C   UNL     1      -6.656   5.184  -8.440  0.00  0.00    +0.000 C 
ATOM     14  H   UNL     1      -7.132   4.361  -8.983  0.00  0.00    +0.000 HD
ATOM     15  H   UNL     1      -7.445   5.799  -7.996  0.00  0.00    +0.000 HD
ATOM     16  H   UNL     1      -6.057   4.759  -7.628  0.00  0.00    +0.000 HD
ENDBRANCH  10  13
ENDBRANCH   7  10
ENDBRANCH   4   7
ENDBRANCH   1   4
BRANCH   1  17
ATOM     17  C   UNL     1      -2.991   6.950 -12.225  0.00  0.00    +0.000 C 
ATOM     18  H   UNL     1      -3.103   7.818 -12.885  0.00  0.00    +0.000 HD
ATOM     19  H   UNL     1      -3.100   6.054 -12.848  0.00  0.00    +0.000 HD
BRANCH  17  20
ATOM     20  C   UNL     1      -1.600   6.969 -11.589  0.00  0.00    +0.000 C 
ATOM     21  H   UNL     1      -1.688   7.147 -10.511  0.00  0.00    +0.000 HD
ATOM     22  H   UNL     1      -1.128   5.986 -11.708  0.00  0.00    +0.000 HD
BRANCH  20  23
ATOM     23  C   UNL     1      -0.717   8.042 -12.219  0.00  0.00    +0.000 C 
ATOM     24  H   UNL     1      -0.658   7.890 -13.303  0.00  0.00    +0.000 HD
ATOM     25  H   UNL     1       0.295   7.984 -11.803  0.00  0.00    +0.000 HD
BRANCH  23  27
ATOM     26  O   UNL     1      -1.650  10.174 -12.874  0.00  0.00    +0.000 OA
ATOM     27  C   UNL     1      -1.240   9.447 -11.972  0.00  0.00    +0.000 C 
BRANCH  27  28
ATOM     28  C   UNL     1      -1.231   9.916 -10.540  0.00  0.00    +0.000 C 
ATOM     29  H   UNL     1      -1.073   9.063  -9.877  0.00  0.00    +0.000 HD
ATOM     30  H   UNL     1      -0.438  10.655 -10.402  0.00  0.00    +0.000 HD
ATOM     31  H   UNL     1      -2.192  10.378 -10.298  0.00  0.00    +0.000 HD
ENDBRANCH  27  28
ENDBRANCH  23  27
ENDBRANCH  20  23
ENDBRANCH  17  20
ENDBRANCH   1  17
TORSDOF 9
ENDMDL
MODEL 4
REMARK VINA RESULT:    -4.497     25.225     27.376
REMARK INTER + INTRA:          -6.961
REMARK INTER:                  -6.570
REMARK INTRA:                  -0.391
REMARK UNBOUND:                -0.361
REMARK  Name = 12741
REMARK  9 active torsions:
REMARK  status: ('A' for Active; 'I' for Inactive)
REMARK    1  A    between atoms: C_2  and  C_3
REMARK    2  A    between atoms: C_2  and  C_4
REMARK    3  A    between atoms: C_3  and  C_5
REMARK    4  A    between atoms: C_4  and  C_6
REMARK    5  A    between atoms: C_5  and  C_7
REMARK    6  A    between atoms: C_6  and  C_8
REMARK    7  A    between atoms: C_7  and  C_9
REMARK    8  A    between atoms: C_8  and  C_10
REMARK    9  A    between atoms: C_10  and  C_11
REMARK                            x       y       z     vdW  Elec       q    Type
REMARK                         _______ _______ _______ _____ _____    ______ ____
ROOT
ATOM      1  C   UNL     1     -21.156  -1.502   4.710  0.00  0.00    +0.000 C 
ATOM      2  H   UNL     1     -20.957  -1.292   3.652  0.00  0.00    +0.000 HD
ATOM      3  H   UNL     1     -22.241  -1.428   4.856  0.00  0.00    +0.000 HD
ENDROOT
BRANCH   1   4
ATOM      4  C   UNL     1     -20.450  -0.463   5.582  0.00  0.00    +0.000 C 
ATOM      5  H   UNL     1     -21.056   0.448   5.633  0.00  0.00    +0.000 HD
ATOM      6  H   UNL     1     -19.492  -0.190   5.123  0.00  0.00    +0.000 HD
BRANCH   4   7
ATOM      7  C   UNL     1     -20.204  -0.998   6.994  0.00  0.00    +0.000 C 
ATOM      8  H   UNL     1     -20.057  -2.084   6.956  0.00  0.00    +0.000 HD
ATOM      9  H   UNL     1     -19.282  -0.561   7.396  0.00  0.00    +0.000 HD
BRANCH   7  10
ATOM     10  C   UNL     1     -21.372  -0.670   7.924  0.00  0.00    +0.000 C 
ATOM     11  H   UNL     1     -21.007  -0.126   8.803  0.00  0.00    +0.000 HD
ATOM     12  H   UNL     1     -22.084  -0.015   7.410  0.00  0.00    +0.000 HD
BRANCH  10  13
ATOM     13  C   UNL     1     -22.089  -1.929   8.383  0.00  0.00    +0.000 C 
ATOM     14  H   UNL     1     -21.375  -2.731   8.596  0.00  0.00    +0.000 HD
ATOM     15  H   UNL     1     -22.772  -2.281   7.604  0.00  0.00    +0.000 HD
ATOM     16  H   UNL     1     -22.674  -1.740   9.289  0.00  0.00    +0.000 HD
ENDBRANCH  10  13
ENDBRANCH   7  10
ENDBRANCH   4   7
ENDBRANCH   1   4
BRANCH   1  17
ATOM     17  C   UNL     1     -20.692  -2.920   5.048  0.00  0.00    +0.000 C 
ATOM     18  H   UNL     1     -21.455  -3.422   5.656  0.00  0.00    +0.000 HD
ATOM     19  H   UNL     1     -19.778  -2.872   5.653  0.00  0.00    +0.000 HD
BRANCH  17  20
ATOM     20  C   UNL     1     -20.430  -3.738   3.783  0.00  0.00    +0.000 C 
ATOM     21  H   UNL     1     -21.363  -4.205   3.443  0.00  0.00    +0.000 HD
ATOM     22  H   UNL     1     -20.100  -3.071   2.976  0.00  0.00    +0.000 HD
BRANCH  20  23
ATOM     23  C   UNL     1     -19.374  -4.812   4.024  0.00  0.00    +0.000 C 
ATOM     24  H   UNL     1     -19.775  -5.590   4.685  0.00  0.00    +0.000 HD
ATOM     25  H   UNL     1     -18.493  -4.369   4.502  0.00  0.00    +0.000 HD
BRANCH  23  27
ATOM     26  O   UNL     1     -19.508  -6.434   2.236  0.00  0.00    +0.000 OA
ATOM     27  C   UNL     1     -18.918  -5.480   2.738  0.00  0.00    +0.000 C 
BRANCH  27  28
ATOM     28  C   UNL     1     -17.682  -4.907   2.095  0.00  0.00    +0.000 C 
ATOM     29  H   UNL     1     -17.238  -5.648   1.427  0.00  0.00    +0.000 HD
ATOM     30  H   UNL     1     -17.945  -4.004   1.538  0.00  0.00    +0.000 HD
ATOM     31  H   UNL     1     -16.952  -4.645   2.867  0.00  0.00    +0.000 HD
ENDBRANCH  27  28
ENDBRANCH  23  27
ENDBRANCH  20  23
ENDBRANCH  17  20
ENDBRANCH   1  17
TORSDOF 9
ENDMDL
MODEL 5
REMARK VINA RESULT:    -4.328     14.706     15.958
REMARK INTER + INTRA:          -6.714
REMARK INTER:                  -6.200
REMARK INTRA:                  -0.513
REMARK UNBOUND:                -0.361
REMARK  Name = 12741
REMARK  9 active torsions:
REMARK  status: ('A' for Active; 'I' for Inactive)
REMARK    1  A    between atoms: C_2  and  C_3
REMARK    2  A    between atoms: C_2  and  C_4
REMARK    3  A    between atoms: C_3  and  C_5
REMARK    4  A    between atoms: C_4  and  C_6
REMARK    5  A    between atoms: C_5  and  C_7
REMARK    6  A    between atoms: C_6  and  C_8
REMARK    7  A    between atoms: C_7  and  C_9
REMARK    8  A    between atoms: C_8  and  C_10
REMARK    9  A    between atoms: C_10  and  C_11
REMARK                            x       y       z     vdW  Elec       q    Type
REMARK                         _______ _______ _______ _____ _____    ______ ____
ROOT
ATOM      1  C   UNL     1       6.785   8.181   1.727  0.00  0.00    +0.000 C 
ATOM      2  H   UNL     1       6.571   8.595   0.734  0.00  0.00    +0.000 HD
ATOM      3  H   UNL     1       7.219   7.185   1.575  0.00  0.00    +0.000 HD
ENDROOT
BRANCH   1   4
ATOM      4  C   UNL     1       5.487   8.058   2.524  0.00  0.00    +0.000 C 
ATOM      5  H   UNL     1       4.633   8.036   1.838  0.00  0.00    +0.000 HD
ATOM      6  H   UNL     1       5.365   8.941   3.164  0.00  0.00    +0.000 HD
BRANCH   4   7
ATOM      7  C   UNL     1       5.483   6.797   3.391  0.00  0.00    +0.000 C 
ATOM      8  H   UNL     1       4.620   6.173   3.129  0.00  0.00    +0.000 HD
ATOM      9  H   UNL     1       6.383   6.207   3.183  0.00  0.00    +0.000 HD
BRANCH   7  10
ATOM     10  C   UNL     1       5.434   7.146   4.879  0.00  0.00    +0.000 C 
ATOM     11  H   UNL     1       4.675   6.534   5.380  0.00  0.00    +0.000 HD
ATOM     12  H   UNL     1       6.398   6.916   5.347  0.00  0.00    +0.000 HD
BRANCH  10  13
ATOM     13  C   UNL     1       5.108   8.615   5.096  0.00  0.00    +0.000 C 
ATOM     14  H   UNL     1       4.825   9.096   4.154  0.00  0.00    +0.000 HD
ATOM     15  H   UNL     1       5.979   9.140   5.498  0.00  0.00    +0.000 HD
ATOM     16  H   UNL     1       4.281   8.733   5.804  0.00  0.00    +0.000 HD
ENDBRANCH  10  13
ENDBRANCH   7  10
ENDBRANCH   4   7
ENDBRANCH   1   4
BRANCH   1  17
ATOM     17  C   UNL     1       7.799   9.073   2.447  0.00  0.00    +0.000 C 
ATOM     18  H   UNL     1       8.545   8.449   2.953  0.00  0.00    +0.000 HD
ATOM     19  H   UNL     1       7.286   9.656   3.222  0.00  0.00    +0.000 HD
BRANCH  17  20
ATOM     20  C   UNL     1       8.502  10.018   1.472  0.00  0.00    +0.000 C 
ATOM     21  H   UNL     1       8.659  10.993   1.948  0.00  0.00    +0.000 HD
ATOM     22  H   UNL     1       9.497   9.622   1.229  0.00  0.00    +0.000 HD
BRANCH  20  23
ATOM     23  C   UNL     1       7.694  10.194   0.189  0.00  0.00    +0.000 C 
ATOM     24  H   UNL     1       7.321  11.222   0.120  0.00  0.00    +0.000 HD
ATOM     25  H   UNL     1       6.837   9.512   0.192  0.00  0.00    +0.000 HD
BRANCH  23  27
ATOM     26  O   UNL     1       9.581  10.464  -1.297  0.00  0.00    +0.000 OA
ATOM     27  C   UNL     1       8.512   9.908  -1.059  0.00  0.00    +0.000 C 
BRANCH  27  28
ATOM     28  C   UNL     1       7.937   8.890  -2.009  0.00  0.00    +0.000 C 
ATOM     29  H   UNL     1       8.046   7.890  -1.585  0.00  0.00    +0.000 HD
ATOM     30  H   UNL     1       6.882   9.111  -2.188  0.00  0.00    +0.000 HD
ATOM     31  H   UNL     1       8.473   8.930  -2.961  0.00  0.00    +0.000 HD
ENDBRANCH  27  28
ENDBRANCH  23  27
ENDBRANCH  20  23
ENDBRANCH  17  20
ENDBRANCH   1  17
TORSDOF 9
ENDMDL
MODEL 6
REMARK VINA RESULT:    -4.295     19.441     21.974
REMARK INTER + INTRA:          -6.666
REMARK INTER:                  -6.273
REMARK INTRA:                  -0.393
REMARK UNBOUND:                -0.361
REMARK  Name = 12741
REMARK  9 active torsions:
REMARK  status: ('A' for Active; 'I' for Inactive)
REMARK    1  A    between atoms: C_2  and  C_3
REMARK    2  A    between atoms: C_2  and  C_4
REMARK    3  A    between atoms: C_3  and  C_5
REMARK    4  A    between atoms: C_4  and  C_6
REMARK    5  A    between atoms: C_5  and  C_7
REMARK    6  A    between atoms: C_6  and  C_8
REMARK    7  A    between atoms: C_7  and  C_9
REMARK    8  A    between atoms: C_8  and  C_10
REMARK    9  A    between atoms: C_10  and  C_11
REMARK                            x       y       z     vdW  Elec       q    Type
REMARK                         _______ _______ _______ _____ _____    ______ ____
ROOT
ATOM      1  C   UNL     1      -9.028   9.998   7.985  0.00  0.00    +0.000 C 
ATOM      2  H   UNL     1     -10.095   9.748   7.943  0.00  0.00    +0.000 HD
ATOM      3  H   UNL     1      -8.908  10.772   8.753  0.00  0.00    +0.000 HD
ENDROOT
BRANCH   1   4
ATOM      4  C   UNL     1      -8.574  10.545   6.631  0.00  0.00    +0.000 C 
ATOM      5  H   UNL     1      -9.420  10.554   5.935  0.00  0.00    +0.000 HD
ATOM      6  H   UNL     1      -7.812   9.881   6.206  0.00  0.00    +0.000 HD
BRANCH   4   7
ATOM      7  C   UNL     1      -8.002  11.958   6.765  0.00  0.00    +0.000 C 
ATOM      8  H   UNL     1      -8.814  12.664   6.978  0.00  0.00    +0.000 HD
ATOM      9  H   UNL     1      -7.312  11.994   7.616  0.00  0.00    +0.000 HD
BRANCH   7  10
ATOM     10  C   UNL     1      -7.270  12.383   5.493  0.00  0.00    +0.000 C 
ATOM     11  H   UNL     1      -7.704  13.312   5.107  0.00  0.00    +0.000 HD
ATOM     12  H   UNL     1      -6.217  12.586   5.720  0.00  0.00    +0.000 HD
BRANCH  10  13
ATOM     13  C   UNL     1      -7.354  11.312   4.418  0.00  0.00    +0.000 C 
ATOM     14  H   UNL     1      -7.956  10.463   4.757  0.00  0.00    +0.000 HD
ATOM     15  H   UNL     1      -6.353  10.943   4.172  0.00  0.00    +0.000 HD
ATOM     16  H   UNL     1      -7.804  11.709   3.502  0.00  0.00    +0.000 HD
ENDBRANCH  10  13
ENDBRANCH   7  10
ENDBRANCH   4   7
ENDBRANCH   1   4
BRANCH   1  17
ATOM     17  C   UNL     1      -8.225   8.757   8.382  0.00  0.00    +0.000 C 
ATOM     18  H   UNL     1      -7.297   8.717   7.800  0.00  0.00    +0.000 HD
ATOM     19  H   UNL     1      -8.800   7.856   8.137  0.00  0.00    +0.000 HD
BRANCH  17  20
ATOM     20  C   UNL     1      -7.890   8.765   9.874  0.00  0.00    +0.000 C 
ATOM     21  H   UNL     1      -7.721   7.738  10.222  0.00  0.00    +0.000 HD
ATOM     22  H   UNL     1      -6.952   9.311  10.038  0.00  0.00    +0.000 HD
BRANCH  20  23
ATOM     23  C   UNL     1      -9.007   9.408  10.691  0.00  0.00    +0.000 C 
ATOM     24  H   UNL     1      -9.654  10.003  10.036  0.00  0.00    +0.000 HD
ATOM     25  H   UNL     1      -8.579  10.069  11.452  0.00  0.00    +0.000 HD
BRANCH  23  27
ATOM     26  O   UNL     1      -9.507   7.230  11.614  0.00  0.00    +0.000 OA
ATOM     27  C   UNL     1      -9.875   8.383  11.401  0.00  0.00    +0.000 C 
BRANCH  27  28
ATOM     28  C   UNL     1     -11.236   8.858  11.840  0.00  0.00    +0.000 C 
ATOM     29  H   UNL     1     -11.126   9.630  12.604  0.00  0.00    +0.000 HD
ATOM     30  H   UNL     1     -11.781   9.252  10.979  0.00  0.00    +0.000 HD
ATOM     31  H   UNL     1     -11.800   8.021  12.263  0.00  0.00    +0.000 HD
ENDBRANCH  27  28
ENDBRANCH  23  27
ENDBRANCH  20  23
ENDBRANCH  17  20
ENDBRANCH   1  17
TORSDOF 9
ENDMDL
MODEL 7
REMARK VINA RESULT:    -4.284     18.440     20.949
REMARK INTER + INTRA:          -6.649
REMARK INTER:                  -6.232
REMARK INTRA:                  -0.417
REMARK UNBOUND:                -0.361
REMARK  Name = 12741
REMARK  9 active torsions:
REMARK  status: ('A' for Active; 'I' for Inactive)
REMARK    1  A    between atoms: C_2  and  C_3
REMARK    2  A    between atoms: C_2  and  C_4
REMARK    3  A    between atoms: C_3  and  C_5
REMARK    4  A    between atoms: C_4  and  C_6
REMARK    5  A    between atoms: C_5  and  C_7
REMARK    6  A    between atoms: C_6  and  C_8
REMARK    7  A    between atoms: C_7  and  C_9
REMARK    8  A    between atoms: C_8  and  C_10
REMARK    9  A    between atoms: C_10  and  C_11
REMARK                            x       y       z     vdW  Elec       q    Type
REMARK                         _______ _______ _______ _____ _____    ______ ____
ROOT
ATOM      1  C   UNL     1      -9.198  11.305   6.397  0.00  0.00    +0.000 C 
ATOM      2  H   UNL     1     -10.139  10.920   5.986  0.00  0.00    +0.000 HD
ATOM      3  H   UNL     1      -9.242  12.399   6.338  0.00  0.00    +0.000 HD
ENDROOT
BRANCH   1   4
ATOM      4  C   UNL     1      -8.024  10.793   5.561  0.00  0.00    +0.000 C 
ATOM      5  H   UNL     1      -8.235   9.776   5.212  0.00  0.00    +0.000 HD
ATOM      6  H   UNL     1      -7.124  10.740   6.187  0.00  0.00    +0.000 HD
BRANCH   4   7
ATOM      7  C   UNL     1      -7.757  11.705   4.362  0.00  0.00    +0.000 C 
ATOM      8  H   UNL     1      -6.831  11.393   3.862  0.00  0.00    +0.000 HD
ATOM      9  H   UNL     1      -8.569  11.599   3.633  0.00  0.00    +0.000 HD
BRANCH   7  10
ATOM     10  C   UNL     1      -7.642  13.168   4.790  0.00  0.00    +0.000 C 
ATOM     11  H   UNL     1      -7.896  13.823   3.949  0.00  0.00    +0.000 HD
ATOM     12  H   UNL     1      -8.359  13.378   5.593  0.00  0.00    +0.000 HD
BRANCH  10  13
ATOM     13  C   UNL     1      -6.239  13.499   5.272  0.00  0.00    +0.000 C 
ATOM     14  H   UNL     1      -6.251  13.830   6.315  0.00  0.00    +0.000 HD
ATOM     15  H   UNL     1      -5.810  14.303   4.666  0.00  0.00    +0.000 HD
ATOM     16  H   UNL     1      -5.581  12.627   5.195  0.00  0.00    +0.000 HD
ENDBRANCH  10  13
ENDBRANCH   7  10
ENDBRANCH   4   7
ENDBRANCH   1   4
BRANCH   1  17
ATOM     17  C   UNL     1      -9.065  10.879   7.861  0.00  0.00    +0.000 C 
ATOM     18  H   UNL     1      -9.888  11.308   8.446  0.00  0.00    +0.000 HD
ATOM     19  H   UNL     1      -8.132  11.280   8.275  0.00  0.00    +0.000 HD
BRANCH  17  20
ATOM     20  C   UNL     1      -9.080   9.357   8.002  0.00  0.00    +0.000 C 
ATOM     21  H   UNL     1     -10.085   9.020   8.284  0.00  0.00    +0.000 HD
ATOM     22  H   UNL     1      -8.854   8.895   7.032  0.00  0.00    +0.000 HD
BRANCH  20  23
ATOM     23  C   UNL     1      -8.067   8.885   9.042  0.00  0.00    +0.000 C 
ATOM     24  H   UNL     1      -7.102   9.375   8.873  0.00  0.00    +0.000 HD
ATOM     25  H   UNL     1      -7.927   7.802   8.962  0.00  0.00    +0.000 HD
BRANCH  23  27
ATOM     26  O   UNL     1      -8.059  10.138  11.110  0.00  0.00    +0.000 OA
ATOM     27  C   UNL     1      -8.505   9.192  10.464  0.00  0.00    +0.000 C 
BRANCH  27  28
ATOM     28  C   UNL     1      -9.533   8.263  11.056  0.00  0.00    +0.000 C 
ATOM     29  H   UNL     1      -9.545   7.325  10.497  0.00  0.00    +0.000 HD
ATOM     30  H   UNL     1      -9.295   8.075  12.106  0.00  0.00    +0.000 HD
ATOM     31  H   UNL     1     -10.524   8.723  10.996  0.00  0.00    +0.000 HD
ENDBRANCH  27  28
ENDBRANCH  23  27
ENDBRANCH  20  23
ENDBRANCH  17  20
ENDBRANCH   1  17
TORSDOF 9
ENDMDL
MODEL 8
REMARK VINA RESULT:    -4.168      9.193     11.049
REMARK INTER + INTRA:          -6.479
REMARK INTER:                  -6.117
REMARK INTRA:                  -0.361
REMARK UNBOUND:                -0.361
REMARK  Name = 12741
REMARK  9 active torsions:
REMARK  status: ('A' for Active; 'I' for Inactive)
REMARK    1  A    between atoms: C_2  and  C_3
REMARK    2  A    between atoms: C_2  and  C_4
REMARK    3  A    between atoms: C_3  and  C_5
REMARK    4  A    between atoms: C_4  and  C_6
REMARK    5  A    between atoms: C_5  and  C_7
REMARK    6  A    between atoms: C_6  and  C_8
REMARK    7  A    between atoms: C_7  and  C_9
REMARK    8  A    between atoms: C_8  and  C_10
REMARK    9  A    between atoms: C_10  and  C_11
REMARK                            x       y       z     vdW  Elec       q    Type
REMARK                         _______ _______ _______ _____ _____    ______ ____
ROOT
ATOM      1  C   UNL     1       2.281   0.198 -13.239  0.00  0.00    +0.000 C 
ATOM      2  H   UNL     1       3.260   0.159 -12.746  0.00  0.00    +0.000 HD
ATOM      3  H   UNL     1       2.015  -0.831 -13.513  0.00  0.00    +0.000 HD
ENDROOT
BRANCH   1   4
ATOM      4  C   UNL     1       2.375   1.056 -14.501  0.00  0.00    +0.000 C 
ATOM      5  H   UNL     1       2.663   2.079 -14.231  0.00  0.00    +0.000 HD
ATOM      6  H   UNL     1       1.389   1.114 -14.979  0.00  0.00    +0.000 HD
BRANCH   4   7
ATOM      7  C   UNL     1       3.388   0.480 -15.492  0.00  0.00    +0.000 C 
ATOM      8  H   UNL     1       2.958  -0.398 -15.990  0.00  0.00    +0.000 HD
ATOM      9  H   UNL     1       3.602   1.221 -16.270  0.00  0.00    +0.000 HD
BRANCH   7  10
ATOM     10  C   UNL     1       4.688   0.086 -14.790  0.00  0.00    +0.000 C 
ATOM     11  H   UNL     1       5.336   0.965 -14.686  0.00  0.00    +0.000 HD
ATOM     12  H   UNL     1       4.470  -0.279 -13.780  0.00  0.00    +0.000 HD
BRANCH  10  13
ATOM     13  C   UNL     1       5.434  -0.990 -15.563  0.00  0.00    +0.000 C 
ATOM     14  H   UNL     1       6.418  -0.631 -15.881  0.00  0.00    +0.000 HD
ATOM     15  H   UNL     1       4.871  -1.274 -16.457  0.00  0.00    +0.000 HD
ATOM     16  H   UNL     1       5.577  -1.886 -14.950  0.00  0.00    +0.000 HD
ENDBRANCH  10  13
ENDBRANCH   7  10
ENDBRANCH   4   7
ENDBRANCH   1   4
BRANCH   1  17
ATOM     17  C   UNL     1       1.237   0.751 -12.266  0.00  0.00    +0.000 C 
ATOM     18  H   UNL     1       1.250   1.847 -12.296  0.00  0.00    +0.000 HD
ATOM     19  H   UNL     1       1.497   0.453 -11.243  0.00  0.00    +0.000 HD
BRANCH  17  20
ATOM     20  C   UNL     1      -0.166   0.248 -12.610  0.00  0.00    +0.000 C 
ATOM     21  H   UNL     1      -0.909   0.782 -12.006  0.00  0.00    +0.000 HD
ATOM     22  H   UNL     1      -0.391   0.476 -13.659  0.00  0.00    +0.000 HD
BRANCH  20  23
ATOM     23  C   UNL     1      -0.291  -1.254 -12.372  0.00  0.00    +0.000 C 
ATOM     24  H   UNL     1       0.648  -1.649 -11.968  0.00  0.00    +0.000 HD
ATOM     25  H   UNL     1      -0.507  -1.764 -13.317  0.00  0.00    +0.000 HD
BRANCH  23  27
ATOM     26  O   UNL     1      -1.921  -2.712 -11.340  0.00  0.00    +0.000 OA
ATOM     27  C   UNL     1      -1.402  -1.599 -11.394  0.00  0.00    +0.000 C 
BRANCH  27  28
ATOM     28  C   UNL     1      -1.845  -0.489 -10.476  0.00  0.00    +0.000 C 
ATOM     29  H   UNL     1      -2.367   0.277 -11.053  0.00  0.00    +0.000 HD
ATOM     30  H   UNL     1      -2.503  -0.895  -9.704  0.00  0.00    +0.000 HD
ATOM     31  H   UNL     1      -0.972  -0.037  -9.996  0.00  0.00    +0.000 HD
ENDBRANCH  27  28
ENDBRANCH  23  27
ENDBRANCH  20  23
ENDBRANCH  17  20
ENDBRANCH   1  17
TORSDOF 9
ENDMDL
MODEL 9
REMARK VINA RESULT:    -4.160      8.755      9.237
REMARK INTER + INTRA:          -6.467
REMARK INTER:                  -6.322
REMARK INTRA:                  -0.145
REMARK UNBOUND:                -0.361
REMARK  Name = 12741
REMARK  9 active torsions:
REMARK  status: ('A' for Active; 'I' for Inactive)
REMARK    1  A    between atoms: C_2  and  C_3
REMARK    2  A    between atoms: C_2  and  C_4
REMARK    3  A    between atoms: C_3  and  C_5
REMARK    4  A    between atoms: C_4  and  C_6
REMARK    5  A    between atoms: C_5  and  C_7
REMARK    6  A    between atoms: C_6  and  C_8
REMARK    7  A    between atoms: C_7  and  C_9
REMARK    8  A    between atoms: C_8  and  C_10
REMARK    9  A    between atoms: C_10  and  C_11
REMARK                            x       y       z     vdW  Elec       q    Type
REMARK                         _______ _______ _______ _____ _____    ______ ____
ROOT
ATOM      1  C   UNL     1      -0.311  -0.128 -12.512  0.00  0.00    +0.000 C 
ATOM      2  H   UNL     1      -1.013   0.383 -13.182  0.00  0.00    +0.000 HD
ATOM      3  H   UNL     1      -0.053  -1.085 -12.983  0.00  0.00    +0.000 HD
ENDROOT
BRANCH   1   4
ATOM      4  C   UNL     1      -0.984  -0.386 -11.163  0.00  0.00    +0.000 C 
ATOM      5  H   UNL     1      -0.660   0.370 -10.439  0.00  0.00    +0.000 HD
ATOM      6  H   UNL     1      -0.668  -1.362 -10.776  0.00  0.00    +0.000 HD
BRANCH   4   7
ATOM      7  C   UNL     1      -2.509  -0.358 -11.288  0.00  0.00    +0.000 C 
ATOM      8  H   UNL     1      -2.824   0.593 -11.734  0.00  0.00    +0.000 HD
ATOM      9  H   UNL     1      -2.836  -1.156 -11.965  0.00  0.00    +0.000 HD
BRANCH   7  10
ATOM     10  C   UNL     1      -3.181  -0.536  -9.927  0.00  0.00    +0.000 C 
ATOM     11  H   UNL     1      -2.913  -1.511  -9.504  0.00  0.00    +0.000 HD
ATOM     12  H   UNL     1      -2.821   0.230  -9.231  0.00  0.00    +0.000 HD
BRANCH  10  13
ATOM     13  C   UNL     1      -4.694  -0.442 -10.036  0.00  0.00    +0.000 C 
ATOM     14  H   UNL     1      -5.180  -0.991  -9.223  0.00  0.00    +0.000 HD
ATOM     15  H   UNL     1      -5.033  -0.870 -10.985  0.00  0.00    +0.000 HD
ATOM     16  H   UNL     1      -5.028   0.600  -9.994  0.00  0.00    +0.000 HD
ENDBRANCH  10  13
ENDBRANCH   7  10
ENDBRANCH   4   7
ENDBRANCH   1   4
BRANCH   1  17
ATOM     17  C   UNL     1       0.954   0.717 -12.350  0.00  0.00    +0.000 C 
ATOM     18  H   UNL     1       1.259   0.725 -11.297  0.00  0.00    +0.000 HD
ATOM     19  H   UNL     1       0.738   1.755 -12.632  0.00  0.00    +0.000 HD
BRANCH  17  20
ATOM     20  C   UNL     1       2.098   0.177 -13.208  0.00  0.00    +0.000 C 
ATOM     21  H   UNL     1       2.996   0.050 -12.591  0.00  0.00    +0.000 HD
ATOM     22  H   UNL     1       1.835  -0.818 -13.588  0.00  0.00    +0.000 HD
BRANCH  20  23
ATOM     23  C   UNL     1       2.403   1.108 -14.378  0.00  0.00    +0.000 C 
ATOM     24  H   UNL     1       2.887   2.022 -14.012  0.00  0.00    +0.000 HD
ATOM     25  H   UNL     1       1.474   1.385 -14.886  0.00  0.00    +0.000 HD
BRANCH  23  27
ATOM     26  O   UNL     1       3.005   0.323 -16.584  0.00  0.00    +0.000 OA
ATOM     27  C   UNL     1       3.323   0.471 -15.406  0.00  0.00    +0.000 C 
BRANCH  27  28
ATOM     28  C   UNL     1       4.669   0.020 -14.902  0.00  0.00    +0.000 C 
ATOM     29  H   UNL     1       4.596  -0.241 -13.844  0.00  0.00    +0.000 HD
ATOM     30  H   UNL     1       5.006  -0.842 -15.482  0.00  0.00    +0.000 HD
ATOM     31  H   UNL     1       5.396   0.830 -15.016  0.00  0.00    +0.000 HD
ENDBRANCH  27  28
ENDBRANCH  23  27
ENDBRANCH  20  23
ENDBRANCH  17  20
ENDBRANCH   1  17
TORSDOF 9
ENDMDL
MODEL 10
REMARK VINA RESULT:    -4.040     17.811     19.979
REMARK INTER + INTRA:          -6.290
REMARK INTER:                  -5.434
REMARK INTRA:                  -0.857
REMARK UNBOUND:                -0.361
REMARK  Name = 12741
REMARK  9 active torsions:
REMARK  status: ('A' for Active; 'I' for Inactive)
REMARK    1  A    between atoms: C_2  and  C_3
REMARK    2  A    between atoms: C_2  and  C_4
REMARK    3  A    between atoms: C_3  and  C_5
REMARK    4  A    between atoms: C_4  and  C_6
REMARK    5  A    between atoms: C_5  and  C_7
REMARK    6  A    between atoms: C_6  and  C_8
REMARK    7  A    between atoms: C_7  and  C_9
REMARK    8  A    between atoms: C_8  and  C_10
REMARK    9  A    between atoms: C_10  and  C_11
REMARK                            x       y       z     vdW  Elec       q    Type
REMARK                         _______ _______ _______ _____ _____    ______ ____
ROOT
ATOM      1  C   UNL     1      -6.173  13.746   6.697  0.00  0.00    +0.000 C 
ATOM      2  H   UNL     1      -5.312  14.397   6.891  0.00  0.00    +0.000 HD
ATOM      3  H   UNL     1      -5.963  12.781   7.174  0.00  0.00    +0.000 HD
ENDROOT
BRANCH   1   4
ATOM      4  C   UNL     1      -6.337  13.547   5.190  0.00  0.00    +0.000 C 
ATOM      5  H   UNL     1      -5.958  12.559   4.905  0.00  0.00    +0.000 HD
ATOM      6  H   UNL     1      -5.735  14.291   4.654  0.00  0.00    +0.000 HD
BRANCH   4   7
ATOM      7  C   UNL     1      -7.802  13.678   4.768  0.00  0.00    +0.000 C 
ATOM      8  H   UNL     1      -8.381  14.126   5.584  0.00  0.00    +0.000 HD
ATOM      9  H   UNL     1      -7.877  14.355   3.909  0.00  0.00    +0.000 HD
BRANCH   7  10
ATOM     10  C   UNL     1      -8.397  12.319   4.400  0.00  0.00    +0.000 C 
ATOM     11  H   UNL     1      -9.194  12.058   5.106  0.00  0.00    +0.000 HD
ATOM     12  H   UNL     1      -8.849  12.368   3.403  0.00  0.00    +0.000 HD
BRANCH  10  13
ATOM     13  C   UNL     1      -7.342  11.225   4.418  0.00  0.00    +0.000 C 
ATOM     14  H   UNL     1      -6.399  11.583   3.991  0.00  0.00    +0.000 HD
ATOM     15  H   UNL     1      -7.676  10.366   3.830  0.00  0.00    +0.000 HD
ATOM     16  H   UNL     1      -7.148  10.883   5.441  0.00  0.00    +0.000 HD
ENDBRANCH  10  13
ENDBRANCH   7  10
ENDBRANCH   4   7
ENDBRANCH   1   4
BRANCH   1  17
ATOM     17  C   UNL     1      -7.431  14.358   7.317  0.00  0.00    +0.000 C 
ATOM     18  H   UNL     1      -8.194  14.497   6.542  0.00  0.00    +0.000 HD
ATOM     19  H   UNL     1      -7.194  15.351   7.719  0.00  0.00    +0.000 HD
BRANCH  17  20
ATOM     20  C   UNL     1      -7.991  13.471   8.430  0.00  0.00    +0.000 C 
ATOM     21  H   UNL     1      -7.571  13.779   9.396  0.00  0.00    +0.000 HD
ATOM     22  H   UNL     1      -9.077  13.611   8.500  0.00  0.00    +0.000 HD
BRANCH  20  23
ATOM     23  C   UNL     1      -7.678  11.999   8.178  0.00  0.00    +0.000 C 
ATOM     24  H   UNL     1      -7.027  11.614   8.972  0.00  0.00    +0.000 HD
ATOM     25  H   UNL     1      -7.162  11.886   7.219  0.00  0.00    +0.000 HD
BRANCH  23  27
ATOM     26  O   UNL     1     -10.001  11.494   8.618  0.00  0.00    +0.000 OA
ATOM     27  C   UNL     1      -8.927  11.136   8.138  0.00  0.00    +0.000 C 
BRANCH  27  28
ATOM     28  C   UNL     1      -8.785   9.794   7.469  0.00  0.00    +0.000 C 
ATOM     29  H   UNL     1      -7.803   9.723   6.995  0.00  0.00    +0.000 HD
ATOM     30  H   UNL     1      -8.904   9.001   8.211  0.00  0.00    +0.000 HD
ATOM     31  H   UNL     1      -9.556   9.680   6.702  0.00  0.00    +0.000 HD
ENDBRANCH  27  28
ENDBRANCH  23  27
ENDBRANCH  20  23
ENDBRANCH  17  20
ENDBRANCH   1  17
TORSDOF 9
ENDMDL
