MODEL 1
REMARK VINA RESULT:    -5.072      0.000      0.000
REMARK INTER + INTRA:          -9.231
REMARK INTER:                  -8.447
REMARK INTRA:                  -0.785
REMARK UNBOUND:                -1.194
REMARK  Name = 22556
REMARK  11 active torsions:
REMARK  status: ('A' for Active; 'I' for Inactive)
REMARK    1  A    between atoms: C_2  and  C_3
REMARK    2  A    between atoms: C_2  and  C_4
REMARK    3  A    between atoms: C_3  and  C_5
REMARK    4  A    between atoms: C_4  and  C_6
REMARK    5  A    between atoms: C_5  and  C_7
REMARK    6  A    between atoms: C_6  and  C_8
REMARK    7  A    between atoms: C_7  and  C_9
REMARK    8  A    between atoms: C_8  and  C_10
REMARK    9  A    between atoms: C_9  and  C_11
REMARK   10  A    between atoms: C_10  and  C_12
REMARK   11  A    between atoms: C_12  and  C_13
REMARK                            x       y       z     vdW  Elec       q    Type
REMARK                         _______ _______ _______ _____ _____    ______ ____
ROOT
ATOM      1  C   UNL     1       8.470   9.780   1.140  0.00  0.00    +0.000 C 
ATOM      2  H   UNL     1       8.457  10.862   1.323  0.00  0.00    +0.000 HD
ATOM      3  H   UNL     1       9.520   9.462   1.160  0.00  0.00    +0.000 HD
ENDROOT
BRANCH   1   4
ATOM      4  C   UNL     1       7.692   9.058   2.243  0.00  0.00    +0.000 C 
ATOM      5  H   UNL     1       7.272   9.790   2.943  0.00  0.00    +0.000 HD
ATOM      6  H   UNL     1       8.374   8.418   2.815  0.00  0.00    +0.000 HD
BRANCH   4   7
ATOM      7  C   UNL     1       6.560   8.209   1.659  0.00  0.00    +0.000 C 
ATOM      8  H   UNL     1       6.200   8.671   0.731  0.00  0.00    +0.000 HD
ATOM      9  H   UNL     1       6.957   7.223   1.387  0.00  0.00    +0.000 HD
BRANCH   7  10
ATOM     10  C   UNL     1       5.380   8.025   2.617  0.00  0.00    +0.000 C 
ATOM     11  H   UNL     1       4.446   8.016   2.040  0.00  0.00    +0.000 HD
ATOM     12  H   UNL     1       5.328   8.894   3.286  0.00  0.00    +0.000 HD
BRANCH  10  13
ATOM     13  C   UNL     1       5.472   6.751   3.457  0.00  0.00    +0.000 C 
ATOM     14  H   UNL     1       4.489   6.268   3.507  0.00  0.00    +0.000 HD
ATOM     15  H   UNL     1       6.159   6.041   2.982  0.00  0.00    +0.000 HD
BRANCH  13  16
ATOM     16  C   UNL     1       5.961   7.050   4.867  0.00  0.00    +0.000 C 
ATOM     17  H   UNL     1       5.247   7.685   5.402  0.00  0.00    +0.000 HD
ATOM     18  H   UNL     1       6.928   7.562   4.846  0.00  0.00    +0.000 HD
ATOM     19  H   UNL     1       6.079   6.121   5.432  0.00  0.00    +0.000 HD
ENDBRANCH  13  16
ENDBRANCH  10  13
ENDBRANCH   7  10
ENDBRANCH   4   7
ENDBRANCH   1   4
BRANCH   1  20
ATOM     20  C   UNL     1       7.876   9.487  -0.239  0.00  0.00    +0.000 C 
ATOM     21  H   UNL     1       6.966   8.885  -0.123  0.00  0.00    +0.000 HD
ATOM     22  H   UNL     1       8.585   8.880  -0.814  0.00  0.00    +0.000 HD
BRANCH  20  23
ATOM     23  C   UNL     1       7.542  10.750  -1.039  0.00  0.00    +0.000 C 
ATOM     24  H   UNL     1       7.988  10.670  -2.038  0.00  0.00    +0.000 HD
ATOM     25  H   UNL     1       8.008  11.616  -0.552  0.00  0.00    +0.000 HD
BRANCH  23  26
ATOM     26  C   UNL     1       6.036  10.997  -1.183  0.00  0.00    +0.000 C 
ATOM     27  H   UNL     1       5.530  10.056  -1.430  0.00  0.00    +0.000 HD
ATOM     28  H   UNL     1       5.861  11.677  -2.025  0.00  0.00    +0.000 HD
BRANCH  26  29
ATOM     29  C   UNL     1       5.422  11.586   0.086  0.00  0.00    +0.000 C 
ATOM     30  H   UNL     1       5.735  12.632   0.196  0.00  0.00    +0.000 HD
ATOM     31  H   UNL     1       5.775  11.027   0.960  0.00  0.00    +0.000 HD
BRANCH  29  33
ATOM     32  O   UNL     1       3.242  11.661   1.134  0.00  0.00    +0.000 OA
ATOM     33  C   UNL     1       3.902  11.562   0.101  0.00  0.00    +0.000 C 
BRANCH  33  34
ATOM     34  C   UNL     1       3.229  11.374  -1.233  0.00  0.00    +0.000 C 
ATOM     35  H   UNL     1       3.459  10.379  -1.623  0.00  0.00    +0.000 HD
ATOM     36  H   UNL     1       3.596  12.121  -1.942  0.00  0.00    +0.000 HD
ATOM     37  H   UNL     1       2.148  11.493  -1.118  0.00  0.00    +0.000 HD
ENDBRANCH  33  34
ENDBRANCH  29  33
ENDBRANCH  26  29
ENDBRANCH  23  26
ENDBRANCH  20  23
ENDBRANCH   1  20
TORSDOF 11
ENDMDL
MODEL 2
REMARK VINA RESULT:    -4.593      2.305      3.082
REMARK INTER + INTRA:          -8.473
REMARK INTER:                  -7.996
REMARK INTRA:                  -0.477
REMARK UNBOUND:                -1.194
REMARK  Name = 22556
REMARK  11 active torsions:
REMARK  status: ('A' for Active; 'I' for Inactive)
REMARK    1  A    between atoms: C_2  and  C_3
REMARK    2  A    between atoms: C_2  and  C_4
REMARK    3  A    between atoms: C_3  and  C_5
REMARK    4  A    between atoms: C_4  and  C_6
REMARK    5  A    between atoms: C_5  and  C_7
REMARK    6  A    between atoms: C_6  and  C_8
REMARK    7  A    between atoms: C_7  and  C_9
REMARK    8  A    between atoms: C_8  and  C_10
REMARK    9  A    between atoms: C_9  and  C_11
REMARK   10  A    between atoms: C_10  and  C_12
REMARK   11  A    between atoms: C_12  and  C_13
REMARK                            x       y       z     vdW  Elec       q    Type
REMARK                         _______ _______ _______ _____ _____    ______ ____
ROOT
ATOM      1  C   UNL     1       7.784   9.021   2.936  0.00  0.00    +0.000 C 
ATOM      2  H   UNL     1       7.778  10.079   3.225  0.00  0.00    +0.000 HD
ATOM      3  H   UNL     1       8.800   8.645   3.109  0.00  0.00    +0.000 HD
ENDROOT
BRANCH   1   4
ATOM      4  C   UNL     1       6.792   8.241   3.803  0.00  0.00    +0.000 C 
ATOM      5  H   UNL     1       6.701   7.214   3.430  0.00  0.00    +0.000 HD
ATOM      6  H   UNL     1       5.800   8.702   3.731  0.00  0.00    +0.000 HD
BRANCH   4   7
ATOM      7  C   UNL     1       7.239   8.211   5.267  0.00  0.00    +0.000 C 
ATOM      8  H   UNL     1       6.357   8.183   5.917  0.00  0.00    +0.000 HD
ATOM      9  H   UNL     1       7.798   7.284   5.451  0.00  0.00    +0.000 HD
BRANCH   7  10
ATOM     10  C   UNL     1       8.113   9.406   5.661  0.00  0.00    +0.000 C 
ATOM     11  H   UNL     1       7.984  10.206   4.921  0.00  0.00    +0.000 HD
ATOM     12  H   UNL     1       9.167   9.104   5.618  0.00  0.00    +0.000 HD
BRANCH  10  13
ATOM     13  C   UNL     1       7.805   9.950   7.056  0.00  0.00    +0.000 C 
ATOM     14  H   UNL     1       7.879  11.044   7.052  0.00  0.00    +0.000 HD
ATOM     15  H   UNL     1       6.776   9.694   7.337  0.00  0.00    +0.000 HD
BRANCH  13  16
ATOM     16  C   UNL     1       8.760   9.382   8.096  0.00  0.00    +0.000 C 
ATOM     17  H   UNL     1       8.426   8.396   8.436  0.00  0.00    +0.000 HD
ATOM     18  H   UNL     1       8.830  10.041   8.967  0.00  0.00    +0.000 HD
ATOM     19  H   UNL     1       9.762   9.273   7.670  0.00  0.00    +0.000 HD
ENDBRANCH  13  16
ENDBRANCH  10  13
ENDBRANCH   7  10
ENDBRANCH   4   7
ENDBRANCH   1   4
BRANCH   1  20
ATOM     20  C   UNL     1       7.441   8.894   1.450  0.00  0.00    +0.000 C 
ATOM     21  H   UNL     1       8.215   8.302   0.947  0.00  0.00    +0.000 HD
ATOM     22  H   UNL     1       7.456   9.890   0.992  0.00  0.00    +0.000 HD
BRANCH  20  23
ATOM     23  C   UNL     1       6.074   8.251   1.194  0.00  0.00    +0.000 C 
ATOM     24  H   UNL     1       5.523   8.191   2.141  0.00  0.00    +0.000 HD
ATOM     25  H   UNL     1       6.222   7.220   0.848  0.00  0.00    +0.000 HD
BRANCH  23  26
ATOM     26  C   UNL     1       5.226   9.013   0.170  0.00  0.00    +0.000 C 
ATOM     27  H   UNL     1       4.994   8.357  -0.677  0.00  0.00    +0.000 HD
ATOM     28  H   UNL     1       5.812   9.848  -0.233  0.00  0.00    +0.000 HD
BRANCH  26  29
ATOM     29  C   UNL     1       3.927   9.544   0.774  0.00  0.00    +0.000 C 
ATOM     30  H   UNL     1       4.024   9.603   1.864  0.00  0.00    +0.000 HD
ATOM     31  H   UNL     1       3.105   8.859   0.538  0.00  0.00    +0.000 HD
BRANCH  29  33
ATOM     32  O   UNL     1       3.222  11.844   1.030  0.00  0.00    +0.000 OA
ATOM     33  C   UNL     1       3.538  10.926   0.275  0.00  0.00    +0.000 C 
BRANCH  33  34
ATOM     34  C   UNL     1       3.523  11.113  -1.219  0.00  0.00    +0.000 C 
ATOM     35  H   UNL     1       2.963  10.298  -1.685  0.00  0.00    +0.000 HD
ATOM     36  H   UNL     1       4.546  11.099  -1.604  0.00  0.00    +0.000 HD
ATOM     37  H   UNL     1       3.064  12.075  -1.463  0.00  0.00    +0.000 HD
ENDBRANCH  33  34
ENDBRANCH  29  33
ENDBRANCH  26  29
ENDBRANCH  23  26
ENDBRANCH  20  23
ENDBRANCH   1  20
TORSDOF 11
ENDMDL
MODEL 3
REMARK VINA RESULT:    -4.337     13.824     15.408
REMARK INTER + INTRA:          -8.067
REMARK INTER:                  -7.061
REMARK INTRA:                  -1.006
REMARK UNBOUND:                -1.194
REMARK  Name = 22556
REMARK  11 active torsions:
REMARK  status: ('A' for Active; 'I' for Inactive)
REMARK    1  A    between atoms: C_2  and  C_3
REMARK    2  A    between atoms: C_2  and  C_4
REMARK    3  A    between atoms: C_3  and  C_5
REMARK    4  A    between atoms: C_4  and  C_6
REMARK    5  A    between atoms: C_5  and  C_7
REMARK    6  A    between atoms: C_6  and  C_8
REMARK    7  A    between atoms: C_7  and  C_9
REMARK    8  A    between atoms: C_8  and  C_10
REMARK    9  A    between atoms: C_9  and  C_11
REMARK   10  A    between atoms: C_10  and  C_12
REMARK   11  A    between atoms: C_12  and  C_13
REMARK                            x       y       z     vdW  Elec       q    Type
REMARK                         _______ _______ _______ _____ _____    ______ ____
ROOT
ATOM      1  C   UNL     1      -2.240  10.074 -11.527  0.00  0.00    +0.000 C 
ATOM      2  H   UNL     1      -2.643   9.355 -12.249  0.00  0.00    +0.000 HD
ATOM      3  H   UNL     1      -2.315  11.069 -11.984  0.00  0.00    +0.000 HD
ENDROOT
BRANCH   1   4
ATOM      4  C   UNL     1      -3.067  10.036 -10.239  0.00  0.00    +0.000 C 
ATOM      5  H   UNL     1      -4.055   9.608 -10.444  0.00  0.00    +0.000 HD
ATOM      6  H   UNL     1      -3.225  11.057  -9.874  0.00  0.00    +0.000 HD
BRANCH   4   7
ATOM      7  C   UNL     1      -2.370   9.207  -9.158  0.00  0.00    +0.000 C 
ATOM      8  H   UNL     1      -1.341   8.990  -9.470  0.00  0.00    +0.000 HD
ATOM      9  H   UNL     1      -2.301   9.803  -8.238  0.00  0.00    +0.000 HD
BRANCH   7  10
ATOM     10  C   UNL     1      -3.085   7.890  -8.845  0.00  0.00    +0.000 C 
ATOM     11  H   UNL     1      -4.137   8.098  -8.612  0.00  0.00    +0.000 HD
ATOM     12  H   UNL     1      -2.643   7.452  -7.941  0.00  0.00    +0.000 HD
BRANCH  10  13
ATOM     13  C   UNL     1      -3.008   6.871  -9.982  0.00  0.00    +0.000 C 
ATOM     14  H   UNL     1      -2.223   7.163 -10.689  0.00  0.00    +0.000 HD
ATOM     15  H   UNL     1      -2.736   5.887  -9.583  0.00  0.00    +0.000 HD
BRANCH  13  16
ATOM     16  C   UNL     1      -4.335   6.759 -10.718  0.00  0.00    +0.000 C 
ATOM     17  H   UNL     1      -4.181   6.458 -11.759  0.00  0.00    +0.000 HD
ATOM     18  H   UNL     1      -4.869   7.715 -10.712  0.00  0.00    +0.000 HD
ATOM     19  H   UNL     1      -4.973   6.011 -10.238  0.00  0.00    +0.000 HD
ENDBRANCH  13  16
ENDBRANCH  10  13
ENDBRANCH   7  10
ENDBRANCH   4   7
ENDBRANCH   1   4
BRANCH   1  20
ATOM     20  C   UNL     1      -0.769   9.752 -11.250  0.00  0.00    +0.000 C 
ATOM     21  H   UNL     1      -0.660   9.414 -10.213  0.00  0.00    +0.000 HD
ATOM     22  H   UNL     1      -0.176  10.670 -11.348  0.00  0.00    +0.000 HD
BRANCH  20  23
ATOM     23  C   UNL     1      -0.193   8.687 -12.188  0.00  0.00    +0.000 C 
ATOM     24  H   UNL     1      -0.398   7.693 -11.772  0.00  0.00    +0.000 HD
ATOM     25  H   UNL     1       0.899   8.795 -12.226  0.00  0.00    +0.000 HD
BRANCH  23  26
ATOM     26  C   UNL     1      -0.759   8.759 -13.610  0.00  0.00    +0.000 C 
ATOM     27  H   UNL     1      -1.563   9.504 -13.649  0.00  0.00    +0.000 HD
ATOM     28  H   UNL     1      -1.214   7.795 -13.867  0.00  0.00    +0.000 HD
BRANCH  26  29
ATOM     29  C   UNL     1       0.311   9.112 -14.643  0.00  0.00    +0.000 C 
ATOM     30  H   UNL     1       0.034   8.694 -15.618  0.00  0.00    +0.000 HD
ATOM     31  H   UNL     1       1.271   8.677 -14.341  0.00  0.00    +0.000 HD
BRANCH  29  33
ATOM     32  O   UNL     1       1.615  11.107 -15.056  0.00  0.00    +0.000 OA
ATOM     33  C   UNL     1       0.515  10.606 -14.830  0.00  0.00    +0.000 C 
BRANCH  33  34
ATOM     34  C   UNL     1      -0.713  11.466 -14.688  0.00  0.00    +0.000 C 
ATOM     35  H   UNL     1      -1.442  11.196 -15.457  0.00  0.00    +0.000 HD
ATOM     36  H   UNL     1      -0.445  12.519 -14.815  0.00  0.00    +0.000 HD
ATOM     37  H   UNL     1      -1.145  11.327 -13.693  0.00  0.00    +0.000 HD
ENDBRANCH  33  34
ENDBRANCH  29  33
ENDBRANCH  26  29
ENDBRANCH  23  26
ENDBRANCH  20  23
ENDBRANCH   1  20
TORSDOF 11
ENDMDL
MODEL 4
REMARK VINA RESULT:    -4.309     28.964     29.895
REMARK INTER + INTRA:          -8.023
REMARK INTER:                  -7.121
REMARK INTRA:                  -0.902
REMARK UNBOUND:                -1.194
REMARK  Name = 22556
REMARK  11 active torsions:
REMARK  status: ('A' for Active; 'I' for Inactive)
REMARK    1  A    between atoms: C_2  and  C_3
REMARK    2  A    between atoms: C_2  and  C_4
REMARK    3  A    between atoms: C_3  and  C_5
REMARK    4  A    between atoms: C_4  and  C_6
REMARK    5  A    between atoms: C_5  and  C_7
REMARK    6  A    between atoms: C_6  and  C_8
REMARK    7  A    between atoms: C_7  and  C_9
REMARK    8  A    between atoms: C_8  and  C_10
REMARK    9  A    between atoms: C_9  and  C_11
REMARK   10  A    between atoms: C_10  and  C_12
REMARK   11  A    between atoms: C_12  and  C_13
REMARK                            x       y       z     vdW  Elec       q    Type
REMARK                         _______ _______ _______ _____ _____    ______ ____
ROOT
ATOM      1  C   UNL     1     -21.841  -1.882   4.308  0.00  0.00    +0.000 C 
ATOM      2  H   UNL     1     -22.266  -2.233   5.256  0.00  0.00    +0.000 HD
ATOM      3  H   UNL     1     -22.660  -1.427   3.736  0.00  0.00    +0.000 HD
ENDROOT
BRANCH   1   4
ATOM      4  C   UNL     1     -20.759  -0.834   4.580  0.00  0.00    +0.000 C 
ATOM      5  H   UNL     1     -20.941   0.057   3.968  0.00  0.00    +0.000 HD
ATOM      6  H   UNL     1     -19.780  -1.233   4.290  0.00  0.00    +0.000 HD
BRANCH   4   7
ATOM      7  C   UNL     1     -20.733  -0.436   6.058  0.00  0.00    +0.000 C 
ATOM      8  H   UNL     1     -20.003   0.370   6.206  0.00  0.00    +0.000 HD
ATOM      9  H   UNL     1     -21.714  -0.029   6.337  0.00  0.00    +0.000 HD
BRANCH   7  10
ATOM     10  C   UNL     1     -20.391  -1.597   6.996  0.00  0.00    +0.000 C 
ATOM     11  H   UNL     1     -19.503  -1.335   7.585  0.00  0.00    +0.000 HD
ATOM     12  H   UNL     1     -20.121  -2.473   6.391  0.00  0.00    +0.000 HD
BRANCH  10  13
ATOM     13  C   UNL     1     -21.534  -1.974   7.939  0.00  0.00    +0.000 C 
ATOM     14  H   UNL     1     -22.272  -2.582   7.402  0.00  0.00    +0.000 HD
ATOM     15  H   UNL     1     -21.149  -2.584   8.765  0.00  0.00    +0.000 HD
BRANCH  13  16
ATOM     16  C   UNL     1     -22.214  -0.738   8.508  0.00  0.00    +0.000 C 
ATOM     17  H   UNL     1     -22.561  -0.918   9.530  0.00  0.00    +0.000 HD
ATOM     18  H   UNL     1     -23.076  -0.448   7.898  0.00  0.00    +0.000 HD
ATOM     19  H   UNL     1     -21.515   0.103   8.529  0.00  0.00    +0.000 HD
ENDBRANCH  13  16
ENDBRANCH  10  13
ENDBRANCH   7  10
ENDBRANCH   4   7
ENDBRANCH   1   4
BRANCH   1  20
ATOM     20  C   UNL     1     -21.277  -3.071   3.528  0.00  0.00    +0.000 C 
ATOM     21  H   UNL     1     -20.299  -2.802   3.111  0.00  0.00    +0.000 HD
ATOM     22  H   UNL     1     -21.935  -3.288   2.678  0.00  0.00    +0.000 HD
BRANCH  20  23
ATOM     23  C   UNL     1     -21.127  -4.339   4.375  0.00  0.00    +0.000 C 
ATOM     24  H   UNL     1     -21.384  -5.212   3.763  0.00  0.00    +0.000 HD
ATOM     25  H   UNL     1     -21.851  -4.306   5.200  0.00  0.00    +0.000 HD
BRANCH  23  26
ATOM     26  C   UNL     1     -19.717  -4.526   4.945  0.00  0.00    +0.000 C 
ATOM     27  H   UNL     1     -19.771  -4.622   6.036  0.00  0.00    +0.000 HD
ATOM     28  H   UNL     1     -19.123  -3.627   4.739  0.00  0.00    +0.000 HD
BRANCH  26  29
ATOM     29  C   UNL     1     -19.013  -5.750   4.360  0.00  0.00    +0.000 C 
ATOM     30  H   UNL     1     -19.655  -6.631   4.471  0.00  0.00    +0.000 HD
ATOM     31  H   UNL     1     -18.080  -5.932   4.905  0.00  0.00    +0.000 HD
BRANCH  29  33
ATOM     32  O   UNL     1     -17.774  -4.888   2.469  0.00  0.00    +0.000 OA
ATOM     33  C   UNL     1     -18.674  -5.617   2.885  0.00  0.00    +0.000 C 
BRANCH  33  34
ATOM     34  C   UNL     1     -19.531  -6.408   1.933  0.00  0.00    +0.000 C 
ATOM     35  H   UNL     1     -20.253  -7.004   2.498  0.00  0.00    +0.000 HD
ATOM     36  H   UNL     1     -18.904  -7.084   1.345  0.00  0.00    +0.000 HD
ATOM     37  H   UNL     1     -20.052  -5.726   1.255  0.00  0.00    +0.000 HD
ENDBRANCH  33  34
ENDBRANCH  29  33
ENDBRANCH  26  29
ENDBRANCH  23  26
ENDBRANCH  20  23
ENDBRANCH   1  20
TORSDOF 11
ENDMDL
MODEL 5
REMARK VINA RESULT:    -4.090     14.120     16.357
REMARK INTER + INTRA:          -7.675
REMARK INTER:                  -6.748
REMARK INTRA:                  -0.927
REMARK UNBOUND:                -1.194
REMARK  Name = 22556
REMARK  11 active torsions:
REMARK  status: ('A' for Active; 'I' for Inactive)
REMARK    1  A    between atoms: C_2  and  C_3
REMARK    2  A    between atoms: C_2  and  C_4
REMARK    3  A    between atoms: C_3  and  C_5
REMARK    4  A    between atoms: C_4  and  C_6
REMARK    5  A    between atoms: C_5  and  C_7
REMARK    6  A    between atoms: C_6  and  C_8
REMARK    7  A    between atoms: C_7  and  C_9
REMARK    8  A    between atoms: C_8  and  C_10
REMARK    9  A    between atoms: C_9  and  C_11
REMARK   10  A    between atoms: C_10  and  C_12
REMARK   11  A    between atoms: C_12  and  C_13
REMARK                            x       y       z     vdW  Elec       q    Type
REMARK                         _______ _______ _______ _____ _____    ______ ____
ROOT
ATOM      1  C   UNL     1      -8.758  11.780   7.393  0.00  0.00    +0.000 C 
ATOM      2  H   UNL     1      -9.278  12.678   7.037  0.00  0.00    +0.000 HD
ATOM      3  H   UNL     1      -9.406  11.306   8.141  0.00  0.00    +0.000 HD
ENDROOT
BRANCH   1   4
ATOM      4  C   UNL     1      -8.528  10.817   6.225  0.00  0.00    +0.000 C 
ATOM      5  H   UNL     1      -9.491  10.506   5.804  0.00  0.00    +0.000 HD
ATOM      6  H   UNL     1      -8.026   9.913   6.588  0.00  0.00    +0.000 HD
BRANCH   4   7
ATOM      7  C   UNL     1      -7.682  11.468   5.128  0.00  0.00    +0.000 C 
ATOM      8  H   UNL     1      -6.716  11.776   5.547  0.00  0.00    +0.000 HD
ATOM      9  H   UNL     1      -7.467  10.722   4.352  0.00  0.00    +0.000 HD
BRANCH   7  10
ATOM     10  C   UNL     1      -8.355  12.682   4.481  0.00  0.00    +0.000 C 
ATOM     11  H   UNL     1      -9.368  12.791   4.887  0.00  0.00    +0.000 HD
ATOM     12  H   UNL     1      -8.465  12.494   3.405  0.00  0.00    +0.000 HD
BRANCH  10  13
ATOM     13  C   UNL     1      -7.582  13.985   4.683  0.00  0.00    +0.000 C 
ATOM     14  H   UNL     1      -7.533  14.538   3.737  0.00  0.00    +0.000 HD
ATOM     15  H   UNL     1      -8.107  14.622   5.405  0.00  0.00    +0.000 HD
BRANCH  13  16
ATOM     16  C   UNL     1      -6.171  13.721   5.188  0.00  0.00    +0.000 C 
ATOM     17  H   UNL     1      -6.033  12.662   5.429  0.00  0.00    +0.000 HD
ATOM     18  H   UNL     1      -5.959  14.309   6.087  0.00  0.00    +0.000 HD
ATOM     19  H   UNL     1      -5.437  13.994   4.423  0.00  0.00    +0.000 HD
ENDBRANCH  13  16
ENDBRANCH  10  13
ENDBRANCH   7  10
ENDBRANCH   4   7
ENDBRANCH   1   4
BRANCH   1  20
ATOM     20  C   UNL     1      -7.435  12.181   8.049  0.00  0.00    +0.000 C 
ATOM     21  H   UNL     1      -7.184  13.210   7.763  0.00  0.00    +0.000 HD
ATOM     22  H   UNL     1      -6.633  11.541   7.661  0.00  0.00    +0.000 HD
BRANCH  20  23
ATOM     23  C   UNL     1      -7.457  12.077   9.577  0.00  0.00    +0.000 C 
ATOM     24  H   UNL     1      -8.480  12.248   9.934  0.00  0.00    +0.000 HD
ATOM     25  H   UNL     1      -6.837  12.878  10.000  0.00  0.00    +0.000 HD
BRANCH  23  26
ATOM     26  C   UNL     1      -6.964  10.724  10.101  0.00  0.00    +0.000 C 
ATOM     27  H   UNL     1      -6.108  10.878  10.769  0.00  0.00    +0.000 HD
ATOM     28  H   UNL     1      -6.600  10.122   9.260  0.00  0.00    +0.000 HD
BRANCH  26  29
ATOM     29  C   UNL     1      -8.057   9.957  10.843  0.00  0.00    +0.000 C 
ATOM     30  H   UNL     1      -9.007  10.499  10.763  0.00  0.00    +0.000 HD
ATOM     31  H   UNL     1      -7.795   9.876  11.904  0.00  0.00    +0.000 HD
BRANCH  29  33
ATOM     32  O   UNL     1      -8.760   7.647  11.001  0.00  0.00    +0.000 OA
ATOM     33  C   UNL     1      -8.289   8.551  10.313  0.00  0.00    +0.000 C 
BRANCH  33  34
ATOM     34  C   UNL     1      -7.874   8.303   8.887  0.00  0.00    +0.000 C 
ATOM     35  H   UNL     1      -6.857   7.901   8.866  0.00  0.00    +0.000 HD
ATOM     36  H   UNL     1      -7.889   9.243   8.328  0.00  0.00    +0.000 HD
ATOM     37  H   UNL     1      -8.568   7.600   8.420  0.00  0.00    +0.000 HD
ENDBRANCH  33  34
ENDBRANCH  29  33
ENDBRANCH  26  29
ENDBRANCH  23  26
ENDBRANCH  20  23
ENDBRANCH   1  20
TORSDOF 11
ENDMDL
MODEL 6
REMARK VINA RESULT:    -4.086     14.291     15.847
REMARK INTER + INTRA:          -7.668
REMARK INTER:                  -7.148
REMARK INTRA:                  -0.520
REMARK UNBOUND:                -1.194
REMARK  Name = 22556
REMARK  11 active torsions:
REMARK  status: ('A' for Active; 'I' for Inactive)
REMARK    1  A    between atoms: C_2  and  C_3
REMARK    2  A    between atoms: C_2  and  C_4
REMARK    3  A    between atoms: C_3  and  C_5
REMARK    4  A    between atoms: C_4  and  C_6
REMARK    5  A    between atoms: C_5  and  C_7
REMARK    6  A    between atoms: C_6  and  C_8
REMARK    7  A    between atoms: C_7  and  C_9
REMARK    8  A    between atoms: C_8  and  C_10
REMARK    9  A    between atoms: C_9  and  C_11
REMARK   10  A    between atoms: C_10  and  C_12
REMARK   11  A    between atoms: C_12  and  C_13
REMARK                            x       y       z     vdW  Elec       q    Type
REMARK                         _______ _______ _______ _____ _____    ______ ____
ROOT
ATOM      1  C   UNL     1      -9.159  10.376   7.792  0.00  0.00    +0.000 C 
ATOM      2  H   UNL     1     -10.155  10.317   8.247  0.00  0.00    +0.000 HD
ATOM      3  H   UNL     1      -8.550  11.028   8.432  0.00  0.00    +0.000 HD
ENDROOT
BRANCH   1   4
ATOM      4  C   UNL     1      -8.532   8.981   7.734  0.00  0.00    +0.000 C 
ATOM      5  H   UNL     1      -7.723   8.968   6.994  0.00  0.00    +0.000 HD
ATOM      6  H   UNL     1      -9.284   8.254   7.405  0.00  0.00    +0.000 HD
BRANCH   4   7
ATOM      7  C   UNL     1      -7.977   8.565   9.098  0.00  0.00    +0.000 C 
ATOM      8  H   UNL     1      -7.916   7.470   9.149  0.00  0.00    +0.000 HD
ATOM      9  H   UNL     1      -6.952   8.943   9.198  0.00  0.00    +0.000 HD
BRANCH   7  10
ATOM     10  C   UNL     1      -8.813   9.073  10.276  0.00  0.00    +0.000 C 
ATOM     11  H   UNL     1      -9.637   9.690   9.893  0.00  0.00    +0.000 HD
ATOM     12  H   UNL     1      -8.189   9.730  10.896  0.00  0.00    +0.000 HD
BRANCH  10  13
ATOM     13  C   UNL     1      -9.380   7.953  11.148  0.00  0.00    +0.000 C 
ATOM     14  H   UNL     1      -9.530   7.051  10.543  0.00  0.00    +0.000 HD
ATOM     15  H   UNL     1      -8.663   7.698  11.939  0.00  0.00    +0.000 HD
BRANCH  13  16
ATOM     16  C   UNL     1     -10.700   8.359  11.786  0.00  0.00    +0.000 C 
ATOM     17  H   UNL     1     -11.483   8.468  11.029  0.00  0.00    +0.000 HD
ATOM     18  H   UNL     1     -10.602   9.311  12.319  0.00  0.00    +0.000 HD
ATOM     19  H   UNL     1     -11.024   7.599  12.504  0.00  0.00    +0.000 HD
ENDBRANCH  13  16
ENDBRANCH  10  13
ENDBRANCH   7  10
ENDBRANCH   4   7
ENDBRANCH   1   4
BRANCH   1  20
ATOM     20  C   UNL     1      -9.268  10.994   6.397  0.00  0.00    +0.000 C 
ATOM     21  H   UNL     1      -9.463  12.070   6.489  0.00  0.00    +0.000 HD
ATOM     22  H   UNL     1     -10.131  10.559   5.878  0.00  0.00    +0.000 HD
BRANCH  20  23
ATOM     23  C   UNL     1      -8.017  10.784   5.539  0.00  0.00    +0.000 C 
ATOM     24  H   UNL     1      -8.115   9.842   4.985  0.00  0.00    +0.000 HD
ATOM     25  H   UNL     1      -7.145  10.675   6.197  0.00  0.00    +0.000 HD
BRANCH  23  26
ATOM     26  C   UNL     1      -7.763  11.924   4.546  0.00  0.00    +0.000 C 
ATOM     27  H   UNL     1      -8.696  12.471   4.367  0.00  0.00    +0.000 HD
ATOM     28  H   UNL     1      -7.459  11.501   3.581  0.00  0.00    +0.000 HD
BRANCH  26  29
ATOM     29  C   UNL     1      -6.691  12.894   5.039  0.00  0.00    +0.000 C 
ATOM     30  H   UNL     1      -5.796  12.804   4.413  0.00  0.00    +0.000 HD
ATOM     31  H   UNL     1      -6.416  12.646   6.071  0.00  0.00    +0.000 HD
BRANCH  29  33
ATOM     32  O   UNL     1      -6.497  15.244   5.580  0.00  0.00    +0.000 OA
ATOM     33  C   UNL     1      -7.122  14.352   5.010  0.00  0.00    +0.000 C 
BRANCH  33  34
ATOM     34  C   UNL     1      -8.396  14.652   4.265  0.00  0.00    +0.000 C 
ATOM     35  H   UNL     1      -9.229  14.710   4.971  0.00  0.00    +0.000 HD
ATOM     36  H   UNL     1      -8.602  13.853   3.548  0.00  0.00    +0.000 HD
ATOM     37  H   UNL     1      -8.291  15.597   3.726  0.00  0.00    +0.000 HD
ENDBRANCH  33  34
ENDBRANCH  29  33
ENDBRANCH  26  29
ENDBRANCH  23  26
ENDBRANCH  20  23
ENDBRANCH   1  20
TORSDOF 11
ENDMDL
MODEL 7
REMARK VINA RESULT:    -4.063      2.256      3.433
REMARK INTER + INTRA:          -7.632
REMARK INTER:                  -7.100
REMARK INTRA:                  -0.532
REMARK UNBOUND:                -1.194
REMARK  Name = 22556
REMARK  11 active torsions:
REMARK  status: ('A' for Active; 'I' for Inactive)
REMARK    1  A    between atoms: C_2  and  C_3
REMARK    2  A    between atoms: C_2  and  C_4
REMARK    3  A    between atoms: C_3  and  C_5
REMARK    4  A    between atoms: C_4  and  C_6
REMARK    5  A    between atoms: C_5  and  C_7
REMARK    6  A    between atoms: C_6  and  C_8
REMARK    7  A    between atoms: C_7  and  C_9
REMARK    8  A    between atoms: C_8  and  C_10
REMARK    9  A    between atoms: C_9  and  C_11
REMARK   10  A    between atoms: C_10  and  C_12
REMARK   11  A    between atoms: C_12  and  C_13
REMARK                            x       y       z     vdW  Elec       q    Type
REMARK                         _______ _______ _______ _____ _____    ______ ____
ROOT
ATOM      1  C   UNL     1       7.782   9.540   0.066  0.00  0.00    +0.000 C 
ATOM      2  H   UNL     1       8.059   8.611  -0.446  0.00  0.00    +0.000 HD
ATOM      3  H   UNL     1       7.016   9.284   0.809  0.00  0.00    +0.000 HD
ENDROOT
BRANCH   1   4
ATOM      4  C   UNL     1       9.006  10.129   0.771  0.00  0.00    +0.000 C 
ATOM      5  H   UNL     1       9.171  11.158   0.432  0.00  0.00    +0.000 HD
ATOM      6  H   UNL     1       9.899   9.552   0.502  0.00  0.00    +0.000 HD
BRANCH   4   7
ATOM      7  C   UNL     1       8.828  10.119   2.292  0.00  0.00    +0.000 C 
ATOM      8  H   UNL     1       7.862  10.571   2.549  0.00  0.00    +0.000 HD
ATOM      9  H   UNL     1       8.793   9.079   2.641  0.00  0.00    +0.000 HD
BRANCH   7  10
ATOM     10  C   UNL     1       9.941  10.859   3.040  0.00  0.00    +0.000 C 
ATOM     11  H   UNL     1       9.990  11.894   2.679  0.00  0.00    +0.000 HD
ATOM     12  H   UNL     1      10.904  10.393   2.794  0.00  0.00    +0.000 HD
BRANCH  10  13
ATOM     13  C   UNL     1       9.758  10.857   4.558  0.00  0.00    +0.000 C 
ATOM     14  H   UNL     1       8.926  11.517   4.832  0.00  0.00    +0.000 HD
ATOM     15  H   UNL     1       9.499   9.848   4.900  0.00  0.00    +0.000 HD
BRANCH  13  16
ATOM     16  C   UNL     1      11.023  11.315   5.269  0.00  0.00    +0.000 C 
ATOM     17  H   UNL     1      11.258  12.354   5.019  0.00  0.00    +0.000 HD
ATOM     18  H   UNL     1      11.878  10.691   4.990  0.00  0.00    +0.000 HD
ATOM     19  H   UNL     1      10.893  11.247   6.354  0.00  0.00    +0.000 HD
ENDBRANCH  13  16
ENDBRANCH  10  13
ENDBRANCH   7  10
ENDBRANCH   4   7
ENDBRANCH   1   4
BRANCH   1  20
ATOM     20  C   UNL     1       7.197  10.528  -0.946  0.00  0.00    +0.000 C 
ATOM     21  H   UNL     1       6.670   9.973  -1.732  0.00  0.00    +0.000 HD
ATOM     22  H   UNL     1       8.017  11.068  -1.435  0.00  0.00    +0.000 HD
BRANCH  20  23
ATOM     23  C   UNL     1       6.237  11.544  -0.320  0.00  0.00    +0.000 C 
ATOM     24  H   UNL     1       6.491  12.548  -0.681  0.00  0.00    +0.000 HD
ATOM     25  H   UNL     1       6.383  11.552   0.768  0.00  0.00    +0.000 HD
BRANCH  23  26
ATOM     26  C   UNL     1       4.764  11.259  -0.631  0.00  0.00    +0.000 C 
ATOM     27  H   UNL     1       4.666  10.254  -1.061  0.00  0.00    +0.000 HD
ATOM     28  H   UNL     1       4.414  11.961  -1.397  0.00  0.00    +0.000 HD
BRANCH  26  29
ATOM     29  C   UNL     1       3.877  11.370   0.608  0.00  0.00    +0.000 C 
ATOM     30  H   UNL     1       2.913  11.814   0.332  0.00  0.00    +0.000 HD
ATOM     31  H   UNL     1       4.358  12.021   1.347  0.00  0.00    +0.000 HD
BRANCH  29  33
ATOM     32  O   UNL     1       3.174   9.945   2.433  0.00  0.00    +0.000 OA
ATOM     33  C   UNL     1       3.589  10.037   1.279  0.00  0.00    +0.000 C 
BRANCH  33  34
ATOM     34  C   UNL     1       3.875   8.806   0.459  0.00  0.00    +0.000 C 
ATOM     35  H   UNL     1       4.950   8.730   0.274  0.00  0.00    +0.000 HD
ATOM     36  H   UNL     1       3.359   8.874  -0.502  0.00  0.00    +0.000 HD
ATOM     37  H   UNL     1       3.520   7.920   0.993  0.00  0.00    +0.000 HD
ENDBRANCH  33  34
ENDBRANCH  29  33
ENDBRANCH  26  29
ENDBRANCH  23  26
ENDBRANCH  20  23
ENDBRANCH   1  20
TORSDOF 11
ENDMDL
MODEL 8
REMARK VINA RESULT:    -4.040     14.079     15.355
REMARK INTER + INTRA:          -7.596
REMARK INTER:                  -6.795
REMARK INTRA:                  -0.800
REMARK UNBOUND:                -1.194
REMARK  Name = 22556
REMARK  11 active torsions:
REMARK  status: ('A' for Active; 'I' for Inactive)
REMARK    1  A    between atoms: C_2  and  C_3
REMARK    2  A    between atoms: C_2  and  C_4
REMARK    3  A    between atoms: C_3  and  C_5
REMARK    4  A    between atoms: C_4  and  C_6
REMARK    5  A    between atoms: C_5  and  C_7
REMARK    6  A    between atoms: C_6  and  C_8
REMARK    7  A    between atoms: C_7  and  C_9
REMARK    8  A    between atoms: C_8  and  C_10
REMARK    9  A    between atoms: C_9  and  C_11
REMARK   10  A    between atoms: C_10  and  C_12
REMARK   11  A    between atoms: C_12  and  C_13
REMARK                            x       y       z     vdW  Elec       q    Type
REMARK                         _______ _______ _______ _____ _____    ______ ____
ROOT
ATOM      1  C   UNL     1      -7.912  12.533   8.158  0.00  0.00    +0.000 C 
ATOM      2  H   UNL     1      -8.300  12.371   7.145  0.00  0.00    +0.000 HD
ATOM      3  H   UNL     1      -8.628  13.183   8.678  0.00  0.00    +0.000 HD
ENDROOT
BRANCH   1   4
ATOM      4  C   UNL     1      -7.805  11.195   8.893  0.00  0.00    +0.000 C 
ATOM      5  H   UNL     1      -8.296  11.266   9.870  0.00  0.00    +0.000 HD
ATOM      6  H   UNL     1      -6.750  10.959   9.076  0.00  0.00    +0.000 HD
BRANCH   4   7
ATOM      7  C   UNL     1      -8.449  10.066   8.084  0.00  0.00    +0.000 C 
ATOM      8  H   UNL     1      -9.523  10.262   7.975  0.00  0.00    +0.000 HD
ATOM      9  H   UNL     1      -8.024  10.063   7.072  0.00  0.00    +0.000 HD
BRANCH   7  10
ATOM     10  C   UNL     1      -8.255   8.682   8.710  0.00  0.00    +0.000 C 
ATOM     11  H   UNL     1      -7.416   8.177   8.214  0.00  0.00    +0.000 HD
ATOM     12  H   UNL     1      -9.149   8.075   8.513  0.00  0.00    +0.000 HD
BRANCH  10  13
ATOM     13  C   UNL     1      -8.004   8.725  10.217  0.00  0.00    +0.000 C 
ATOM     14  H   UNL     1      -7.155   8.079  10.471  0.00  0.00    +0.000 HD
ATOM     15  H   UNL     1      -7.739   9.745  10.521  0.00  0.00    +0.000 HD
BRANCH  13  16
ATOM     16  C   UNL     1      -9.231   8.278  10.997  0.00  0.00    +0.000 C 
ATOM     17  H   UNL     1     -10.036   9.016  10.918  0.00  0.00    +0.000 HD
ATOM     18  H   UNL     1      -8.994   8.141  12.057  0.00  0.00    +0.000 HD
ATOM     19  H   UNL     1      -9.603   7.326  10.606  0.00  0.00    +0.000 HD
ENDBRANCH  13  16
ENDBRANCH  10  13
ENDBRANCH   7  10
ENDBRANCH   4   7
ENDBRANCH   1   4
BRANCH   1  20
ATOM     20  C   UNL     1      -6.554  13.233   8.081  0.00  0.00    +0.000 C 
ATOM     21  H   UNL     1      -5.766  12.483   7.931  0.00  0.00    +0.000 HD
ATOM     22  H   UNL     1      -6.347  13.722   9.040  0.00  0.00    +0.000 HD
BRANCH  20  23
ATOM     23  C   UNL     1      -6.469  14.276   6.962  0.00  0.00    +0.000 C 
ATOM     24  H   UNL     1      -5.631  14.955   7.167  0.00  0.00    +0.000 HD
ATOM     25  H   UNL     1      -7.381  14.888   6.973  0.00  0.00    +0.000 HD
BRANCH  23  26
ATOM     26  C   UNL     1      -6.287  13.662   5.571  0.00  0.00    +0.000 C 
ATOM     27  H   UNL     1      -6.034  12.599   5.668  0.00  0.00    +0.000 HD
ATOM     28  H   UNL     1      -5.436  14.141   5.073  0.00  0.00    +0.000 HD
BRANCH  26  29
ATOM     29  C   UNL     1      -7.536  13.810   4.703  0.00  0.00    +0.000 C 
ATOM     30  H   UNL     1      -7.252  14.163   3.705  0.00  0.00    +0.000 HD
ATOM     31  H   UNL     1      -8.210  14.548   5.152  0.00  0.00    +0.000 HD
BRANCH  29  33
ATOM     32  O   UNL     1      -9.534  12.488   4.364  0.00  0.00    +0.000 OA
ATOM     33  C   UNL     1      -8.315  12.517   4.523  0.00  0.00    +0.000 C 
BRANCH  33  34
ATOM     34  C   UNL     1      -7.512  11.244   4.585  0.00  0.00    +0.000 C 
ATOM     35  H   UNL     1      -8.060  10.492   5.158  0.00  0.00    +0.000 HD
ATOM     36  H   UNL     1      -6.556  11.434   5.081  0.00  0.00    +0.000 HD
ATOM     37  H   UNL     1      -7.321  10.882   3.571  0.00  0.00    +0.000 HD
ENDBRANCH  33  34
ENDBRANCH  29  33
ENDBRANCH  26  29
ENDBRANCH  23  26
ENDBRANCH  20  23
ENDBRANCH   1  20
TORSDOF 11
ENDMDL
MODEL 9
REMARK VINA RESULT:    -3.905     29.163     30.737
REMARK INTER + INTRA:          -7.382
REMARK INTER:                  -6.401
REMARK INTRA:                  -0.981
REMARK UNBOUND:                -1.194
REMARK  Name = 22556
REMARK  11 active torsions:
REMARK  status: ('A' for Active; 'I' for Inactive)
REMARK    1  A    between atoms: C_2  and  C_3
REMARK    2  A    between atoms: C_2  and  C_4
REMARK    3  A    between atoms: C_3  and  C_5
REMARK    4  A    between atoms: C_4  and  C_6
REMARK    5  A    between atoms: C_5  and  C_7
REMARK    6  A    between atoms: C_6  and  C_8
REMARK    7  A    between atoms: C_7  and  C_9
REMARK    8  A    between atoms: C_8  and  C_10
REMARK    9  A    between atoms: C_9  and  C_11
REMARK   10  A    between atoms: C_10  and  C_12
REMARK   11  A    between atoms: C_12  and  C_13
REMARK                            x       y       z     vdW  Elec       q    Type
REMARK                         _______ _______ _______ _____ _____    ______ ____
ROOT
ATOM      1  C   UNL     1     -20.471  -0.640   7.017  0.00  0.00    +0.000 C 
ATOM      2  H   UNL     1     -20.411   0.451   6.927  0.00  0.00    +0.000 HD
ATOM      3  H   UNL     1     -19.477  -0.995   7.319  0.00  0.00    +0.000 HD
ENDROOT
BRANCH   1   4
ATOM      4  C   UNL     1     -21.499  -1.017   8.087  0.00  0.00    +0.000 C 
ATOM      5  H   UNL     1     -21.523  -0.247   8.867  0.00  0.00    +0.000 HD
ATOM      6  H   UNL     1     -21.203  -1.956   8.567  0.00  0.00    +0.000 HD
BRANCH   4   7
ATOM      7  C   UNL     1     -22.897  -1.169   7.482  0.00  0.00    +0.000 C 
ATOM      8  H   UNL     1     -23.532  -0.339   7.816  0.00  0.00    +0.000 HD
ATOM      9  H   UNL     1     -22.825  -1.092   6.390  0.00  0.00    +0.000 HD
BRANCH   7  10
ATOM     10  C   UNL     1     -23.576  -2.493   7.845  0.00  0.00    +0.000 C 
ATOM     11  H   UNL     1     -24.479  -2.286   8.432  0.00  0.00    +0.000 HD
ATOM     12  H   UNL     1     -22.904  -3.070   8.493  0.00  0.00    +0.000 HD
BRANCH  10  13
ATOM     13  C   UNL     1     -23.945  -3.341   6.627  0.00  0.00    +0.000 C 
ATOM     14  H   UNL     1     -23.115  -4.013   6.377  0.00  0.00    +0.000 HD
ATOM     15  H   UNL     1     -24.813  -3.969   6.860  0.00  0.00    +0.000 HD
BRANCH  13  16
ATOM     16  C   UNL     1     -24.271  -2.470   5.422  0.00  0.00    +0.000 C 
ATOM     17  H   UNL     1     -25.120  -2.876   4.864  0.00  0.00    +0.000 HD
ATOM     18  H   UNL     1     -23.414  -2.402   4.744  0.00  0.00    +0.000 HD
ATOM     19  H   UNL     1     -24.529  -1.457   5.746  0.00  0.00    +0.000 HD
ENDBRANCH  13  16
ENDBRANCH  10  13
ENDBRANCH   7  10
ENDBRANCH   4   7
ENDBRANCH   1   4
BRANCH   1  20
ATOM     20  C   UNL     1     -20.836  -1.247   5.660  0.00  0.00    +0.000 C 
ATOM     21  H   UNL     1     -20.346  -0.675   4.862  0.00  0.00    +0.000 HD
ATOM     22  H   UNL     1     -21.917  -1.149   5.502  0.00  0.00    +0.000 HD
BRANCH  20  23
ATOM     23  C   UNL     1     -20.447  -2.723   5.529  0.00  0.00    +0.000 C 
ATOM     24  H   UNL     1     -20.987  -3.305   6.286  0.00  0.00    +0.000 HD
ATOM     25  H   UNL     1     -19.377  -2.833   5.749  0.00  0.00    +0.000 HD
BRANCH  23  26
ATOM     26  C   UNL     1     -20.743  -3.309   4.144  0.00  0.00    +0.000 C 
ATOM     27  H   UNL     1     -19.976  -2.978   3.433  0.00  0.00    +0.000 HD
ATOM     28  H   UNL     1     -21.698  -2.911   3.781  0.00  0.00    +0.000 HD
BRANCH  26  29
ATOM     29  C   UNL     1     -20.797  -4.835   4.160  0.00  0.00    +0.000 C 
ATOM     30  H   UNL     1     -21.466  -5.188   3.366  0.00  0.00    +0.000 HD
ATOM     31  H   UNL     1     -21.192  -5.180   5.122  0.00  0.00    +0.000 HD
BRANCH  29  33
ATOM     32  O   UNL     1     -18.583  -5.553   4.818  0.00  0.00    +0.000 OA
ATOM     33  C   UNL     1     -19.447  -5.500   3.946  0.00  0.00    +0.000 C 
BRANCH  33  34
ATOM     34  C   UNL     1     -19.200  -6.072   2.575  0.00  0.00    +0.000 C 
ATOM     35  H   UNL     1     -20.154  -6.316   2.101  0.00  0.00    +0.000 HD
ATOM     36  H   UNL     1     -18.607  -6.987   2.657  0.00  0.00    +0.000 HD
ATOM     37  H   UNL     1     -18.651  -5.346   1.968  0.00  0.00    +0.000 HD
ENDBRANCH  33  34
ENDBRANCH  29  33
ENDBRANCH  26  29
ENDBRANCH  23  26
ENDBRANCH  20  23
ENDBRANCH   1  20
TORSDOF 11
ENDMDL
MODEL 10
REMARK VINA RESULT:    -3.865     16.326     17.676
REMARK INTER + INTRA:          -7.319
REMARK INTER:                  -6.125
REMARK INTRA:                  -1.194
REMARK UNBOUND:                -1.194
REMARK  Name = 22556
REMARK  11 active torsions:
REMARK  status: ('A' for Active; 'I' for Inactive)
REMARK    1  A    between atoms: C_2  and  C_3
REMARK    2  A    between atoms: C_2  and  C_4
REMARK    3  A    between atoms: C_3  and  C_5
REMARK    4  A    between atoms: C_4  and  C_6
REMARK    5  A    between atoms: C_5  and  C_7
REMARK    6  A    between atoms: C_6  and  C_8
REMARK    7  A    between atoms: C_7  and  C_9
REMARK    8  A    between atoms: C_8  and  C_10
REMARK    9  A    between atoms: C_9  and  C_11
REMARK   10  A    between atoms: C_10  and  C_12
REMARK   11  A    between atoms: C_12  and  C_13
REMARK                            x       y       z     vdW  Elec       q    Type
REMARK                         _______ _______ _______ _____ _____    ______ ____
ROOT
ATOM      1  C   UNL     1      11.073  -5.985   8.087  0.00  0.00    +0.000 C 
ATOM      2  H   UNL     1      10.904  -7.027   7.793  0.00  0.00    +0.000 HD
ATOM      3  H   UNL     1      10.193  -5.412   7.768  0.00  0.00    +0.000 HD
ENDROOT
BRANCH   1   4
ATOM      4  C   UNL     1      11.224  -5.893   9.608  0.00  0.00    +0.000 C 
ATOM      5  H   UNL     1      12.273  -5.703   9.866  0.00  0.00    +0.000 HD
ATOM      6  H   UNL     1      10.946  -6.851  10.063  0.00  0.00    +0.000 HD
BRANCH   4   7
ATOM      7  C   UNL     1      10.350  -4.777  10.185  0.00  0.00    +0.000 C 
ATOM      8  H   UNL     1       9.806  -4.282   9.371  0.00  0.00    +0.000 HD
ATOM      9  H   UNL     1       9.593  -5.221  10.845  0.00  0.00    +0.000 HD
BRANCH   7  10
ATOM     10  C   UNL     1      11.142  -3.727  10.969  0.00  0.00    +0.000 C 
ATOM     11  H   UNL     1      11.828  -4.235  11.659  0.00  0.00    +0.000 HD
ATOM     12  H   UNL     1      10.445  -3.147  11.588  0.00  0.00    +0.000 HD
BRANCH  10  13
ATOM     13  C   UNL     1      11.932  -2.770  10.077  0.00  0.00    +0.000 C 
ATOM     14  H   UNL     1      11.622  -2.896   9.032  0.00  0.00    +0.000 HD
ATOM     15  H   UNL     1      11.714  -1.733  10.358  0.00  0.00    +0.000 HD
BRANCH  13  16
ATOM     16  C   UNL     1      13.430  -3.013  10.192  0.00  0.00    +0.000 C 
ATOM     17  H   UNL     1      13.911  -2.219  10.772  0.00  0.00    +0.000 HD
ATOM     18  H   UNL     1      13.899  -3.050   9.204  0.00  0.00    +0.000 HD
ATOM     19  H   UNL     1      13.621  -3.966  10.696  0.00  0.00    +0.000 HD
ENDBRANCH  13  16
ENDBRANCH  10  13
ENDBRANCH   7  10
ENDBRANCH   4   7
ENDBRANCH   1   4
BRANCH   1  20
ATOM     20  C   UNL     1      12.315  -5.446   7.374  0.00  0.00    +0.000 C 
ATOM     21  H   UNL     1      12.646  -6.172   6.621  0.00  0.00    +0.000 HD
ATOM     22  H   UNL     1      13.132  -5.349   8.099  0.00  0.00    +0.000 HD
BRANCH  20  23
ATOM     23  C   UNL     1      12.089  -4.091   6.696  0.00  0.00    +0.000 C 
ATOM     24  H   UNL     1      11.391  -3.499   7.302  0.00  0.00    +0.000 HD
ATOM     25  H   UNL     1      11.605  -4.252   5.724  0.00  0.00    +0.000 HD
BRANCH  23  26
ATOM     26  C   UNL     1      13.379  -3.289   6.494  0.00  0.00    +0.000 C 
ATOM     27  H   UNL     1      13.378  -2.417   7.160  0.00  0.00    +0.000 HD
ATOM     28  H   UNL     1      13.405  -2.900   5.469  0.00  0.00    +0.000 HD
BRANCH  26  29
ATOM     29  C   UNL     1      14.629  -4.128   6.756  0.00  0.00    +0.000 C 
ATOM     30  H   UNL     1      14.340  -5.104   7.163  0.00  0.00    +0.000 HD
ATOM     31  H   UNL     1      15.264  -3.621   7.491  0.00  0.00    +0.000 HD
BRANCH  29  33
ATOM     32  O   UNL     1      15.787  -3.493   4.728  0.00  0.00    +0.000 OA
ATOM     33  C   UNL     1      15.468  -4.384   5.514  0.00  0.00    +0.000 C 
BRANCH  33  34
ATOM     34  C   UNL     1      15.868  -5.814   5.267  0.00  0.00    +0.000 C 
ATOM     35  H   UNL     1      15.403  -6.460   6.017  0.00  0.00    +0.000 HD
ATOM     36  H   UNL     1      16.954  -5.913   5.347  0.00  0.00    +0.000 HD
ATOM     37  H   UNL     1      15.556  -6.114   4.264  0.00  0.00    +0.000 HD
ENDBRANCH  33  34
ENDBRANCH  29  33
ENDBRANCH  26  29
ENDBRANCH  23  26
ENDBRANCH  20  23
ENDBRANCH   1  20
TORSDOF 11
ENDMDL
