MODEL 1
REMARK VINA RESULT:    -4.093      0.000      0.000
REMARK INTER + INTRA:          -5.876
REMARK INTER:                  -5.476
REMARK INTRA:                  -0.401
REMARK UNBOUND:                -0.228
REMARK  Name = 7720
REMARK  8 active torsions:
REMARK  status: ('A' for Active; 'I' for Inactive)
REMARK    1  A    between atoms: O_1  and  C_6
REMARK    2  A    between atoms: C_2  and  C_3
REMARK    3  A    between atoms: C_2  and  C_5
REMARK    4  A    between atoms: C_2  and  C_6
REMARK    5  A    between atoms: C_3  and  C_4
REMARK    6  A    between atoms: C_4  and  C_7
REMARK    7  A    between atoms: C_5  and  C_8
REMARK    8  A    between atoms: C_7  and  C_9
REMARK                            x       y       z     vdW  Elec       q    Type
REMARK                         _______ _______ _______ _____ _____    ______ ____
ROOT
ATOM      1  C   UNL     1      -2.947   7.311  -9.401  0.00  0.00    +0.000 C 
ATOM      2  H   UNL     1      -2.069   6.742  -9.060  0.00  0.00    +0.000 HD
ENDROOT
BRANCH   1   3
ATOM      3  C   UNL     1      -3.010   7.189 -10.938  0.00  0.00    +0.000 C 
ATOM      4  H   UNL     1      -3.769   6.443 -11.205  0.00  0.00    +0.000 HD
ATOM      5  H   UNL     1      -3.345   8.137 -11.376  0.00  0.00    +0.000 HD
BRANCH   3   6
ATOM      6  C   UNL     1      -1.681   6.770 -11.576  0.00  0.00    +0.000 C 
ATOM      7  H   UNL     1      -1.754   5.728 -11.914  0.00  0.00    +0.000 HD
ATOM      8  H   UNL     1      -0.880   6.810 -10.831  0.00  0.00    +0.000 HD
BRANCH   6   9
ATOM      9  C   UNL     1      -1.271   7.658 -12.753  0.00  0.00    +0.000 C 
ATOM     10  H   UNL     1      -0.838   7.034 -13.544  0.00  0.00    +0.000 HD
ATOM     11  H   UNL     1      -2.163   8.136 -13.176  0.00  0.00    +0.000 HD
BRANCH   9  12
ATOM     12  C   UNL     1      -0.271   8.739 -12.374  0.00  0.00    +0.000 C 
ATOM     13  H   UNL     1      -0.473   9.658 -12.934  0.00  0.00    +0.000 HD
ATOM     14  H   UNL     1      -0.331   8.970 -11.307  0.00  0.00    +0.000 HD
ATOM     15  H   UNL     1       0.752   8.420 -12.600  0.00  0.00    +0.000 HD
ENDBRANCH   9  12
ENDBRANCH   6   9
ENDBRANCH   3   6
ENDBRANCH   1   3
BRANCH   1  16
ATOM     16  C   UNL     1      -2.740   8.753  -8.888  0.00  0.00    +0.000 C 
ATOM     17  H   UNL     1      -1.751   8.847  -8.425  0.00  0.00    +0.000 HD
ATOM     18  H   UNL     1      -3.457   8.951  -8.082  0.00  0.00    +0.000 HD
BRANCH  16  19
ATOM     19  C   UNL     1      -2.897   9.843  -9.941  0.00  0.00    +0.000 C 
ATOM     20  H   UNL     1      -3.795  10.444  -9.767  0.00  0.00    +0.000 HD
ATOM     21  H   UNL     1      -2.993   9.388 -10.932  0.00  0.00    +0.000 HD
ATOM     22  H   UNL     1      -2.031  10.508  -9.968  0.00  0.00    +0.000 HD
ENDBRANCH  16  19
ENDBRANCH   1  16
BRANCH   1  23
ATOM     23  C   UNL     1      -4.187   6.642  -8.785  0.00  0.00    +0.000 C 
ATOM     24  H   UNL     1      -4.656   7.297  -8.044  0.00  0.00    +0.000 HD
ATOM     25  H   UNL     1      -3.941   5.703  -8.284  0.00  0.00    +0.000 HD
BRANCH  23  26
ATOM     26  O   UNL     1      -5.154   6.378  -9.793  0.00  0.00    +0.000 OA
ATOM     27  H   UNL     1      -5.989   6.788  -9.514  0.00  0.00    +0.000 HD
ENDBRANCH  23  26
ENDBRANCH   1  23
TORSDOF 8
ENDMDL
MODEL 2
REMARK VINA RESULT:    -4.059     25.626     26.434
REMARK INTER + INTRA:          -5.830
REMARK INTER:                  -5.512
REMARK INTRA:                  -0.318
REMARK UNBOUND:                -0.228
REMARK  Name = 7720
REMARK  8 active torsions:
REMARK  status: ('A' for Active; 'I' for Inactive)
REMARK    1  A    between atoms: O_1  and  C_6
REMARK    2  A    between atoms: C_2  and  C_3
REMARK    3  A    between atoms: C_2  and  C_5
REMARK    4  A    between atoms: C_2  and  C_6
REMARK    5  A    between atoms: C_3  and  C_4
REMARK    6  A    between atoms: C_4  and  C_7
REMARK    7  A    between atoms: C_5  and  C_8
REMARK    8  A    between atoms: C_7  and  C_9
REMARK                            x       y       z     vdW  Elec       q    Type
REMARK                         _______ _______ _______ _____ _____    ______ ____
ROOT
ATOM      1  C   UNL     1     -20.270  -4.832   4.437  0.00  0.00    +0.000 C 
ATOM      2  H   UNL     1     -20.983  -5.632   4.684  0.00  0.00    +0.000 HD
ENDROOT
BRANCH   1   3
ATOM      3  C   UNL     1     -20.379  -3.755   5.538  0.00  0.00    +0.000 C 
ATOM      4  H   UNL     1     -19.976  -4.162   6.474  0.00  0.00    +0.000 HD
ATOM      5  H   UNL     1     -19.751  -2.894   5.284  0.00  0.00    +0.000 HD
BRANCH   3   6
ATOM      6  C   UNL     1     -21.814  -3.286   5.798  0.00  0.00    +0.000 C 
ATOM      7  H   UNL     1     -22.149  -3.665   6.772  0.00  0.00    +0.000 HD
ATOM      8  H   UNL     1     -22.487  -3.706   5.043  0.00  0.00    +0.000 HD
BRANCH   6   9
ATOM      9  C   UNL     1     -21.966  -1.763   5.765  0.00  0.00    +0.000 C 
ATOM     10  H   UNL     1     -22.825  -1.498   5.137  0.00  0.00    +0.000 HD
ATOM     11  H   UNL     1     -22.184  -1.397   6.775  0.00  0.00    +0.000 HD
BRANCH   9  12
ATOM     12  C   UNL     1     -20.732  -1.044   5.241  0.00  0.00    +0.000 C 
ATOM     13  H   UNL     1     -20.250  -0.480   6.045  0.00  0.00    +0.000 HD
ATOM     14  H   UNL     1     -20.005  -1.757   4.841  0.00  0.00    +0.000 HD
ATOM     15  H   UNL     1     -20.999  -0.343   4.444  0.00  0.00    +0.000 HD
ENDBRANCH   9  12
ENDBRANCH   6   9
ENDBRANCH   3   6
ENDBRANCH   1   3
BRANCH   1  16
ATOM     16  C   UNL     1     -20.664  -4.336   3.027  0.00  0.00    +0.000 C 
ATOM     17  H   UNL     1     -19.765  -4.201   2.415  0.00  0.00    +0.000 HD
ATOM     18  H   UNL     1     -21.109  -3.338   3.112  0.00  0.00    +0.000 HD
BRANCH  16  19
ATOM     19  C   UNL     1     -21.643  -5.230   2.277  0.00  0.00    +0.000 C 
ATOM     20  H   UNL     1     -21.358  -6.284   2.345  0.00  0.00    +0.000 HD
ATOM     21  H   UNL     1     -21.653  -4.960   1.217  0.00  0.00    +0.000 HD
ATOM     22  H   UNL     1     -22.663  -5.119   2.653  0.00  0.00    +0.000 HD
ENDBRANCH  16  19
ENDBRANCH   1  16
BRANCH   1  23
ATOM     23  C   UNL     1     -18.864  -5.452   4.468  0.00  0.00    +0.000 C 
ATOM     24  H   UNL     1     -18.137  -4.795   3.979  0.00  0.00    +0.000 HD
ATOM     25  H   UNL     1     -18.829  -6.418   3.957  0.00  0.00    +0.000 HD
BRANCH  23  26
ATOM     26  O   UNL     1     -18.437  -5.635   5.811  0.00  0.00    +0.000 OA
ATOM     27  H   UNL     1     -19.052  -5.146   6.384  0.00  0.00    +0.000 HD
ENDBRANCH  23  26
ENDBRANCH   1  23
TORSDOF 8
ENDMDL
MODEL 3
REMARK VINA RESULT:    -3.946     16.886     18.058
REMARK INTER + INTRA:          -5.673
REMARK INTER:                  -5.340
REMARK INTRA:                  -0.334
REMARK UNBOUND:                -0.228
REMARK  Name = 7720
REMARK  8 active torsions:
REMARK  status: ('A' for Active; 'I' for Inactive)
REMARK    1  A    between atoms: O_1  and  C_6
REMARK    2  A    between atoms: C_2  and  C_3
REMARK    3  A    between atoms: C_2  and  C_5
REMARK    4  A    between atoms: C_2  and  C_6
REMARK    5  A    between atoms: C_3  and  C_4
REMARK    6  A    between atoms: C_4  and  C_7
REMARK    7  A    between atoms: C_5  and  C_8
REMARK    8  A    between atoms: C_7  and  C_9
REMARK                            x       y       z     vdW  Elec       q    Type
REMARK                         _______ _______ _______ _____ _____    ______ ____
ROOT
ATOM      1  C   UNL     1      -8.601  11.082   5.525  0.00  0.00    +0.000 C 
ATOM      2  H   UNL     1      -8.824  10.085   5.118  0.00  0.00    +0.000 HD
ENDROOT
BRANCH   1   3
ATOM      3  C   UNL     1      -7.341  11.606   4.805  0.00  0.00    +0.000 C 
ATOM      4  H   UNL     1      -6.451  11.244   5.336  0.00  0.00    +0.000 HD
ATOM      5  H   UNL     1      -7.284  11.186   3.794  0.00  0.00    +0.000 HD
BRANCH   3   6
ATOM      6  C   UNL     1      -7.266  13.134   4.731  0.00  0.00    +0.000 C 
ATOM      7  H   UNL     1      -8.183  13.564   5.155  0.00  0.00    +0.000 HD
ATOM      8  H   UNL     1      -7.215  13.456   3.686  0.00  0.00    +0.000 HD
BRANCH   6   9
ATOM      9  C   UNL     1      -6.050  13.714   5.459  0.00  0.00    +0.000 C 
ATOM     10  H   UNL     1      -5.182  13.067   5.285  0.00  0.00    +0.000 HD
ATOM     11  H   UNL     1      -5.806  14.695   5.034  0.00  0.00    +0.000 HD
BRANCH   9  12
ATOM     12  C   UNL     1      -6.258  13.868   6.957  0.00  0.00    +0.000 C 
ATOM     13  H   UNL     1      -6.636  14.869   7.188  0.00  0.00    +0.000 HD
ATOM     14  H   UNL     1      -6.982  13.136   7.328  0.00  0.00    +0.000 HD
ATOM     15  H   UNL     1      -5.317  13.724   7.498  0.00  0.00    +0.000 HD
ENDBRANCH   9  12
ENDBRANCH   6   9
ENDBRANCH   3   6
ENDBRANCH   1   3
BRANCH   1  16
ATOM     16  C   UNL     1      -8.424  10.886   7.047  0.00  0.00    +0.000 C 
ATOM     17  H   UNL     1      -8.964  11.671   7.590  0.00  0.00    +0.000 HD
ATOM     18  H   UNL     1      -7.368  11.032   7.305  0.00  0.00    +0.000 HD
BRANCH  16  19
ATOM     19  C   UNL     1      -8.859   9.528   7.581  0.00  0.00    +0.000 C 
ATOM     20  H   UNL     1      -9.873   9.274   7.256  0.00  0.00    +0.000 HD
ATOM     21  H   UNL     1      -8.858   9.542   8.675  0.00  0.00    +0.000 HD
ATOM     22  H   UNL     1      -8.181   8.732   7.263  0.00  0.00    +0.000 HD
ENDBRANCH  16  19
ENDBRANCH   1  16
BRANCH   1  23
ATOM     23  C   UNL     1      -9.796  11.988   5.186  0.00  0.00    +0.000 C 
ATOM     24  H   UNL     1     -10.590  11.418   4.693  0.00  0.00    +0.000 HD
ATOM     25  H   UNL     1      -9.514  12.805   4.516  0.00  0.00    +0.000 HD
BRANCH  23  26
ATOM     26  O   UNL     1     -10.343  12.545   6.373  0.00  0.00    +0.000 OA
ATOM     27  H   UNL     1     -11.043  11.946   6.683  0.00  0.00    +0.000 HD
ENDBRANCH  23  26
ENDBRANCH   1  23
TORSDOF 8
ENDMDL
MODEL 4
REMARK VINA RESULT:    -3.795     25.829     27.869
REMARK INTER + INTRA:          -5.465
REMARK INTER:                  -5.122
REMARK INTRA:                  -0.343
REMARK UNBOUND:                -0.228
REMARK  Name = 7720
REMARK  8 active torsions:
REMARK  status: ('A' for Active; 'I' for Inactive)
REMARK    1  A    between atoms: O_1  and  C_6
REMARK    2  A    between atoms: C_2  and  C_3
REMARK    3  A    between atoms: C_2  and  C_5
REMARK    4  A    between atoms: C_2  and  C_6
REMARK    5  A    between atoms: C_3  and  C_4
REMARK    6  A    between atoms: C_4  and  C_7
REMARK    7  A    between atoms: C_5  and  C_8
REMARK    8  A    between atoms: C_7  and  C_9
REMARK                            x       y       z     vdW  Elec       q    Type
REMARK                         _______ _______ _______ _____ _____    ______ ____
ROOT
ATOM      1  C   UNL     1     -22.696  -1.311   7.747  0.00  0.00    +0.000 C 
ATOM      2  H   UNL     1     -22.815  -0.345   7.235  0.00  0.00    +0.000 HD
ENDROOT
BRANCH   1   3
ATOM      3  C   UNL     1     -21.337  -1.901   7.313  0.00  0.00    +0.000 C 
ATOM      4  H   UNL     1     -20.959  -2.550   8.114  0.00  0.00    +0.000 HD
ATOM      5  H   UNL     1     -21.470  -2.545   6.436  0.00  0.00    +0.000 HD
BRANCH   3   6
ATOM      6  C   UNL     1     -20.273  -0.839   7.015  0.00  0.00    +0.000 C 
ATOM      7  H   UNL     1     -19.276  -1.284   7.123  0.00  0.00    +0.000 HD
ATOM      8  H   UNL     1     -20.342  -0.026   7.745  0.00  0.00    +0.000 HD
BRANCH   6   9
ATOM      9  C   UNL     1     -20.408  -0.227   5.618  0.00  0.00    +0.000 C 
ATOM     10  H   UNL     1     -21.117   0.609   5.656  0.00  0.00    +0.000 HD
ATOM     11  H   UNL     1     -19.442   0.188   5.308  0.00  0.00    +0.000 HD
BRANCH   9  12
ATOM     12  C   UNL     1     -20.874  -1.220   4.565  0.00  0.00    +0.000 C 
ATOM     13  H   UNL     1     -20.867  -2.237   4.971  0.00  0.00    +0.000 HD
ATOM     14  H   UNL     1     -21.892  -0.992   4.236  0.00  0.00    +0.000 HD
ATOM     15  H   UNL     1     -20.217  -1.198   3.690  0.00  0.00    +0.000 HD
ENDBRANCH   9  12
ENDBRANCH   6   9
ENDBRANCH   3   6
ENDBRANCH   1   3
BRANCH   1  16
ATOM     16  C   UNL     1     -23.916  -2.163   7.333  0.00  0.00    +0.000 C 
ATOM     17  H   UNL     1     -24.813  -1.805   7.851  0.00  0.00    +0.000 HD
ATOM     18  H   UNL     1     -23.769  -3.191   7.686  0.00  0.00    +0.000 HD
BRANCH  16  19
ATOM     19  C   UNL     1     -24.195  -2.210   5.837  0.00  0.00    +0.000 C 
ATOM     20  H   UNL     1     -25.246  -2.432   5.630  0.00  0.00    +0.000 HD
ATOM     21  H   UNL     1     -23.595  -3.001   5.374  0.00  0.00    +0.000 HD
ATOM     22  H   UNL     1     -23.932  -1.270   5.345  0.00  0.00    +0.000 HD
ENDBRANCH  16  19
ENDBRANCH   1  16
BRANCH   1  23
ATOM     23  C   UNL     1     -22.667  -1.022   9.257  0.00  0.00    +0.000 C 
ATOM     24  H   UNL     1     -21.652  -0.784   9.589  0.00  0.00    +0.000 HD
ATOM     25  H   UNL     1     -23.012  -1.877   9.845  0.00  0.00    +0.000 HD
BRANCH  23  26
ATOM     26  O   UNL     1     -23.489   0.096   9.559  0.00  0.00    +0.000 OA
ATOM     27  H   UNL     1     -24.393  -0.233   9.701  0.00  0.00    +0.000 HD
ENDBRANCH  23  26
ENDBRANCH   1  23
TORSDOF 8
ENDMDL
MODEL 5
REMARK VINA RESULT:    -3.758      7.577      8.872
REMARK INTER + INTRA:          -5.414
REMARK INTER:                  -5.161
REMARK INTRA:                  -0.253
REMARK UNBOUND:                -0.228
REMARK  Name = 7720
REMARK  8 active torsions:
REMARK  status: ('A' for Active; 'I' for Inactive)
REMARK    1  A    between atoms: O_1  and  C_6
REMARK    2  A    between atoms: C_2  and  C_3
REMARK    3  A    between atoms: C_2  and  C_5
REMARK    4  A    between atoms: C_2  and  C_6
REMARK    5  A    between atoms: C_3  and  C_4
REMARK    6  A    between atoms: C_4  and  C_7
REMARK    7  A    between atoms: C_5  and  C_8
REMARK    8  A    between atoms: C_7  and  C_9
REMARK                            x       y       z     vdW  Elec       q    Type
REMARK                         _______ _______ _______ _____ _____    ______ ____
ROOT
ATOM      1  C   UNL     1      -8.164   4.569  -5.418  0.00  0.00    +0.000 C 
ATOM      2  H   UNL     1      -7.128   4.260  -5.215  0.00  0.00    +0.000 HD
ENDROOT
BRANCH   1   3
ATOM      3  C   UNL     1      -8.348   5.985  -4.833  0.00  0.00    +0.000 C 
ATOM      4  H   UNL     1      -9.170   5.966  -4.106  0.00  0.00    +0.000 HD
ATOM      5  H   UNL     1      -7.452   6.280  -4.273  0.00  0.00    +0.000 HD
BRANCH   3   6
ATOM      6  C   UNL     1      -8.667   7.049  -5.889  0.00  0.00    +0.000 C 
ATOM      7  H   UNL     1      -8.774   6.567  -6.870  0.00  0.00    +0.000 HD
ATOM      8  H   UNL     1      -7.835   7.757  -5.969  0.00  0.00    +0.000 HD
BRANCH   6   9
ATOM      9  C   UNL     1      -9.934   7.849  -5.575  0.00  0.00    +0.000 C 
ATOM     10  H   UNL     1     -10.777   7.159  -5.455  0.00  0.00    +0.000 HD
ATOM     11  H   UNL     1      -9.807   8.369  -4.618  0.00  0.00    +0.000 HD
BRANCH   9  12
ATOM     12  C   UNL     1     -10.283   8.872  -6.644  0.00  0.00    +0.000 C 
ATOM     13  H   UNL     1     -11.281   8.674  -7.050  0.00  0.00    +0.000 HD
ATOM     14  H   UNL     1     -10.278   9.886  -6.232  0.00  0.00    +0.000 HD
ATOM     15  H   UNL     1      -9.565   8.834  -7.470  0.00  0.00    +0.000 HD
ENDBRANCH   9  12
ENDBRANCH   6   9
ENDBRANCH   3   6
ENDBRANCH   1   3
BRANCH   1  16
ATOM     16  C   UNL     1      -9.061   3.494  -4.765  0.00  0.00    +0.000 C 
ATOM     17  H   UNL     1      -9.087   3.639  -3.679  0.00  0.00    +0.000 HD
ATOM     18  H   UNL     1      -8.602   2.509  -4.914  0.00  0.00    +0.000 HD
BRANCH  16  19
ATOM     19  C   UNL     1     -10.489   3.437  -5.291  0.00  0.00    +0.000 C 
ATOM     20  H   UNL     1     -10.675   4.216  -6.035  0.00  0.00    +0.000 HD
ATOM     21  H   UNL     1     -11.193   3.593  -4.467  0.00  0.00    +0.000 HD
ATOM     22  H   UNL     1     -10.718   2.466  -5.737  0.00  0.00    +0.000 HD
ENDBRANCH  16  19
ENDBRANCH   1  16
BRANCH   1  23
ATOM     23  C   UNL     1      -8.330   4.622  -6.945  0.00  0.00    +0.000 C 
ATOM     24  H   UNL     1      -7.839   5.509  -7.360  0.00  0.00    +0.000 HD
ATOM     25  H   UNL     1      -9.381   4.660  -7.243  0.00  0.00    +0.000 HD
BRANCH  23  26
ATOM     26  O   UNL     1      -7.730   3.482  -7.545  0.00  0.00    +0.000 OA
ATOM     27  H   UNL     1      -6.831   3.731  -7.818  0.00  0.00    +0.000 HD
ENDBRANCH  23  26
ENDBRANCH   1  23
TORSDOF 8
ENDMDL
MODEL 6
REMARK VINA RESULT:    -3.738      1.899      2.935
REMARK INTER + INTRA:          -5.386
REMARK INTER:                  -5.183
REMARK INTRA:                  -0.204
REMARK UNBOUND:                -0.228
REMARK  Name = 7720
REMARK  8 active torsions:
REMARK  status: ('A' for Active; 'I' for Inactive)
REMARK    1  A    between atoms: O_1  and  C_6
REMARK    2  A    between atoms: C_2  and  C_3
REMARK    3  A    between atoms: C_2  and  C_5
REMARK    4  A    between atoms: C_2  and  C_6
REMARK    5  A    between atoms: C_3  and  C_4
REMARK    6  A    between atoms: C_4  and  C_7
REMARK    7  A    between atoms: C_5  and  C_8
REMARK    8  A    between atoms: C_7  and  C_9
REMARK                            x       y       z     vdW  Elec       q    Type
REMARK                         _______ _______ _______ _____ _____    ______ ____
ROOT
ATOM      1  C   UNL     1      -2.212   8.936 -10.644  0.00  0.00    +0.000 C 
ATOM      2  H   UNL     1      -3.130   9.411 -11.017  0.00  0.00    +0.000 HD
ENDROOT
BRANCH   1   3
ATOM      3  C   UNL     1      -1.026   9.534 -11.430  0.00  0.00    +0.000 C 
ATOM      4  H   UNL     1      -1.378  10.406 -11.996  0.00  0.00    +0.000 HD
ATOM      5  H   UNL     1      -0.265   9.909 -10.735  0.00  0.00    +0.000 HD
BRANCH   3   6
ATOM      6  C   UNL     1      -0.384   8.551 -12.415  0.00  0.00    +0.000 C 
ATOM      7  H   UNL     1      -1.104   7.761 -12.662  0.00  0.00    +0.000 HD
ATOM      8  H   UNL     1       0.478   8.065 -11.948  0.00  0.00    +0.000 HD
BRANCH   6   9
ATOM      9  C   UNL     1       0.098   9.220 -13.706  0.00  0.00    +0.000 C 
ATOM     10  H   UNL     1      -0.182  10.280 -13.690  0.00  0.00    +0.000 HD
ATOM     11  H   UNL     1       1.193   9.179 -13.749  0.00  0.00    +0.000 HD
BRANCH   9  12
ATOM     12  C   UNL     1      -0.465   8.580 -14.965  0.00  0.00    +0.000 C 
ATOM     13  H   UNL     1      -1.388   9.083 -15.268  0.00  0.00    +0.000 HD
ATOM     14  H   UNL     1       0.249   8.650 -15.791  0.00  0.00    +0.000 HD
ATOM     15  H   UNL     1      -0.692   7.522 -14.796  0.00  0.00    +0.000 HD
ENDBRANCH   9  12
ENDBRANCH   6   9
ENDBRANCH   3   6
ENDBRANCH   1   3
BRANCH   1  16
ATOM     16  C   UNL     1      -2.407   7.417 -10.852  0.00  0.00    +0.000 C 
ATOM     17  H   UNL     1      -1.432   6.926 -10.953  0.00  0.00    +0.000 HD
ATOM     18  H   UNL     1      -2.915   7.252 -11.810  0.00  0.00    +0.000 HD
BRANCH  16  19
ATOM     19  C   UNL     1      -3.205   6.712  -9.764  0.00  0.00    +0.000 C 
ATOM     20  H   UNL     1      -2.958   5.647  -9.710  0.00  0.00    +0.000 HD
ATOM     21  H   UNL     1      -4.275   6.791  -9.979  0.00  0.00    +0.000 HD
ATOM     22  H   UNL     1      -3.035   7.160  -8.781  0.00  0.00    +0.000 HD
ENDBRANCH  16  19
ENDBRANCH   1  16
BRANCH   1  23
ATOM     23  C   UNL     1      -2.079   9.311  -9.158  0.00  0.00    +0.000 C 
ATOM     24  H   UNL     1      -1.206   9.951  -8.995  0.00  0.00    +0.000 HD
ATOM     25  H   UNL     1      -1.963   8.431  -8.521  0.00  0.00    +0.000 HD
BRANCH  23  26
ATOM     26  O   UNL     1      -3.225  10.033  -8.730  0.00  0.00    +0.000 OA
ATOM     27  H   UNL     1      -3.445  10.675  -9.426  0.00  0.00    +0.000 HD
ENDBRANCH  23  26
ENDBRANCH   1  23
TORSDOF 8
ENDMDL
MODEL 7
REMARK VINA RESULT:    -3.729      7.207      9.254
REMARK INTER + INTRA:          -5.374
REMARK INTER:                  -5.047
REMARK INTRA:                  -0.327
REMARK UNBOUND:                -0.228
REMARK  Name = 7720
REMARK  8 active torsions:
REMARK  status: ('A' for Active; 'I' for Inactive)
REMARK    1  A    between atoms: O_1  and  C_6
REMARK    2  A    between atoms: C_2  and  C_3
REMARK    3  A    between atoms: C_2  and  C_5
REMARK    4  A    between atoms: C_2  and  C_6
REMARK    5  A    between atoms: C_3  and  C_4
REMARK    6  A    between atoms: C_4  and  C_7
REMARK    7  A    between atoms: C_5  and  C_8
REMARK    8  A    between atoms: C_7  and  C_9
REMARK                            x       y       z     vdW  Elec       q    Type
REMARK                         _______ _______ _______ _____ _____    ______ ____
ROOT
ATOM      1  C   UNL     1      -9.511   6.057  -6.008  0.00  0.00    +0.000 C 
ATOM      2  H   UNL     1     -10.111   5.303  -6.539  0.00  0.00    +0.000 HD
ENDROOT
BRANCH   1   3
ATOM      3  C   UNL     1      -8.706   5.323  -4.915  0.00  0.00    +0.000 C 
ATOM      4  H   UNL     1      -7.634   5.465  -5.105  0.00  0.00    +0.000 HD
ATOM      5  H   UNL     1      -8.905   5.775  -3.935  0.00  0.00    +0.000 HD
BRANCH   3   6
ATOM      6  C   UNL     1      -8.985   3.817  -4.853  0.00  0.00    +0.000 C 
ATOM      7  H   UNL     1      -9.300   3.548  -3.837  0.00  0.00    +0.000 HD
ATOM      8  H   UNL     1      -8.067   3.259  -5.062  0.00  0.00    +0.000 HD
BRANCH   6   9
ATOM      9  C   UNL     1     -10.050   3.360  -5.854  0.00  0.00    +0.000 C 
ATOM     10  H   UNL     1     -10.238   4.164  -6.575  0.00  0.00    +0.000 HD
ATOM     11  H   UNL     1      -9.669   2.504  -6.422  0.00  0.00    +0.000 HD
BRANCH   9  12
ATOM     12  C   UNL     1     -11.365   2.967  -5.199  0.00  0.00    +0.000 C 
ATOM     13  H   UNL     1     -11.559   3.597  -4.326  0.00  0.00    +0.000 HD
ATOM     14  H   UNL     1     -12.199   3.085  -5.897  0.00  0.00    +0.000 HD
ATOM     15  H   UNL     1     -11.339   1.924  -4.869  0.00  0.00    +0.000 HD
ENDBRANCH   9  12
ENDBRANCH   6   9
ENDBRANCH   3   6
ENDBRANCH   1   3
BRANCH   1  16
ATOM     16  C   UNL     1     -10.519   7.093  -5.464  0.00  0.00    +0.000 C 
ATOM     17  H   UNL     1     -10.614   6.985  -4.377  0.00  0.00    +0.000 HD
ATOM     18  H   UNL     1     -11.514   6.867  -5.865  0.00  0.00    +0.000 HD
BRANCH  16  19
ATOM     19  C   UNL     1     -10.195   8.544  -5.790  0.00  0.00    +0.000 C 
ATOM     20  H   UNL     1      -9.309   8.891  -5.248  0.00  0.00    +0.000 HD
ATOM     21  H   UNL     1     -11.032   9.186  -5.495  0.00  0.00    +0.000 HD
ATOM     22  H   UNL     1     -10.030   8.693  -6.860  0.00  0.00    +0.000 HD
ENDBRANCH  16  19
ENDBRANCH   1  16
BRANCH   1  23
ATOM     23  C   UNL     1      -8.539   6.666  -7.033  0.00  0.00    +0.000 C 
ATOM     24  H   UNL     1      -8.774   7.720  -7.214  0.00  0.00    +0.000 HD
ATOM     25  H   UNL     1      -8.582   6.151  -7.996  0.00  0.00    +0.000 HD
BRANCH  23  26
ATOM     26  O   UNL     1      -7.207   6.603  -6.544  0.00  0.00    +0.000 OA
ATOM     27  H   UNL     1      -7.057   5.701  -6.213  0.00  0.00    +0.000 HD
ENDBRANCH  23  26
ENDBRANCH   1  23
TORSDOF 8
ENDMDL
MODEL 8
REMARK VINA RESULT:    -3.704     30.751     33.126
REMARK INTER + INTRA:          -5.340
REMARK INTER:                  -4.898
REMARK INTRA:                  -0.442
REMARK UNBOUND:                -0.228
REMARK  Name = 7720
REMARK  8 active torsions:
REMARK  status: ('A' for Active; 'I' for Inactive)
REMARK    1  A    between atoms: O_1  and  C_6
REMARK    2  A    between atoms: C_2  and  C_3
REMARK    3  A    between atoms: C_2  and  C_5
REMARK    4  A    between atoms: C_2  and  C_6
REMARK    5  A    between atoms: C_3  and  C_4
REMARK    6  A    between atoms: C_4  and  C_7
REMARK    7  A    between atoms: C_5  and  C_8
REMARK    8  A    between atoms: C_7  and  C_9
REMARK                            x       y       z     vdW  Elec       q    Type
REMARK                         _______ _______ _______ _____ _____    ______ ____
ROOT
ATOM      1  C   UNL     1      -9.284 -10.232  15.071  0.00  0.00    +0.000 C 
ATOM      2  H   UNL     1      -8.647  -9.575  15.680  0.00  0.00    +0.000 HD
ENDROOT
BRANCH   1   3
ATOM      3  C   UNL     1     -10.630 -10.388  15.810  0.00  0.00    +0.000 C 
ATOM      4  H   UNL     1     -10.634  -9.727  16.686  0.00  0.00    +0.000 HD
ATOM      5  H   UNL     1     -11.453 -10.050  15.168  0.00  0.00    +0.000 HD
BRANCH   3   6
ATOM      6  C   UNL     1     -10.907 -11.818  16.288  0.00  0.00    +0.000 C 
ATOM      7  H   UNL     1     -10.171 -12.499  15.841  0.00  0.00    +0.000 HD
ATOM      8  H   UNL     1     -11.894 -12.142  15.943  0.00  0.00    +0.000 HD
BRANCH   6   9
ATOM      9  C   UNL     1     -10.873 -11.961  17.812  0.00  0.00    +0.000 C 
ATOM     10  H   UNL     1     -10.912 -10.965  18.270  0.00  0.00    +0.000 HD
ATOM     11  H   UNL     1     -11.766 -12.501  18.146  0.00  0.00    +0.000 HD
BRANCH   9  12
ATOM     12  C   UNL     1      -9.640 -12.690  18.323  0.00  0.00    +0.000 C 
ATOM     13  H   UNL     1      -9.920 -13.419  19.090  0.00  0.00    +0.000 HD
ATOM     14  H   UNL     1      -9.137 -13.224  17.511  0.00  0.00    +0.000 HD
ATOM     15  H   UNL     1      -8.927 -11.987  18.765  0.00  0.00    +0.000 HD
ENDBRANCH   9  12
ENDBRANCH   6   9
ENDBRANCH   3   6
ENDBRANCH   1   3
BRANCH   1  16
ATOM     16  C   UNL     1      -8.496 -11.551  14.907  0.00  0.00    +0.000 C 
ATOM     17  H   UNL     1      -8.265 -11.719  13.849  0.00  0.00    +0.000 HD
ATOM     18  H   UNL     1      -9.141 -12.390  15.198  0.00  0.00    +0.000 HD
BRANCH  16  19
ATOM     19  C   UNL     1      -7.208 -11.640  15.714  0.00  0.00    +0.000 C 
ATOM     20  H   UNL     1      -7.317 -12.309  16.573  0.00  0.00    +0.000 HD
ATOM     21  H   UNL     1      -6.944 -10.650  16.100  0.00  0.00    +0.000 HD
ATOM     22  H   UNL     1      -6.371 -11.988  15.105  0.00  0.00    +0.000 HD
ENDBRANCH  16  19
ENDBRANCH   1  16
BRANCH   1  23
ATOM     23  C   UNL     1      -9.520  -9.520  13.729  0.00  0.00    +0.000 C 
ATOM     24  H   UNL     1      -9.185  -8.478  13.777  0.00  0.00    +0.000 HD
ATOM     25  H   UNL     1     -10.576  -9.512  13.447  0.00  0.00    +0.000 HD
BRANCH  23  26
ATOM     26  O   UNL     1      -8.781 -10.159  12.697  0.00  0.00    +0.000 OA
ATOM     27  H   UNL     1      -8.661 -11.088  12.954  0.00  0.00    +0.000 HD
ENDBRANCH  23  26
ENDBRANCH   1  23
TORSDOF 8
ENDMDL
MODEL 9
REMARK VINA RESULT:    -3.701      9.628     10.849
REMARK INTER + INTRA:          -5.335
REMARK INTER:                  -5.163
REMARK INTRA:                  -0.173
REMARK UNBOUND:                -0.228
REMARK  Name = 7720
REMARK  8 active torsions:
REMARK  status: ('A' for Active; 'I' for Inactive)
REMARK    1  A    between atoms: O_1  and  C_6
REMARK    2  A    between atoms: C_2  and  C_3
REMARK    3  A    between atoms: C_2  and  C_5
REMARK    4  A    between atoms: C_2  and  C_6
REMARK    5  A    between atoms: C_3  and  C_4
REMARK    6  A    between atoms: C_4  and  C_7
REMARK    7  A    between atoms: C_5  and  C_8
REMARK    8  A    between atoms: C_7  and  C_9
REMARK                            x       y       z     vdW  Elec       q    Type
REMARK                         _______ _______ _______ _____ _____    ______ ____
ROOT
ATOM      1  C   UNL     1       2.500  -0.128 -13.846  0.00  0.00    +0.000 C 
ATOM      2  H   UNL     1       3.223  -0.051 -13.021  0.00  0.00    +0.000 HD
ENDROOT
BRANCH   1   3
ATOM      3  C   UNL     1       3.246   0.218 -15.152  0.00  0.00    +0.000 C 
ATOM      4  H   UNL     1       3.026  -0.552 -15.903  0.00  0.00    +0.000 HD
ATOM      5  H   UNL     1       2.868   1.161 -15.563  0.00  0.00    +0.000 HD
BRANCH   3   6
ATOM      6  C   UNL     1       4.767   0.303 -14.986  0.00  0.00    +0.000 C 
ATOM      7  H   UNL     1       5.004   0.627 -13.964  0.00  0.00    +0.000 HD
ATOM      8  H   UNL     1       5.175   1.060 -15.664  0.00  0.00    +0.000 HD
BRANCH   6   9
ATOM      9  C   UNL     1       5.481  -1.020 -15.278  0.00  0.00    +0.000 C 
ATOM     10  H   UNL     1       6.361  -1.107 -14.631  0.00  0.00    +0.000 HD
ATOM     11  H   UNL     1       4.816  -1.854 -15.026  0.00  0.00    +0.000 HD
BRANCH   9  12
ATOM     12  C   UNL     1       5.918  -1.164 -16.727  0.00  0.00    +0.000 C 
ATOM     13  H   UNL     1       5.643  -0.271 -17.298  0.00  0.00    +0.000 HD
ATOM     14  H   UNL     1       7.002  -1.293 -16.797  0.00  0.00    +0.000 HD
ATOM     15  H   UNL     1       5.438  -2.030 -17.195  0.00  0.00    +0.000 HD
ENDBRANCH   9  12
ENDBRANCH   6   9
ENDBRANCH   3   6
ENDBRANCH   1   3
BRANCH   1  16
ATOM     16  C   UNL     1       1.354   0.847 -13.496  0.00  0.00    +0.000 C 
ATOM     17  H   UNL     1       0.447   0.570 -14.046  0.00  0.00    +0.000 HD
ATOM     18  H   UNL     1       1.615   1.849 -13.858  0.00  0.00    +0.000 HD
BRANCH  16  19
ATOM     19  C   UNL     1       1.021   0.950 -12.014  0.00  0.00    +0.000 C 
ATOM     20  H   UNL     1       0.399   0.113 -11.682  0.00  0.00    +0.000 HD
ATOM     21  H   UNL     1       0.462   1.871 -11.823  0.00  0.00    +0.000 HD
ATOM     22  H   UNL     1       1.923   0.980 -11.397  0.00  0.00    +0.000 HD
ENDBRANCH  16  19
ENDBRANCH   1  16
BRANCH   1  23
ATOM     23  C   UNL     1       2.029  -1.591 -13.901  0.00  0.00    +0.000 C 
ATOM     24  H   UNL     1       2.513  -2.126 -14.724  0.00  0.00    +0.000 HD
ATOM     25  H   UNL     1       0.948  -1.669 -14.049  0.00  0.00    +0.000 HD
BRANCH  23  26
ATOM     26  O   UNL     1       2.370  -2.262 -12.696  0.00  0.00    +0.000 OA
ATOM     27  H   UNL     1       2.774  -1.609 -12.100  0.00  0.00    +0.000 HD
ENDBRANCH  23  26
ENDBRANCH   1  23
TORSDOF 8
ENDMDL
MODEL 10
REMARK VINA RESULT:    -3.623     18.680     20.469
REMARK INTER + INTRA:          -5.227
REMARK INTER:                  -4.999
REMARK INTRA:                  -0.228
REMARK UNBOUND:                -0.228
REMARK  Name = 7720
REMARK  8 active torsions:
REMARK  status: ('A' for Active; 'I' for Inactive)
REMARK    1  A    between atoms: O_1  and  C_6
REMARK    2  A    between atoms: C_2  and  C_3
REMARK    3  A    between atoms: C_2  and  C_5
REMARK    4  A    between atoms: C_2  and  C_6
REMARK    5  A    between atoms: C_3  and  C_4
REMARK    6  A    between atoms: C_4  and  C_7
REMARK    7  A    between atoms: C_5  and  C_8
REMARK    8  A    between atoms: C_7  and  C_9
REMARK                            x       y       z     vdW  Elec       q    Type
REMARK                         _______ _______ _______ _____ _____    ______ ____
ROOT
ATOM      1  C   UNL     1      -7.905   9.793   9.653  0.00  0.00    +0.000 C 
ATOM      2  H   UNL     1      -7.832  10.844   9.339  0.00  0.00    +0.000 HD
ENDROOT
BRANCH   1   3
ATOM      3  C   UNL     1      -8.339   8.970   8.422  0.00  0.00    +0.000 C 
ATOM      4  H   UNL     1      -7.446   8.547   7.943  0.00  0.00    +0.000 HD
ATOM      5  H   UNL     1      -8.949   8.115   8.738  0.00  0.00    +0.000 HD
BRANCH   3   6
ATOM      6  C   UNL     1      -9.102   9.787   7.374  0.00  0.00    +0.000 C 
ATOM      7  H   UNL     1     -10.078  10.081   7.783  0.00  0.00    +0.000 HD
ATOM      8  H   UNL     1      -9.298   9.171   6.490  0.00  0.00    +0.000 HD
BRANCH   6   9
ATOM      9  C   UNL     1      -8.346  11.037   6.917  0.00  0.00    +0.000 C 
ATOM     10  H   UNL     1      -8.902  11.930   7.226  0.00  0.00    +0.000 HD
ATOM     11  H   UNL     1      -7.372  11.077   7.419  0.00  0.00    +0.000 HD
BRANCH   9  12
ATOM     12  C   UNL     1      -8.122  11.091   5.414  0.00  0.00    +0.000 C 
ATOM     13  H   UNL     1      -8.470  10.166   4.943  0.00  0.00    +0.000 HD
ATOM     14  H   UNL     1      -8.670  11.927   4.967  0.00  0.00    +0.000 HD
ATOM     15  H   UNL     1      -7.060  11.214   5.181  0.00  0.00    +0.000 HD
ENDBRANCH   9  12
ENDBRANCH   6   9
ENDBRANCH   3   6
ENDBRANCH   1   3
BRANCH   1  16
ATOM     16  C   UNL     1      -8.919   9.770  10.818  0.00  0.00    +0.000 C 
ATOM     17  H   UNL     1      -9.716  10.499  10.633  0.00  0.00    +0.000 HD
ATOM     18  H   UNL     1      -8.420  10.113  11.732  0.00  0.00    +0.000 HD
BRANCH  16  19
ATOM     19  C   UNL     1      -9.548   8.413  11.103  0.00  0.00    +0.000 C 
ATOM     20  H   UNL     1      -8.788   7.645  11.273  0.00  0.00    +0.000 HD
ATOM     21  H   UNL     1     -10.149   8.096  10.244  0.00  0.00    +0.000 HD
ATOM     22  H   UNL     1     -10.211   8.447  11.971  0.00  0.00    +0.000 HD
ENDBRANCH  16  19
ENDBRANCH   1  16
BRANCH   1  23
ATOM     23  C   UNL     1      -6.499   9.351  10.091  0.00  0.00    +0.000 C 
ATOM     24  H   UNL     1      -5.958   8.889   9.259  0.00  0.00    +0.000 HD
ATOM     25  H   UNL     1      -6.532   8.622  10.905  0.00  0.00    +0.000 HD
BRANCH  23  26
ATOM     26  O   UNL     1      -5.743  10.475  10.521  0.00  0.00    +0.000 OA
ATOM     27  H   UNL     1      -5.130  10.709   9.804  0.00  0.00    +0.000 HD
ENDBRANCH  23  26
ENDBRANCH   1  23
TORSDOF 8
ENDMDL
