MODEL 1
REMARK VINA RESULT:    -4.145      0.000      0.000
REMARK INTER + INTRA:          -5.465
REMARK INTER:                  -5.215
REMARK INTRA:                  -0.250
REMARK UNBOUND:                -0.109
REMARK  Name = 8051
REMARK  6 active torsions:
REMARK  status: ('A' for Active; 'I' for Inactive)
REMARK    1  A    between atoms: C_2  and  C_3
REMARK    2  A    between atoms: C_2  and  C_4
REMARK    3  A    between atoms: C_3  and  C_5
REMARK    4  A    between atoms: C_4  and  C_6
REMARK    5  A    between atoms: C_5  and  C_7
REMARK    6  A    between atoms: C_7  and  C_8
REMARK                            x       y       z     vdW  Elec       q    Type
REMARK                         _______ _______ _______ _____ _____    ______ ____
ROOT
ATOM      1  C   UNL     1      -2.595   9.532 -10.267  0.00  0.00    +0.000 C 
ATOM      2  H   UNL     1      -2.870   8.809 -11.045  0.00  0.00    +0.000 HD
ATOM      3  H   UNL     1      -3.327  10.348 -10.327  0.00  0.00    +0.000 HD
ENDROOT
BRANCH   1   4
ATOM      4  C   UNL     1      -2.694   8.866  -8.892  0.00  0.00    +0.000 C 
ATOM      5  H   UNL     1      -1.694   8.785  -8.450  0.00  0.00    +0.000 HD
ATOM      6  H   UNL     1      -3.294   9.496  -8.224  0.00  0.00    +0.000 HD
BRANCH   4   7
ATOM      7  C   UNL     1      -3.327   7.477  -8.993  0.00  0.00    +0.000 C 
ATOM      8  H   UNL     1      -3.035   6.870  -8.128  0.00  0.00    +0.000 HD
ATOM      9  H   UNL     1      -4.419   7.564  -8.976  0.00  0.00    +0.000 HD
BRANCH   7  10
ATOM     10  C   UNL     1      -2.901   6.763 -10.266  0.00  0.00    +0.000 C 
ATOM     11  H   UNL     1      -1.992   6.176 -10.101  0.00  0.00    +0.000 HD
ATOM     12  H   UNL     1      -3.690   6.082 -10.600  0.00  0.00    +0.000 HD
ATOM     13  H   UNL     1      -2.708   7.479 -11.071  0.00  0.00    +0.000 HD
ENDBRANCH   7  10
ENDBRANCH   4   7
ENDBRANCH   1   4
BRANCH   1  14
ATOM     14  C   UNL     1      -1.201  10.080 -10.552  0.00  0.00    +0.000 C 
ATOM     15  H   UNL     1      -0.470   9.606  -9.887  0.00  0.00    +0.000 HD
ATOM     16  H   UNL     1      -1.184  11.161 -10.373  0.00  0.00    +0.000 HD
BRANCH  14  18
ATOM     17  O   UNL     1      -0.695  10.770 -12.792  0.00  0.00    +0.000 OA
ATOM     18  C   UNL     1      -0.753   9.845 -11.981  0.00  0.00    +0.000 C 
BRANCH  18  19
ATOM     19  C   UNL     1      -0.365   8.443 -12.367  0.00  0.00    +0.000 C 
ATOM     20  H   UNL     1       0.671   8.432 -12.715  0.00  0.00    +0.000 HD
ATOM     21  H   UNL     1      -0.480   7.780 -11.505  0.00  0.00    +0.000 HD
ATOM     22  H   UNL     1      -1.014   8.088 -13.173  0.00  0.00    +0.000 HD
ENDBRANCH  18  19
ENDBRANCH  14  18
ENDBRANCH   1  14
TORSDOF 6
ENDMDL
MODEL 2
REMARK VINA RESULT:    -4.137     12.778     13.532
REMARK INTER + INTRA:          -5.455
REMARK INTER:                  -5.198
REMARK INTRA:                  -0.258
REMARK UNBOUND:                -0.109
REMARK  Name = 8051
REMARK  6 active torsions:
REMARK  status: ('A' for Active; 'I' for Inactive)
REMARK    1  A    between atoms: C_2  and  C_3
REMARK    2  A    between atoms: C_2  and  C_4
REMARK    3  A    between atoms: C_3  and  C_5
REMARK    4  A    between atoms: C_4  and  C_6
REMARK    5  A    between atoms: C_5  and  C_7
REMARK    6  A    between atoms: C_7  and  C_8
REMARK                            x       y       z     vdW  Elec       q    Type
REMARK                         _______ _______ _______ _____ _____    ______ ____
ROOT
ATOM      1  C   UNL     1       6.431  11.258  -0.756  0.00  0.00    +0.000 C 
ATOM      2  H   UNL     1       7.005  11.989  -1.338  0.00  0.00    +0.000 HD
ATOM      3  H   UNL     1       5.809  10.707  -1.474  0.00  0.00    +0.000 HD
ENDROOT
BRANCH   1   4
ATOM      4  C   UNL     1       7.391  10.283  -0.069  0.00  0.00    +0.000 C 
ATOM      5  H   UNL     1       8.371  10.325  -0.560  0.00  0.00    +0.000 HD
ATOM      6  H   UNL     1       7.538  10.589   0.974  0.00  0.00    +0.000 HD
BRANCH   4   7
ATOM      7  C   UNL     1       6.853   8.852  -0.113  0.00  0.00    +0.000 C 
ATOM      8  H   UNL     1       5.887   8.833  -0.633  0.00  0.00    +0.000 HD
ATOM      9  H   UNL     1       7.539   8.213  -0.680  0.00  0.00    +0.000 HD
BRANCH   7  10
ATOM     10  C   UNL     1       6.675   8.281   1.284  0.00  0.00    +0.000 C 
ATOM     11  H   UNL     1       5.867   7.542   1.307  0.00  0.00    +0.000 HD
ATOM     12  H   UNL     1       7.596   7.788   1.612  0.00  0.00    +0.000 HD
ATOM     13  H   UNL     1       6.439   9.071   2.003  0.00  0.00    +0.000 HD
ENDBRANCH   7  10
ENDBRANCH   4   7
ENDBRANCH   1   4
BRANCH   1  14
ATOM     14  C   UNL     1       5.533  11.990   0.236  0.00  0.00    +0.000 C 
ATOM     15  H   UNL     1       5.583  13.070   0.060  0.00  0.00    +0.000 HD
ATOM     16  H   UNL     1       5.870  11.788   1.260  0.00  0.00    +0.000 HD
BRANCH  14  18
ATOM     17  O   UNL     1       3.341  11.596   1.126  0.00  0.00    +0.000 OA
ATOM     18  C   UNL     1       4.079  11.568   0.141  0.00  0.00    +0.000 C 
BRANCH  18  19
ATOM     19  C   UNL     1       3.568  11.131  -1.206  0.00  0.00    +0.000 C 
ATOM     20  H   UNL     1       3.605  11.972  -1.902  0.00  0.00    +0.000 HD
ATOM     21  H   UNL     1       4.181  10.306  -1.580  0.00  0.00    +0.000 HD
ATOM     22  H   UNL     1       2.534  10.788  -1.116  0.00  0.00    +0.000 HD
ENDBRANCH  18  19
ENDBRANCH  14  18
ENDBRANCH   1  14
TORSDOF 6
ENDMDL
MODEL 3
REMARK VINA RESULT:    -3.957     26.415     27.384
REMARK INTER + INTRA:          -5.222
REMARK INTER:                  -5.044
REMARK INTRA:                  -0.178
REMARK UNBOUND:                -0.109
REMARK  Name = 8051
REMARK  6 active torsions:
REMARK  status: ('A' for Active; 'I' for Inactive)
REMARK    1  A    between atoms: C_2  and  C_3
REMARK    2  A    between atoms: C_2  and  C_4
REMARK    3  A    between atoms: C_3  and  C_5
REMARK    4  A    between atoms: C_4  and  C_6
REMARK    5  A    between atoms: C_5  and  C_7
REMARK    6  A    between atoms: C_7  and  C_8
REMARK                            x       y       z     vdW  Elec       q    Type
REMARK                         _______ _______ _______ _____ _____    ______ ____
ROOT
ATOM      1  C   UNL     1     -20.789  -2.836   4.429  0.00  0.00    +0.000 C 
ATOM      2  H   UNL     1     -21.788  -2.998   4.004  0.00  0.00    +0.000 HD
ATOM      3  H   UNL     1     -20.105  -2.708   3.579  0.00  0.00    +0.000 HD
ENDROOT
BRANCH   1   4
ATOM      4  C   UNL     1     -20.793  -1.555   5.269  0.00  0.00    +0.000 C 
ATOM      5  H   UNL     1     -20.042  -0.858   4.878  0.00  0.00    +0.000 HD
ATOM      6  H   UNL     1     -21.770  -1.064   5.180  0.00  0.00    +0.000 HD
BRANCH   4   7
ATOM      7  C   UNL     1     -20.501  -1.857   6.739  0.00  0.00    +0.000 C 
ATOM      8  H   UNL     1     -21.004  -2.785   7.036  0.00  0.00    +0.000 HD
ATOM      9  H   UNL     1     -19.426  -2.010   6.882  0.00  0.00    +0.000 HD
BRANCH   7  10
ATOM     10  C   UNL     1     -20.972  -0.729   7.643  0.00  0.00    +0.000 C 
ATOM     11  H   UNL     1     -20.151  -0.356   8.265  0.00  0.00    +0.000 HD
ATOM     12  H   UNL     1     -21.349   0.105   7.042  0.00  0.00    +0.000 HD
ATOM     13  H   UNL     1     -21.779  -1.064   8.302  0.00  0.00    +0.000 HD
ENDBRANCH   7  10
ENDBRANCH   4   7
ENDBRANCH   1   4
BRANCH   1  14
ATOM     14  C   UNL     1     -20.374  -4.062   5.235  0.00  0.00    +0.000 C 
ATOM     15  H   UNL     1     -21.240  -4.710   5.403  0.00  0.00    +0.000 HD
ATOM     16  H   UNL     1     -19.978  -3.749   6.208  0.00  0.00    +0.000 HD
BRANCH  14  18
ATOM     17  O   UNL     1     -18.530  -5.595   5.194  0.00  0.00    +0.000 OA
ATOM     18  C   UNL     1     -19.301  -4.885   4.548  0.00  0.00    +0.000 C 
BRANCH  18  19
ATOM     19  C   UNL     1     -19.227  -4.817   3.045  0.00  0.00    +0.000 C 
ATOM     20  H   UNL     1     -18.469  -4.087   2.749  0.00  0.00    +0.000 HD
ATOM     21  H   UNL     1     -18.976  -5.804   2.646  0.00  0.00    +0.000 HD
ATOM     22  H   UNL     1     -20.195  -4.509   2.641  0.00  0.00    +0.000 HD
ENDBRANCH  18  19
ENDBRANCH  14  18
ENDBRANCH   1  14
TORSDOF 6
ENDMDL
MODEL 4
REMARK VINA RESULT:    -3.939      2.404      3.591
REMARK INTER + INTRA:          -5.199
REMARK INTER:                  -5.034
REMARK INTRA:                  -0.165
REMARK UNBOUND:                -0.109
REMARK  Name = 8051
REMARK  6 active torsions:
REMARK  status: ('A' for Active; 'I' for Inactive)
REMARK    1  A    between atoms: C_2  and  C_3
REMARK    2  A    between atoms: C_2  and  C_4
REMARK    3  A    between atoms: C_3  and  C_5
REMARK    4  A    between atoms: C_4  and  C_6
REMARK    5  A    between atoms: C_5  and  C_7
REMARK    6  A    between atoms: C_7  and  C_8
REMARK                            x       y       z     vdW  Elec       q    Type
REMARK                         _______ _______ _______ _____ _____    ______ ____
ROOT
ATOM      1  C   UNL     1      -3.434   7.472  -9.082  0.00  0.00    +0.000 C 
ATOM      2  H   UNL     1      -3.402   6.795  -8.219  0.00  0.00    +0.000 HD
ATOM      3  H   UNL     1      -4.494   7.676  -9.281  0.00  0.00    +0.000 HD
ENDROOT
BRANCH   1   4
ATOM      4  C   UNL     1      -2.727   8.784  -8.728  0.00  0.00    +0.000 C 
ATOM      5  H   UNL     1      -3.212   9.239  -7.856  0.00  0.00    +0.000 HD
ATOM      6  H   UNL     1      -1.687   8.575  -8.449  0.00  0.00    +0.000 HD
BRANCH   4   7
ATOM      7  C   UNL     1      -2.756   9.763  -9.902  0.00  0.00    +0.000 C 
ATOM      8  H   UNL     1      -3.384   9.362 -10.707  0.00  0.00    +0.000 HD
ATOM      9  H   UNL     1      -3.202  10.712  -9.585  0.00  0.00    +0.000 HD
BRANCH   7  10
ATOM     10  C   UNL     1      -1.360  10.022 -10.446  0.00  0.00    +0.000 C 
ATOM     11  H   UNL     1      -1.084   9.270 -11.192  0.00  0.00    +0.000 HD
ATOM     12  H   UNL     1      -1.316  11.006 -10.922  0.00  0.00    +0.000 HD
ATOM     13  H   UNL     1      -0.617  10.000  -9.643  0.00  0.00    +0.000 HD
ENDBRANCH   7  10
ENDBRANCH   4   7
ENDBRANCH   1   4
BRANCH   1  14
ATOM     14  C   UNL     1      -2.814   6.783 -10.293  0.00  0.00    +0.000 C 
ATOM     15  H   UNL     1      -2.600   5.735 -10.058  0.00  0.00    +0.000 HD
ATOM     16  H   UNL     1      -1.873   7.278 -10.560  0.00  0.00    +0.000 HD
BRANCH  14  18
ATOM     17  O   UNL     1      -4.936   6.761 -11.409  0.00  0.00    +0.000 OA
ATOM     18  C   UNL     1      -3.711   6.815 -11.515  0.00  0.00    +0.000 C 
BRANCH  18  19
ATOM     19  C   UNL     1      -3.048   6.934 -12.862  0.00  0.00    +0.000 C 
ATOM     20  H   UNL     1      -3.034   5.956 -13.350  0.00  0.00    +0.000 HD
ATOM     21  H   UNL     1      -3.594   7.654 -13.477  0.00  0.00    +0.000 HD
ATOM     22  H   UNL     1      -2.020   7.285 -12.739  0.00  0.00    +0.000 HD
ENDBRANCH  18  19
ENDBRANCH  14  18
ENDBRANCH   1  14
TORSDOF 6
ENDMDL
MODEL 5
REMARK VINA RESULT:    -3.871      1.553      2.418
REMARK INTER + INTRA:          -5.111
REMARK INTER:                  -4.881
REMARK INTRA:                  -0.230
REMARK UNBOUND:                -0.109
REMARK  Name = 8051
REMARK  6 active torsions:
REMARK  status: ('A' for Active; 'I' for Inactive)
REMARK    1  A    between atoms: C_2  and  C_3
REMARK    2  A    between atoms: C_2  and  C_4
REMARK    3  A    between atoms: C_3  and  C_5
REMARK    4  A    between atoms: C_4  and  C_6
REMARK    5  A    between atoms: C_5  and  C_7
REMARK    6  A    between atoms: C_7  and  C_8
REMARK                            x       y       z     vdW  Elec       q    Type
REMARK                         _______ _______ _______ _____ _____    ______ ____
ROOT
ATOM      1  C   UNL     1      -2.949   7.406 -11.041  0.00  0.00    +0.000 C 
ATOM      2  H   UNL     1      -3.821   7.160 -11.659  0.00  0.00    +0.000 HD
ATOM      3  H   UNL     1      -2.893   8.502 -11.002  0.00  0.00    +0.000 HD
ENDROOT
BRANCH   1   4
ATOM      4  C   UNL     1      -3.156   6.862  -9.624  0.00  0.00    +0.000 C 
ATOM      5  H   UNL     1      -4.086   6.282  -9.587  0.00  0.00    +0.000 HD
ATOM      6  H   UNL     1      -2.337   6.178  -9.373  0.00  0.00    +0.000 HD
BRANCH   4   7
ATOM      7  C   UNL     1      -3.212   7.994  -8.599  0.00  0.00    +0.000 C 
ATOM      8  H   UNL     1      -4.241   8.122  -8.240  0.00  0.00    +0.000 HD
ATOM      9  H   UNL     1      -2.594   7.741  -7.730  0.00  0.00    +0.000 HD
BRANCH   7  10
ATOM     10  C   UNL     1      -2.728   9.307  -9.193  0.00  0.00    +0.000 C 
ATOM     11  H   UNL     1      -1.791   9.628  -8.726  0.00  0.00    +0.000 HD
ATOM     12  H   UNL     1      -2.551   9.195 -10.267  0.00  0.00    +0.000 HD
ATOM     13  H   UNL     1      -3.471  10.099  -9.052  0.00  0.00    +0.000 HD
ENDBRANCH   7  10
ENDBRANCH   4   7
ENDBRANCH   1   4
BRANCH   1  14
ATOM     14  C   UNL     1      -1.687   6.857 -11.699  0.00  0.00    +0.000 C 
ATOM     15  H   UNL     1      -1.916   5.924 -12.225  0.00  0.00    +0.000 HD
ATOM     16  H   UNL     1      -0.931   6.649 -10.933  0.00  0.00    +0.000 HD
BRANCH  14  18
ATOM     17  O   UNL     1      -1.098   7.584 -13.907  0.00  0.00    +0.000 OA
ATOM     18  C   UNL     1      -1.075   7.819 -12.698  0.00  0.00    +0.000 C 
BRANCH  18  19
ATOM     19  C   UNL     1      -0.453   9.080 -12.159  0.00  0.00    +0.000 C 
ATOM     20  H   UNL     1      -1.216   9.675 -11.650  0.00  0.00    +0.000 HD
ATOM     21  H   UNL     1       0.351   8.824 -11.465  0.00  0.00    +0.000 HD
ATOM     22  H   UNL     1      -0.035   9.667 -12.982  0.00  0.00    +0.000 HD
ENDBRANCH  18  19
ENDBRANCH  14  18
ENDBRANCH   1  14
TORSDOF 6
ENDMDL
MODEL 6
REMARK VINA RESULT:    -3.782     14.074     14.983
REMARK INTER + INTRA:          -4.997
REMARK INTER:                  -4.764
REMARK INTRA:                  -0.232
REMARK UNBOUND:                -0.109
REMARK  Name = 8051
REMARK  6 active torsions:
REMARK  status: ('A' for Active; 'I' for Inactive)
REMARK    1  A    between atoms: C_2  and  C_3
REMARK    2  A    between atoms: C_2  and  C_4
REMARK    3  A    between atoms: C_3  and  C_5
REMARK    4  A    between atoms: C_4  and  C_6
REMARK    5  A    between atoms: C_5  and  C_7
REMARK    6  A    between atoms: C_7  and  C_8
REMARK                            x       y       z     vdW  Elec       q    Type
REMARK                         _______ _______ _______ _____ _____    ______ ____
ROOT
ATOM      1  C   UNL     1       5.957   8.346   1.317  0.00  0.00    +0.000 C 
ATOM      2  H   UNL     1       6.728   8.145   0.563  0.00  0.00    +0.000 HD
ATOM      3  H   UNL     1       5.205   7.553   1.214  0.00  0.00    +0.000 HD
ENDROOT
BRANCH   1   4
ATOM      4  C   UNL     1       6.577   8.274   2.715  0.00  0.00    +0.000 C 
ATOM      5  H   UNL     1       7.671   8.273   2.632  0.00  0.00    +0.000 HD
ATOM      6  H   UNL     1       6.296   9.168   3.285  0.00  0.00    +0.000 HD
BRANCH   4   7
ATOM      7  C   UNL     1       6.115   7.023   3.462  0.00  0.00    +0.000 C 
ATOM      8  H   UNL     1       5.474   6.416   2.812  0.00  0.00    +0.000 HD
ATOM      9  H   UNL     1       6.981   6.408   3.730  0.00  0.00    +0.000 HD
BRANCH   7  10
ATOM     10  C   UNL     1       5.344   7.380   4.723  0.00  0.00    +0.000 C 
ATOM     11  H   UNL     1       4.567   8.122   4.512  0.00  0.00    +0.000 HD
ATOM     12  H   UNL     1       4.861   6.490   5.137  0.00  0.00    +0.000 HD
ATOM     13  H   UNL     1       6.012   7.790   5.488  0.00  0.00    +0.000 HD
ENDBRANCH   7  10
ENDBRANCH   4   7
ENDBRANCH   1   4
BRANCH   1  14
ATOM     14  C   UNL     1       5.310   9.698   1.034  0.00  0.00    +0.000 C 
ATOM     15  H   UNL     1       5.251   9.865  -0.047  0.00  0.00    +0.000 HD
ATOM     16  H   UNL     1       5.914  10.498   1.477  0.00  0.00    +0.000 HD
BRANCH  14  18
ATOM     17  O   UNL     1       3.396  10.913   1.816  0.00  0.00    +0.000 OA
ATOM     18  C   UNL     1       3.909   9.814   1.602  0.00  0.00    +0.000 C 
BRANCH  18  19
ATOM     19  C   UNL     1       3.162   8.537   1.878  0.00  0.00    +0.000 C 
ATOM     20  H   UNL     1       2.369   8.409   1.137  0.00  0.00    +0.000 HD
ATOM     21  H   UNL     1       3.855   7.692   1.840  0.00  0.00    +0.000 HD
ATOM     22  H   UNL     1       2.713   8.578   2.875  0.00  0.00    +0.000 HD
ENDBRANCH  18  19
ENDBRANCH  14  18
ENDBRANCH   1  14
TORSDOF 6
ENDMDL
MODEL 7
REMARK VINA RESULT:    -3.778      1.619      2.421
REMARK INTER + INTRA:          -4.991
REMARK INTER:                  -4.703
REMARK INTRA:                  -0.288
REMARK UNBOUND:                -0.109
REMARK  Name = 8051
REMARK  6 active torsions:
REMARK  status: ('A' for Active; 'I' for Inactive)
REMARK    1  A    between atoms: C_2  and  C_3
REMARK    2  A    between atoms: C_2  and  C_4
REMARK    3  A    between atoms: C_3  and  C_5
REMARK    4  A    between atoms: C_4  and  C_6
REMARK    5  A    between atoms: C_5  and  C_7
REMARK    6  A    between atoms: C_7  and  C_8
REMARK                            x       y       z     vdW  Elec       q    Type
REMARK                         _______ _______ _______ _____ _____    ______ ____
ROOT
ATOM      1  C   UNL     1      -1.606   6.872 -11.574  0.00  0.00    +0.000 C 
ATOM      2  H   UNL     1      -1.533   7.047 -10.493  0.00  0.00    +0.000 HD
ATOM      3  H   UNL     1      -1.231   5.856 -11.751  0.00  0.00    +0.000 HD
ENDROOT
BRANCH   1   4
ATOM      4  C   UNL     1      -3.073   6.950 -12.006  0.00  0.00    +0.000 C 
ATOM      5  H   UNL     1      -3.226   7.841 -12.627  0.00  0.00    +0.000 HD
ATOM      6  H   UNL     1      -3.318   6.078 -12.624  0.00  0.00    +0.000 HD
BRANCH   4   7
ATOM      7  C   UNL     1      -4.005   6.999 -10.794  0.00  0.00    +0.000 C 
ATOM      8  H   UNL     1      -4.518   7.968 -10.757  0.00  0.00    +0.000 HD
ATOM      9  H   UNL     1      -4.776   6.227 -10.886  0.00  0.00    +0.000 HD
BRANCH   7  10
ATOM     10  C   UNL     1      -3.242   6.793  -9.496  0.00  0.00    +0.000 C 
ATOM     11  H   UNL     1      -2.864   5.768  -9.421  0.00  0.00    +0.000 HD
ATOM     12  H   UNL     1      -2.387   7.475  -9.447  0.00  0.00    +0.000 HD
ATOM     13  H   UNL     1      -3.882   6.989  -8.630  0.00  0.00    +0.000 HD
ENDBRANCH   7  10
ENDBRANCH   4   7
ENDBRANCH   1   4
BRANCH   1  14
ATOM     14  C   UNL     1      -0.725   7.874 -12.313  0.00  0.00    +0.000 C 
ATOM     15  H   UNL     1      -0.921   7.820 -13.389  0.00  0.00    +0.000 HD
ATOM     16  H   UNL     1       0.331   7.638 -12.139  0.00  0.00    +0.000 HD
BRANCH  14  18
ATOM     17  O   UNL     1      -1.163   9.580 -10.685  0.00  0.00    +0.000 OA
ATOM     18  C   UNL     1      -0.955   9.305 -11.867  0.00  0.00    +0.000 C 
BRANCH  18  19
ATOM     19  C   UNL     1      -0.900  10.379 -12.920  0.00  0.00    +0.000 C 
ATOM     20  H   UNL     1      -1.888  10.500 -13.372  0.00  0.00    +0.000 HD
ATOM     21  H   UNL     1      -0.575  11.320 -12.468  0.00  0.00    +0.000 HD
ATOM     22  H   UNL     1      -0.185  10.098 -13.699  0.00  0.00    +0.000 HD
ENDBRANCH  18  19
ENDBRANCH  14  18
ENDBRANCH   1  14
TORSDOF 6
ENDMDL
MODEL 8
REMARK VINA RESULT:    -3.774     13.546     14.289
REMARK INTER + INTRA:          -4.987
REMARK INTER:                  -4.776
REMARK INTRA:                  -0.211
REMARK UNBOUND:                -0.109
REMARK  Name = 8051
REMARK  6 active torsions:
REMARK  status: ('A' for Active; 'I' for Inactive)
REMARK    1  A    between atoms: C_2  and  C_3
REMARK    2  A    between atoms: C_2  and  C_4
REMARK    3  A    between atoms: C_3  and  C_5
REMARK    4  A    between atoms: C_4  and  C_6
REMARK    5  A    between atoms: C_5  and  C_7
REMARK    6  A    between atoms: C_7  and  C_8
REMARK                            x       y       z     vdW  Elec       q    Type
REMARK                         _______ _______ _______ _____ _____    ______ ____
ROOT
ATOM      1  C   UNL     1       5.775   8.712   0.475  0.00  0.00    +0.000 C 
ATOM      2  H   UNL     1       6.396   9.176  -0.301  0.00  0.00    +0.000 HD
ATOM      3  H   UNL     1       5.280   7.851   0.006  0.00  0.00    +0.000 HD
ENDROOT
BRANCH   1   4
ATOM      4  C   UNL     1       6.667   8.219   1.618  0.00  0.00    +0.000 C 
ATOM      5  H   UNL     1       7.048   7.218   1.381  0.00  0.00    +0.000 HD
ATOM      6  H   UNL     1       7.535   8.882   1.714  0.00  0.00    +0.000 HD
BRANCH   4   7
ATOM      7  C   UNL     1       5.902   8.180   2.941  0.00  0.00    +0.000 C 
ATOM      8  H   UNL     1       6.406   8.813   3.682  0.00  0.00    +0.000 HD
ATOM      9  H   UNL     1       4.894   8.586   2.800  0.00  0.00    +0.000 HD
BRANCH   7  10
ATOM     10  C   UNL     1       5.801   6.764   3.484  0.00  0.00    +0.000 C 
ATOM     11  H   UNL     1       6.780   6.274   3.487  0.00  0.00    +0.000 HD
ATOM     12  H   UNL     1       5.425   6.779   4.512  0.00  0.00    +0.000 HD
ATOM     13  H   UNL     1       5.116   6.161   2.881  0.00  0.00    +0.000 HD
ENDBRANCH   7  10
ENDBRANCH   4   7
ENDBRANCH   1   4
BRANCH   1  14
ATOM     14  C   UNL     1       4.720   9.708   0.945  0.00  0.00    +0.000 C 
ATOM     15  H   UNL     1       4.714   9.757   2.040  0.00  0.00    +0.000 HD
ATOM     16  H   UNL     1       3.728   9.385   0.607  0.00  0.00    +0.000 HD
BRANCH  14  18
ATOM     17  O   UNL     1       4.154  12.019   0.645  0.00  0.00    +0.000 OA
ATOM     18  C   UNL     1       4.952  11.109   0.415  0.00  0.00    +0.000 C 
BRANCH  18  19
ATOM     19  C   UNL     1       6.202  11.352  -0.387  0.00  0.00    +0.000 C 
ATOM     20  H   UNL     1       6.908  11.940   0.205  0.00  0.00    +0.000 HD
ATOM     21  H   UNL     1       6.650  10.394  -0.666  0.00  0.00    +0.000 HD
ATOM     22  H   UNL     1       5.956  11.904  -1.298  0.00  0.00    +0.000 HD
ENDBRANCH  18  19
ENDBRANCH  14  18
ENDBRANCH   1  14
TORSDOF 6
ENDMDL
MODEL 9
REMARK VINA RESULT:    -3.757     27.332     28.277
REMARK INTER + INTRA:          -4.964
REMARK INTER:                  -4.734
REMARK INTRA:                  -0.230
REMARK UNBOUND:                -0.109
REMARK  Name = 8051
REMARK  6 active torsions:
REMARK  status: ('A' for Active; 'I' for Inactive)
REMARK    1  A    between atoms: C_2  and  C_3
REMARK    2  A    between atoms: C_2  and  C_4
REMARK    3  A    between atoms: C_3  and  C_5
REMARK    4  A    between atoms: C_4  and  C_6
REMARK    5  A    between atoms: C_5  and  C_7
REMARK    6  A    between atoms: C_7  and  C_8
REMARK                            x       y       z     vdW  Elec       q    Type
REMARK                         _______ _______ _______ _____ _____    ______ ____
ROOT
ATOM      1  C   UNL     1     -20.696  -1.279   5.522  0.00  0.00    +0.000 C 
ATOM      2  H   UNL     1     -19.909  -0.712   5.010  0.00  0.00    +0.000 HD
ATOM      3  H   UNL     1     -21.593  -0.645   5.513  0.00  0.00    +0.000 HD
ENDROOT
BRANCH   1   4
ATOM      4  C   UNL     1     -20.984  -2.569   4.748  0.00  0.00    +0.000 C 
ATOM      5  H   UNL     1     -22.066  -2.686   4.619  0.00  0.00    +0.000 HD
ATOM      6  H   UNL     1     -20.543  -2.498   3.746  0.00  0.00    +0.000 HD
BRANCH   4   7
ATOM      7  C   UNL     1     -20.416  -3.789   5.474  0.00  0.00    +0.000 C 
ATOM      8  H   UNL     1     -19.633  -3.474   6.175  0.00  0.00    +0.000 HD
ATOM      9  H   UNL     1     -21.204  -4.272   6.062  0.00  0.00    +0.000 HD
BRANCH   7  10
ATOM     10  C   UNL     1     -19.830  -4.795   4.497  0.00  0.00    +0.000 C 
ATOM     11  H   UNL     1     -20.492  -5.660   4.380  0.00  0.00    +0.000 HD
ATOM     12  H   UNL     1     -19.697  -4.334   3.513  0.00  0.00    +0.000 HD
ATOM     13  H   UNL     1     -18.854  -5.152   4.839  0.00  0.00    +0.000 HD
ENDBRANCH   7  10
ENDBRANCH   4   7
ENDBRANCH   1   4
BRANCH   1  14
ATOM     14  C   UNL     1     -20.276  -1.545   6.964  0.00  0.00    +0.000 C 
ATOM     15  H   UNL     1     -19.424  -0.910   7.228  0.00  0.00    +0.000 HD
ATOM     16  H   UNL     1     -19.977  -2.593   7.076  0.00  0.00    +0.000 HD
BRANCH  14  18
ATOM     17  O   UNL     1     -21.572  -0.149   8.421  0.00  0.00    +0.000 OA
ATOM     18  C   UNL     1     -21.386  -1.276   7.962  0.00  0.00    +0.000 C 
BRANCH  18  19
ATOM     19  C   UNL     1     -22.262  -2.435   8.357  0.00  0.00    +0.000 C 
ATOM     20  H   UNL     1     -21.762  -3.374   8.107  0.00  0.00    +0.000 HD
ATOM     21  H   UNL     1     -22.467  -2.390   9.430  0.00  0.00    +0.000 HD
ATOM     22  H   UNL     1     -23.211  -2.382   7.815  0.00  0.00    +0.000 HD
ENDBRANCH  18  19
ENDBRANCH  14  18
ENDBRANCH   1  14
TORSDOF 6
ENDMDL
MODEL 10
REMARK VINA RESULT:    -3.663     26.282     27.437
REMARK INTER + INTRA:          -4.843
REMARK INTER:                  -4.734
REMARK INTRA:                  -0.109
REMARK UNBOUND:                -0.109
REMARK  Name = 8051
REMARK  6 active torsions:
REMARK  status: ('A' for Active; 'I' for Inactive)
REMARK    1  A    between atoms: C_2  and  C_3
REMARK    2  A    between atoms: C_2  and  C_4
REMARK    3  A    between atoms: C_3  and  C_5
REMARK    4  A    between atoms: C_4  and  C_6
REMARK    5  A    between atoms: C_5  and  C_7
REMARK    6  A    between atoms: C_7  and  C_8
REMARK                            x       y       z     vdW  Elec       q    Type
REMARK                         _______ _______ _______ _____ _____    ______ ____
ROOT
ATOM      1  C   UNL     1     -20.702  -2.990   5.198  0.00  0.00    +0.000 C 
ATOM      2  H   UNL     1     -20.144  -2.227   4.640  0.00  0.00    +0.000 HD
ATOM      3  H   UNL     1     -21.725  -2.981   4.801  0.00  0.00    +0.000 HD
ENDROOT
BRANCH   1   4
ATOM      4  C   UNL     1     -20.077  -4.366   4.949  0.00  0.00    +0.000 C 
ATOM      5  H   UNL     1     -19.108  -4.427   5.459  0.00  0.00    +0.000 HD
ATOM      6  H   UNL     1     -20.720  -5.142   5.380  0.00  0.00    +0.000 HD
BRANCH   4   7
ATOM      7  C   UNL     1     -19.889  -4.626   3.453  0.00  0.00    +0.000 C 
ATOM      8  H   UNL     1     -20.574  -5.417   3.124  0.00  0.00    +0.000 HD
ATOM      9  H   UNL     1     -20.138  -3.723   2.884  0.00  0.00    +0.000 HD
BRANCH   7  10
ATOM     10  C   UNL     1     -18.462  -5.041   3.135  0.00  0.00    +0.000 C 
ATOM     11  H   UNL     1     -18.161  -4.686   2.144  0.00  0.00    +0.000 HD
ATOM     12  H   UNL     1     -17.772  -4.618   3.872  0.00  0.00    +0.000 HD
ATOM     13  H   UNL     1     -18.357  -6.130   3.158  0.00  0.00    +0.000 HD
ENDBRANCH   7  10
ENDBRANCH   4   7
ENDBRANCH   1   4
BRANCH   1  14
ATOM     14  C   UNL     1     -20.729  -2.620   6.677  0.00  0.00    +0.000 C 
ATOM     15  H   UNL     1     -19.859  -3.050   7.186  0.00  0.00    +0.000 HD
ATOM     16  H   UNL     1     -21.637  -3.020   7.143  0.00  0.00    +0.000 HD
BRANCH  14  18
ATOM     17  O   UNL     1     -20.960  -0.648   8.023  0.00  0.00    +0.000 OA
ATOM     18  C   UNL     1     -20.714  -1.122   6.913  0.00  0.00    +0.000 C 
BRANCH  18  19
ATOM     19  C   UNL     1     -20.371  -0.237   5.745  0.00  0.00    +0.000 C 
ATOM     20  H   UNL     1     -19.523   0.400   6.005  0.00  0.00    +0.000 HD
ATOM     21  H   UNL     1     -20.126  -0.855   4.877  0.00  0.00    +0.000 HD
ATOM     22  H   UNL     1     -21.228   0.395   5.495  0.00  0.00    +0.000 HD
ENDBRANCH  18  19
ENDBRANCH  14  18
ENDBRANCH   1  14
TORSDOF 6
ENDMDL
