MODEL 1
REMARK VINA RESULT:    -4.304      0.000      0.000
REMARK INTER + INTRA:          -6.473
REMARK INTER:                  -6.279
REMARK INTRA:                  -0.194
REMARK UNBOUND:                -0.533
REMARK  Name = 20083
REMARK  8 active torsions:
REMARK  status: ('A' for Active; 'I' for Inactive)
REMARK    1  A    between atoms: O_1  and  C_6
REMARK    2  A    between atoms: C_2  and  C_3
REMARK    3  A    between atoms: C_2  and  C_4
REMARK    4  A    between atoms: C_3  and  C_5
REMARK    5  A    between atoms: C_4  and  C_6
REMARK    6  A    between atoms: C_5  and  C_7
REMARK    7  A    between atoms: C_6  and  C_8
REMARK    8  A    between atoms: C_7  and  C_9
REMARK                            x       y       z     vdW  Elec       q    Type
REMARK                         _______ _______ _______ _____ _____    ______ ____
ROOT
ATOM      1  C   UNL     1     -20.376  -3.670   5.561  0.00  0.00    +0.000 C 
ATOM      2  H   UNL     1     -20.599  -4.127   6.533  0.00  0.00    +0.000 HD
ATOM      3  H   UNL     1     -19.352  -3.281   5.611  0.00  0.00    +0.000 HD
ENDROOT
BRANCH   1   4
ATOM      4  C   UNL     1     -21.328  -2.499   5.311  0.00  0.00    +0.000 C 
ATOM      5  H   UNL     1     -22.179  -2.567   6.000  0.00  0.00    +0.000 HD
ATOM      6  H   UNL     1     -21.737  -2.579   4.295  0.00  0.00    +0.000 HD
BRANCH   4   7
ATOM      7  C   UNL     1     -20.664  -1.129   5.472  0.00  0.00    +0.000 C 
ATOM      8  H   UNL     1     -19.829  -1.048   4.765  0.00  0.00    +0.000 HD
ATOM      9  H   UNL     1     -21.387  -0.350   5.197  0.00  0.00    +0.000 HD
BRANCH   7  10
ATOM     10  C   UNL     1     -20.157  -0.862   6.890  0.00  0.00    +0.000 C 
ATOM     11  H   UNL     1     -19.453  -1.648   7.187  0.00  0.00    +0.000 HD
ATOM     12  H   UNL     1     -19.611   0.089   6.915  0.00  0.00    +0.000 HD
BRANCH  10  13
ATOM     13  C   UNL     1     -21.303  -0.815   7.890  0.00  0.00    +0.000 C 
ATOM     14  H   UNL     1     -21.806  -1.785   7.955  0.00  0.00    +0.000 HD
ATOM     15  H   UNL     1     -20.926  -0.560   8.885  0.00  0.00    +0.000 HD
ATOM     16  H   UNL     1     -22.042  -0.061   7.603  0.00  0.00    +0.000 HD
ENDBRANCH  10  13
ENDBRANCH   7  10
ENDBRANCH   4   7
ENDBRANCH   1   4
BRANCH   1  17
ATOM     17  C   UNL     1     -20.493  -4.726   4.454  0.00  0.00    +0.000 C 
ATOM     18  H   UNL     1     -21.361  -5.367   4.647  0.00  0.00    +0.000 HD
ATOM     19  H   UNL     1     -20.669  -4.210   3.501  0.00  0.00    +0.000 HD
BRANCH  17  20
ATOM     20  C   UNL     1     -19.230  -5.584   4.339  0.00  0.00    +0.000 C 
ATOM     21  H   UNL     1     -19.493  -6.621   4.098  0.00  0.00    +0.000 HD
BRANCH  20  22
ATOM     22  C   UNL     1     -18.295  -5.048   3.264  0.00  0.00    +0.000 C 
ATOM     23  H   UNL     1     -18.283  -5.720   2.399  0.00  0.00    +0.000 HD
ATOM     24  H   UNL     1     -17.264  -4.993   3.632  0.00  0.00    +0.000 HD
ATOM     25  H   UNL     1     -18.602  -4.053   2.930  0.00  0.00    +0.000 HD
ENDBRANCH  20  22
BRANCH  20  26
ATOM     26  O   UNL     1     -18.546  -5.580   5.589  0.00  0.00    +0.000 OA
ATOM     27  H   UNL     1     -18.607  -4.684   5.958  0.00  0.00    +0.000 HD
ENDBRANCH  20  26
ENDBRANCH  17  20
ENDBRANCH   1  17
TORSDOF 8
ENDMDL
MODEL 2
REMARK VINA RESULT:    -4.150     25.634     27.093
REMARK INTER + INTRA:          -6.260
REMARK INTER:                  -5.746
REMARK INTRA:                  -0.513
REMARK UNBOUND:                -0.533
REMARK  Name = 20083
REMARK  8 active torsions:
REMARK  status: ('A' for Active; 'I' for Inactive)
REMARK    1  A    between atoms: O_1  and  C_6
REMARK    2  A    between atoms: C_2  and  C_3
REMARK    3  A    between atoms: C_2  and  C_4
REMARK    4  A    between atoms: C_3  and  C_5
REMARK    5  A    between atoms: C_4  and  C_6
REMARK    6  A    between atoms: C_5  and  C_7
REMARK    7  A    between atoms: C_6  and  C_8
REMARK    8  A    between atoms: C_7  and  C_9
REMARK                            x       y       z     vdW  Elec       q    Type
REMARK                         _______ _______ _______ _____ _____    ______ ____
ROOT
ATOM      1  C   UNL     1      -2.668   9.819  -9.870  0.00  0.00    +0.000 C 
ATOM      2  H   UNL     1      -3.099  10.765  -9.523  0.00  0.00    +0.000 HD
ATOM      3  H   UNL     1      -3.290   9.461 -10.698  0.00  0.00    +0.000 HD
ENDROOT
BRANCH   1   4
ATOM      4  C   UNL     1      -2.720   8.785  -8.743  0.00  0.00    +0.000 C 
ATOM      5  H   UNL     1      -3.203   9.228  -7.863  0.00  0.00    +0.000 HD
ATOM      6  H   UNL     1      -1.696   8.527  -8.445  0.00  0.00    +0.000 HD
BRANCH   4   7
ATOM      7  C   UNL     1      -3.463   7.502  -9.127  0.00  0.00    +0.000 C 
ATOM      8  H   UNL     1      -3.492   6.830  -8.261  0.00  0.00    +0.000 HD
ATOM      9  H   UNL     1      -4.504   7.754  -9.366  0.00  0.00    +0.000 HD
BRANCH   7  10
ATOM     10  C   UNL     1      -2.839   6.771 -10.317  0.00  0.00    +0.000 C 
ATOM     11  H   UNL     1      -1.886   7.242 -10.583  0.00  0.00    +0.000 HD
ATOM     12  H   UNL     1      -2.623   5.732 -10.042  0.00  0.00    +0.000 HD
BRANCH  10  13
ATOM     13  C   UNL     1      -3.761   6.793 -11.527  0.00  0.00    +0.000 C 
ATOM     14  H   UNL     1      -3.976   7.821 -11.837  0.00  0.00    +0.000 HD
ATOM     15  H   UNL     1      -3.292   6.275 -12.369  0.00  0.00    +0.000 HD
ATOM     16  H   UNL     1      -4.710   6.294 -11.306  0.00  0.00    +0.000 HD
ENDBRANCH  10  13
ENDBRANCH   7  10
ENDBRANCH   4   7
ENDBRANCH   1   4
BRANCH   1  17
ATOM     17  C   UNL     1      -1.228  10.049 -10.344  0.00  0.00    +0.000 C 
ATOM     18  H   UNL     1      -0.879  11.029 -10.001  0.00  0.00    +0.000 HD
ATOM     19  H   UNL     1      -0.585   9.289  -9.881  0.00  0.00    +0.000 HD
BRANCH  17  20
ATOM     20  C   UNL     1      -1.100   9.959 -11.868  0.00  0.00    +0.000 C 
ATOM     21  H   UNL     1      -0.587  10.844 -12.262  0.00  0.00    +0.000 HD
BRANCH  20  22
ATOM     22  C   UNL     1      -0.331   8.713 -12.285  0.00  0.00    +0.000 C 
ATOM     23  H   UNL     1       0.742   8.856 -12.120  0.00  0.00    +0.000 HD
ATOM     24  H   UNL     1      -0.459   8.512 -13.354  0.00  0.00    +0.000 HD
ATOM     25  H   UNL     1      -0.659   7.836 -11.720  0.00  0.00    +0.000 HD
ENDBRANCH  20  22
BRANCH  20  26
ATOM     26  O   UNL     1      -2.403   9.911 -12.444  0.00  0.00    +0.000 OA
ATOM     27  H   UNL     1      -2.801  10.792 -12.354  0.00  0.00    +0.000 HD
ENDBRANCH  20  26
ENDBRANCH  17  20
ENDBRANCH   1  17
TORSDOF 8
ENDMDL
MODEL 3
REMARK VINA RESULT:    -3.911     25.605     26.990
REMARK INTER + INTRA:          -5.930
REMARK INTER:                  -5.501
REMARK INTRA:                  -0.429
REMARK UNBOUND:                -0.533
REMARK  Name = 20083
REMARK  8 active torsions:
REMARK  status: ('A' for Active; 'I' for Inactive)
REMARK    1  A    between atoms: O_1  and  C_6
REMARK    2  A    between atoms: C_2  and  C_3
REMARK    3  A    between atoms: C_2  and  C_4
REMARK    4  A    between atoms: C_3  and  C_5
REMARK    5  A    between atoms: C_4  and  C_6
REMARK    6  A    between atoms: C_5  and  C_7
REMARK    7  A    between atoms: C_6  and  C_8
REMARK    8  A    between atoms: C_7  and  C_9
REMARK                            x       y       z     vdW  Elec       q    Type
REMARK                         _______ _______ _______ _____ _____    ______ ____
ROOT
ATOM      1  C   UNL     1      -3.112   6.868 -12.003  0.00  0.00    +0.000 C 
ATOM      2  H   UNL     1      -3.402   7.461 -12.879  0.00  0.00    +0.000 HD
ATOM      3  H   UNL     1      -3.430   5.836 -12.189  0.00  0.00    +0.000 HD
ENDROOT
BRANCH   1   4
ATOM      4  C   UNL     1      -3.846   7.385 -10.764  0.00  0.00    +0.000 C 
ATOM      5  H   UNL     1      -4.793   6.843 -10.648  0.00  0.00    +0.000 HD
ATOM      6  H   UNL     1      -4.103   8.442 -10.914  0.00  0.00    +0.000 HD
BRANCH   4   7
ATOM      7  C   UNL     1      -3.032   7.251  -9.474  0.00  0.00    +0.000 C 
ATOM      8  H   UNL     1      -3.536   6.543  -8.803  0.00  0.00    +0.000 HD
ATOM      9  H   UNL     1      -2.054   6.815  -9.716  0.00  0.00    +0.000 HD
BRANCH   7  10
ATOM     10  C   UNL     1      -2.821   8.579  -8.746  0.00  0.00    +0.000 C 
ATOM     11  H   UNL     1      -3.598   8.713  -7.985  0.00  0.00    +0.000 HD
ATOM     12  H   UNL     1      -1.856   8.567  -8.227  0.00  0.00    +0.000 HD
BRANCH  10  13
ATOM     13  C   UNL     1      -2.862   9.754  -9.712  0.00  0.00    +0.000 C 
ATOM     14  H   UNL     1      -3.672  10.444  -9.456  0.00  0.00    +0.000 HD
ATOM     15  H   UNL     1      -1.919  10.307  -9.674  0.00  0.00    +0.000 HD
ATOM     16  H   UNL     1      -3.013   9.410 -10.740  0.00  0.00    +0.000 HD
ENDBRANCH  10  13
ENDBRANCH   7  10
ENDBRANCH   4   7
ENDBRANCH   1   4
BRANCH   1  17
ATOM     17  C   UNL     1      -1.591   6.934 -11.815  0.00  0.00    +0.000 C 
ATOM     18  H   UNL     1      -1.360   7.280 -10.802  0.00  0.00    +0.000 HD
ATOM     19  H   UNL     1      -1.186   5.920 -11.919  0.00  0.00    +0.000 HD
BRANCH  17  20
ATOM     20  C   UNL     1      -0.922   7.854 -12.842  0.00  0.00    +0.000 C 
ATOM     21  H   UNL     1      -0.583   7.275 -13.709  0.00  0.00    +0.000 HD
BRANCH  20  22
ATOM     22  C   UNL     1      -1.877   8.941 -13.313  0.00  0.00    +0.000 C 
ATOM     23  H   UNL     1      -1.405   9.552 -14.090  0.00  0.00    +0.000 HD
ATOM     24  H   UNL     1      -2.134   9.621 -12.493  0.00  0.00    +0.000 HD
ATOM     25  H   UNL     1      -2.799   8.514 -13.717  0.00  0.00    +0.000 HD
ENDBRANCH  20  22
BRANCH  20  26
ATOM     26  O   UNL     1       0.218   8.468 -12.247  0.00  0.00    +0.000 OA
ATOM     27  H   UNL     1       0.999   7.944 -12.491  0.00  0.00    +0.000 HD
ENDBRANCH  20  26
ENDBRANCH  17  20
ENDBRANCH   1  17
TORSDOF 8
ENDMDL
MODEL 4
REMARK VINA RESULT:    -3.899     25.836     27.344
REMARK INTER + INTRA:          -5.914
REMARK INTER:                  -5.612
REMARK INTRA:                  -0.301
REMARK UNBOUND:                -0.533
REMARK  Name = 20083
REMARK  8 active torsions:
REMARK  status: ('A' for Active; 'I' for Inactive)
REMARK    1  A    between atoms: O_1  and  C_6
REMARK    2  A    between atoms: C_2  and  C_3
REMARK    3  A    between atoms: C_2  and  C_4
REMARK    4  A    between atoms: C_3  and  C_5
REMARK    5  A    between atoms: C_4  and  C_6
REMARK    6  A    between atoms: C_5  and  C_7
REMARK    7  A    between atoms: C_6  and  C_8
REMARK    8  A    between atoms: C_7  and  C_9
REMARK                            x       y       z     vdW  Elec       q    Type
REMARK                         _______ _______ _______ _____ _____    ______ ____
ROOT
ATOM      1  C   UNL     1      -2.677   9.753 -10.164  0.00  0.00    +0.000 C 
ATOM      2  H   UNL     1      -3.219   9.462 -11.072  0.00  0.00    +0.000 HD
ATOM      3  H   UNL     1      -3.151  10.664  -9.780  0.00  0.00    +0.000 HD
ENDROOT
BRANCH   1   4
ATOM      4  C   UNL     1      -1.222  10.074 -10.513  0.00  0.00    +0.000 C 
ATOM      5  H   UNL     1      -0.565   9.316 -10.068  0.00  0.00    +0.000 HD
ATOM      6  H   UNL     1      -0.948  11.035 -10.060  0.00  0.00    +0.000 HD
BRANCH   4   7
ATOM      7  C   UNL     1      -0.957  10.142 -12.019  0.00  0.00    +0.000 C 
ATOM      8  H   UNL     1      -1.914  10.227 -12.550  0.00  0.00    +0.000 HD
ATOM      9  H   UNL     1      -0.392  11.057 -12.239  0.00  0.00    +0.000 HD
BRANCH   7  10
ATOM     10  C   UNL     1      -0.184   8.936 -12.556  0.00  0.00    +0.000 C 
ATOM     11  H   UNL     1       0.722   8.781 -11.959  0.00  0.00    +0.000 HD
ATOM     12  H   UNL     1      -0.796   8.031 -12.460  0.00  0.00    +0.000 HD
BRANCH  10  13
ATOM     13  C   UNL     1       0.207   9.132 -14.013  0.00  0.00    +0.000 C 
ATOM     14  H   UNL     1       0.078  10.176 -14.317  0.00  0.00    +0.000 HD
ATOM     15  H   UNL     1       1.256   8.860 -14.163  0.00  0.00    +0.000 HD
ATOM     16  H   UNL     1      -0.404   8.504 -14.670  0.00  0.00    +0.000 HD
ENDBRANCH  10  13
ENDBRANCH   7  10
ENDBRANCH   4   7
ENDBRANCH   1   4
BRANCH   1  17
ATOM     17  C   UNL     1      -2.763   8.627  -9.127  0.00  0.00    +0.000 C 
ATOM     18  H   UNL     1      -1.757   8.364  -8.783  0.00  0.00    +0.000 HD
ATOM     19  H   UNL     1      -3.322   8.999  -8.258  0.00  0.00    +0.000 HD
BRANCH  17  20
ATOM     20  C   UNL     1      -3.462   7.382  -9.683  0.00  0.00    +0.000 C 
ATOM     21  H   UNL     1      -4.447   7.646 -10.088  0.00  0.00    +0.000 HD
BRANCH  20  22
ATOM     22  C   UNL     1      -2.634   6.728 -10.780  0.00  0.00    +0.000 C 
ATOM     23  H   UNL     1      -2.358   5.708 -10.491  0.00  0.00    +0.000 HD
ATOM     24  H   UNL     1      -1.697   7.272 -10.941  0.00  0.00    +0.000 HD
ATOM     25  H   UNL     1      -3.185   6.688 -11.724  0.00  0.00    +0.000 HD
ENDBRANCH  20  22
BRANCH  20  26
ATOM     26  O   UNL     1      -3.655   6.444  -8.628  0.00  0.00    +0.000 OA
ATOM     27  H   UNL     1      -3.498   5.555  -8.988  0.00  0.00    +0.000 HD
ENDBRANCH  20  26
ENDBRANCH  17  20
ENDBRANCH   1  17
TORSDOF 8
ENDMDL
MODEL 5
REMARK VINA RESULT:    -3.822     17.338     18.588
REMARK INTER + INTRA:          -5.807
REMARK INTER:                  -5.644
REMARK INTRA:                  -0.163
REMARK UNBOUND:                -0.533
REMARK  Name = 20083
REMARK  8 active torsions:
REMARK  status: ('A' for Active; 'I' for Inactive)
REMARK    1  A    between atoms: O_1  and  C_6
REMARK    2  A    between atoms: C_2  and  C_3
REMARK    3  A    between atoms: C_2  and  C_4
REMARK    4  A    between atoms: C_3  and  C_5
REMARK    5  A    between atoms: C_4  and  C_6
REMARK    6  A    between atoms: C_5  and  C_7
REMARK    7  A    between atoms: C_6  and  C_8
REMARK    8  A    between atoms: C_7  and  C_9
REMARK                            x       y       z     vdW  Elec       q    Type
REMARK                         _______ _______ _______ _____ _____    ______ ____
ROOT
ATOM      1  C   UNL     1      -8.685   9.547   7.320  0.00  0.00    +0.000 C 
ATOM      2  H   UNL     1      -7.814   8.931   7.067  0.00  0.00    +0.000 HD
ATOM      3  H   UNL     1      -9.534   9.166   6.741  0.00  0.00    +0.000 HD
ENDROOT
BRANCH   1   4
ATOM      4  C   UNL     1      -8.428  10.998   6.908  0.00  0.00    +0.000 C 
ATOM      5  H   UNL     1      -7.411  11.286   7.202  0.00  0.00    +0.000 HD
ATOM      6  H   UNL     1      -9.114  11.654   7.458  0.00  0.00    +0.000 HD
BRANCH   4   7
ATOM      7  C   UNL     1      -8.602  11.244   5.407  0.00  0.00    +0.000 C 
ATOM      8  H   UNL     1      -9.088  10.371   4.952  0.00  0.00    +0.000 HD
ATOM      9  H   UNL     1      -9.282  12.094   5.264  0.00  0.00    +0.000 HD
BRANCH   7  10
ATOM     10  C   UNL     1      -7.287  11.528   4.680  0.00  0.00    +0.000 C 
ATOM     11  H   UNL     1      -6.546  10.763   4.940  0.00  0.00    +0.000 HD
ATOM     12  H   UNL     1      -7.443  11.474   3.596  0.00  0.00    +0.000 HD
BRANCH  10  13
ATOM     13  C   UNL     1      -6.736  12.899   5.045  0.00  0.00    +0.000 C 
ATOM     14  H   UNL     1      -6.038  13.256   4.281  0.00  0.00    +0.000 HD
ATOM     15  H   UNL     1      -7.552  13.624   5.126  0.00  0.00    +0.000 HD
ATOM     16  H   UNL     1      -6.212  12.868   6.005  0.00  0.00    +0.000 HD
ENDBRANCH  10  13
ENDBRANCH   7  10
ENDBRANCH   4   7
ENDBRANCH   1   4
BRANCH   1  17
ATOM     17  C   UNL     1      -8.974   9.441   8.823  0.00  0.00    +0.000 C 
ATOM     18  H   UNL     1      -9.052  10.445   9.255  0.00  0.00    +0.000 HD
ATOM     19  H   UNL     1      -9.945   8.947   8.955  0.00  0.00    +0.000 HD
BRANCH  17  20
ATOM     20  C   UNL     1      -7.896   8.642   9.563  0.00  0.00    +0.000 C 
ATOM     21  H   UNL     1      -7.458   7.886   8.900  0.00  0.00    +0.000 HD
BRANCH  20  22
ATOM     22  C   UNL     1      -6.789   9.552  10.076  0.00  0.00    +0.000 C 
ATOM     23  H   UNL     1      -7.167  10.200  10.873  0.00  0.00    +0.000 HD
ATOM     24  H   UNL     1      -6.424  10.213   9.281  0.00  0.00    +0.000 HD
ATOM     25  H   UNL     1      -5.946   8.974  10.465  0.00  0.00    +0.000 HD
ENDBRANCH  20  22
BRANCH  20  26
ATOM     26  O   UNL     1      -8.490   7.969  10.670  0.00  0.00    +0.000 OA
ATOM     27  H   UNL     1      -9.452   7.968  10.536  0.00  0.00    +0.000 HD
ENDBRANCH  20  26
ENDBRANCH  17  20
ENDBRANCH   1  17
TORSDOF 8
ENDMDL
MODEL 6
REMARK VINA RESULT:    -3.731      2.170      4.794
REMARK INTER + INTRA:          -5.682
REMARK INTER:                  -5.401
REMARK INTRA:                  -0.281
REMARK UNBOUND:                -0.533
REMARK  Name = 20083
REMARK  8 active torsions:
REMARK  status: ('A' for Active; 'I' for Inactive)
REMARK    1  A    between atoms: O_1  and  C_6
REMARK    2  A    between atoms: C_2  and  C_3
REMARK    3  A    between atoms: C_2  and  C_4
REMARK    4  A    between atoms: C_3  and  C_5
REMARK    5  A    between atoms: C_4  and  C_6
REMARK    6  A    between atoms: C_5  and  C_7
REMARK    7  A    between atoms: C_6  and  C_8
REMARK    8  A    between atoms: C_7  and  C_9
REMARK                            x       y       z     vdW  Elec       q    Type
REMARK                         _______ _______ _______ _____ _____    ______ ____
ROOT
ATOM      1  C   UNL     1     -21.350  -2.578   5.153  0.00  0.00    +0.000 C 
ATOM      2  H   UNL     1     -22.432  -2.744   5.222  0.00  0.00    +0.000 HD
ATOM      3  H   UNL     1     -21.200  -1.615   4.651  0.00  0.00    +0.000 HD
ENDROOT
BRANCH   1   4
ATOM      4  C   UNL     1     -20.714  -3.675   4.297  0.00  0.00    +0.000 C 
ATOM      5  H   UNL     1     -20.194  -3.219   3.445  0.00  0.00    +0.000 HD
ATOM      6  H   UNL     1     -21.507  -4.310   3.880  0.00  0.00    +0.000 HD
BRANCH   4   7
ATOM      7  C   UNL     1     -19.729  -4.556   5.070  0.00  0.00    +0.000 C 
ATOM      8  H   UNL     1     -18.960  -3.920   5.527  0.00  0.00    +0.000 HD
ATOM      9  H   UNL     1     -20.263  -5.048   5.893  0.00  0.00    +0.000 HD
BRANCH   7  10
ATOM     10  C   UNL     1     -19.057  -5.622   4.203  0.00  0.00    +0.000 C 
ATOM     11  H   UNL     1     -18.308  -6.163   4.795  0.00  0.00    +0.000 HD
ATOM     12  H   UNL     1     -19.802  -6.355   3.873  0.00  0.00    +0.000 HD
BRANCH  10  13
ATOM     13  C   UNL     1     -18.380  -5.005   2.988  0.00  0.00    +0.000 C 
ATOM     14  H   UNL     1     -18.887  -4.083   2.684  0.00  0.00    +0.000 HD
ATOM     15  H   UNL     1     -17.339  -4.760   3.219  0.00  0.00    +0.000 HD
ATOM     16  H   UNL     1     -18.387  -5.698   2.142  0.00  0.00    +0.000 HD
ENDBRANCH  10  13
ENDBRANCH   7  10
ENDBRANCH   4   7
ENDBRANCH   1   4
BRANCH   1  17
ATOM     17  C   UNL     1     -20.740  -2.549   6.560  0.00  0.00    +0.000 C 
ATOM     18  H   UNL     1     -21.474  -2.913   7.287  0.00  0.00    +0.000 HD
ATOM     19  H   UNL     1     -19.885  -3.237   6.580  0.00  0.00    +0.000 HD
BRANCH  17  20
ATOM     20  C   UNL     1     -20.270  -1.146   6.956  0.00  0.00    +0.000 C 
ATOM     21  H   UNL     1     -19.232  -1.176   7.308  0.00  0.00    +0.000 HD
BRANCH  20  22
ATOM     22  C   UNL     1     -20.369  -0.179   5.784  0.00  0.00    +0.000 C 
ATOM     23  H   UNL     1     -21.206  -0.454   5.133  0.00  0.00    +0.000 HD
ATOM     24  H   UNL     1     -19.465  -0.219   5.165  0.00  0.00    +0.000 HD
ATOM     25  H   UNL     1     -20.514   0.849   6.127  0.00  0.00    +0.000 HD
ENDBRANCH  20  22
BRANCH  20  26
ATOM     26  O   UNL     1     -21.084  -0.663   8.021  0.00  0.00    +0.000 OA
ATOM     27  H   UNL     1     -20.920   0.290   8.112  0.00  0.00    +0.000 HD
ENDBRANCH  20  26
ENDBRANCH  17  20
ENDBRANCH   1  17
TORSDOF 8
ENDMDL
MODEL 7
REMARK VINA RESULT:    -3.729     22.543     23.989
REMARK INTER + INTRA:          -5.679
REMARK INTER:                  -5.455
REMARK INTRA:                  -0.224
REMARK UNBOUND:                -0.533
REMARK  Name = 20083
REMARK  8 active torsions:
REMARK  status: ('A' for Active; 'I' for Inactive)
REMARK    1  A    between atoms: O_1  and  C_6
REMARK    2  A    between atoms: C_2  and  C_3
REMARK    3  A    between atoms: C_2  and  C_4
REMARK    4  A    between atoms: C_3  and  C_5
REMARK    5  A    between atoms: C_4  and  C_6
REMARK    6  A    between atoms: C_5  and  C_7
REMARK    7  A    between atoms: C_6  and  C_8
REMARK    8  A    between atoms: C_7  and  C_9
REMARK                            x       y       z     vdW  Elec       q    Type
REMARK                         _______ _______ _______ _____ _____    ______ ____
ROOT
ATOM      1  C   UNL     1      -4.721   6.571 -10.194  0.00  0.00    +0.000 C 
ATOM      2  H   UNL     1      -4.692   5.664 -10.811  0.00  0.00    +0.000 HD
ATOM      3  H   UNL     1      -5.498   7.223 -10.609  0.00  0.00    +0.000 HD
ENDROOT
BRANCH   1   4
ATOM      4  C   UNL     1      -3.378   7.299 -10.285  0.00  0.00    +0.000 C 
ATOM      5  H   UNL     1      -3.421   8.044 -11.089  0.00  0.00    +0.000 HD
ATOM      6  H   UNL     1      -2.598   6.579 -10.563  0.00  0.00    +0.000 HD
BRANCH   4   7
ATOM      7  C   UNL     1      -2.972   7.992  -8.982  0.00  0.00    +0.000 C 
ATOM      8  H   UNL     1      -3.746   7.818  -8.224  0.00  0.00    +0.000 HD
ATOM      9  H   UNL     1      -2.052   7.527  -8.605  0.00  0.00    +0.000 HD
BRANCH   7  10
ATOM     10  C   UNL     1      -2.744   9.496  -9.138  0.00  0.00    +0.000 C 
ATOM     11  H   UNL     1      -3.654   9.972  -9.522  0.00  0.00    +0.000 HD
ATOM     12  H   UNL     1      -2.532   9.943  -8.159  0.00  0.00    +0.000 HD
BRANCH  10  13
ATOM     13  C   UNL     1      -1.592   9.787 -10.088  0.00  0.00    +0.000 C 
ATOM     14  H   UNL     1      -1.962  10.113 -11.065  0.00  0.00    +0.000 HD
ATOM     15  H   UNL     1      -0.959  10.582  -9.682  0.00  0.00    +0.000 HD
ATOM     16  H   UNL     1      -0.970   8.898 -10.233  0.00  0.00    +0.000 HD
ENDBRANCH  10  13
ENDBRANCH   7  10
ENDBRANCH   4   7
ENDBRANCH   1   4
BRANCH   1  17
ATOM     17  C   UNL     1      -5.053   6.199  -8.744  0.00  0.00    +0.000 C 
ATOM     18  H   UNL     1      -4.360   5.428  -8.392  0.00  0.00    +0.000 HD
ATOM     19  H   UNL     1      -4.905   7.088  -8.117  0.00  0.00    +0.000 HD
BRANCH  17  20
ATOM     20  C   UNL     1      -6.496   5.707  -8.590  0.00  0.00    +0.000 C 
ATOM     21  H   UNL     1      -7.109   6.469  -8.094  0.00  0.00    +0.000 HD
BRANCH  20  22
ATOM     22  C   UNL     1      -7.113   5.378  -9.942  0.00  0.00    +0.000 C 
ATOM     23  H   UNL     1      -6.877   4.348 -10.228  0.00  0.00    +0.000 HD
ATOM     24  H   UNL     1      -6.705   6.023 -10.728  0.00  0.00    +0.000 HD
ATOM     25  H   UNL     1      -8.201   5.494  -9.922  0.00  0.00    +0.000 HD
ENDBRANCH  20  22
BRANCH  20  26
ATOM     26  O   UNL     1      -6.507   4.535  -7.780  0.00  0.00    +0.000 OA
ATOM     27  H   UNL     1      -6.901   3.817  -8.301  0.00  0.00    +0.000 HD
ENDBRANCH  20  26
ENDBRANCH  17  20
ENDBRANCH   1  17
TORSDOF 8
ENDMDL
MODEL 8
REMARK VINA RESULT:    -3.544     17.390     18.090
REMARK INTER + INTRA:          -5.424
REMARK INTER:                  -4.991
REMARK INTRA:                  -0.434
REMARK UNBOUND:                -0.533
REMARK  Name = 20083
REMARK  8 active torsions:
REMARK  status: ('A' for Active; 'I' for Inactive)
REMARK    1  A    between atoms: O_1  and  C_6
REMARK    2  A    between atoms: C_2  and  C_3
REMARK    3  A    between atoms: C_2  and  C_4
REMARK    4  A    between atoms: C_3  and  C_5
REMARK    5  A    between atoms: C_4  and  C_6
REMARK    6  A    between atoms: C_5  and  C_7
REMARK    7  A    between atoms: C_6  and  C_8
REMARK    8  A    between atoms: C_7  and  C_9
REMARK                            x       y       z     vdW  Elec       q    Type
REMARK                         _______ _______ _______ _____ _____    ______ ____
ROOT
ATOM      1  C   UNL     1      -9.964   5.406  -7.059  0.00  0.00    +0.000 C 
ATOM      2  H   UNL     1     -10.132   6.045  -7.935  0.00  0.00    +0.000 HD
ATOM      3  H   UNL     1     -10.024   4.365  -7.399  0.00  0.00    +0.000 HD
ENDROOT
BRANCH   1   4
ATOM      4  C   UNL     1     -11.070   5.643  -6.029  0.00  0.00    +0.000 C 
ATOM      5  H   UNL     1     -10.646   5.584  -5.019  0.00  0.00    +0.000 HD
ATOM      6  H   UNL     1     -11.813   4.839  -6.108  0.00  0.00    +0.000 HD
BRANCH   4   7
ATOM      7  C   UNL     1     -11.779   6.990  -6.195  0.00  0.00    +0.000 C 
ATOM      8  H   UNL     1     -11.631   7.351  -7.221  0.00  0.00    +0.000 HD
ATOM      9  H   UNL     1     -12.858   6.841  -6.065  0.00  0.00    +0.000 HD
BRANCH   7  10
ATOM     10  C   UNL     1     -11.299   8.056  -5.209  0.00  0.00    +0.000 C 
ATOM     11  H   UNL     1     -12.150   8.660  -4.873  0.00  0.00    +0.000 HD
ATOM     12  H   UNL     1     -10.873   7.574  -4.321  0.00  0.00    +0.000 HD
BRANCH  10  13
ATOM     13  C   UNL     1     -10.258   8.968  -5.839  0.00  0.00    +0.000 C 
ATOM     14  H   UNL     1     -10.716   9.631  -6.581  0.00  0.00    +0.000 HD
ATOM     15  H   UNL     1      -9.786   9.590  -5.072  0.00  0.00    +0.000 HD
ATOM     16  H   UNL     1      -9.475   8.385  -6.334  0.00  0.00    +0.000 HD
ENDBRANCH  10  13
ENDBRANCH   7  10
ENDBRANCH   4   7
ENDBRANCH   1   4
BRANCH   1  17
ATOM     17  C   UNL     1      -8.581   5.696  -6.464  0.00  0.00    +0.000 C 
ATOM     18  H   UNL     1      -7.836   5.036  -6.923  0.00  0.00    +0.000 HD
ATOM     19  H   UNL     1      -8.306   6.729  -6.714  0.00  0.00    +0.000 HD
BRANCH  17  20
ATOM     20  C   UNL     1      -8.559   5.522  -4.942  0.00  0.00    +0.000 C 
ATOM     21  H   UNL     1      -9.544   5.749  -4.517  0.00  0.00    +0.000 HD
BRANCH  20  22
ATOM     22  C   UNL     1      -8.169   4.102  -4.555  0.00  0.00    +0.000 C 
ATOM     23  H   UNL     1      -7.267   4.112  -3.934  0.00  0.00    +0.000 HD
ATOM     24  H   UNL     1      -7.932   3.504  -5.442  0.00  0.00    +0.000 HD
ATOM     25  H   UNL     1      -8.970   3.606  -4.000  0.00  0.00    +0.000 HD
ENDBRANCH  20  22
BRANCH  20  26
ATOM     26  O   UNL     1      -7.615   6.429  -4.381  0.00  0.00    +0.000 OA
ATOM     27  H   UNL     1      -6.814   5.927  -4.160  0.00  0.00    +0.000 HD
ENDBRANCH  20  26
ENDBRANCH  17  20
ENDBRANCH   1  17
TORSDOF 8
ENDMDL
MODEL 9
REMARK VINA RESULT:    -3.512      3.131      4.653
REMARK INTER + INTRA:          -5.379
REMARK INTER:                  -4.846
REMARK INTRA:                  -0.533
REMARK UNBOUND:                -0.533
REMARK  Name = 20083
REMARK  8 active torsions:
REMARK  status: ('A' for Active; 'I' for Inactive)
REMARK    1  A    between atoms: O_1  and  C_6
REMARK    2  A    between atoms: C_2  and  C_3
REMARK    3  A    between atoms: C_2  and  C_4
REMARK    4  A    between atoms: C_3  and  C_5
REMARK    5  A    between atoms: C_4  and  C_6
REMARK    6  A    between atoms: C_5  and  C_7
REMARK    7  A    between atoms: C_6  and  C_8
REMARK    8  A    between atoms: C_7  and  C_9
REMARK                            x       y       z     vdW  Elec       q    Type
REMARK                         _______ _______ _______ _____ _____    ______ ____
ROOT
ATOM      1  C   UNL     1     -22.265  -1.370   8.608  0.00  0.00    +0.000 C 
ATOM      2  H   UNL     1     -22.424  -1.169   9.674  0.00  0.00    +0.000 HD
ATOM      3  H   UNL     1     -21.863  -2.387   8.525  0.00  0.00    +0.000 HD
ENDROOT
BRANCH   1   4
ATOM      4  C   UNL     1     -21.230  -0.392   8.047  0.00  0.00    +0.000 C 
ATOM      5  H   UNL     1     -20.631   0.016   8.870  0.00  0.00    +0.000 HD
ATOM      6  H   UNL     1     -21.752   0.456   7.585  0.00  0.00    +0.000 HD
BRANCH   4   7
ATOM      7  C   UNL     1     -20.294  -1.023   7.012  0.00  0.00    +0.000 C 
ATOM      8  H   UNL     1     -19.257  -0.918   7.354  0.00  0.00    +0.000 HD
ATOM      9  H   UNL     1     -20.501  -2.099   6.957  0.00  0.00    +0.000 HD
BRANCH   7  10
ATOM     10  C   UNL     1     -20.433  -0.415   5.616  0.00  0.00    +0.000 C 
ATOM     11  H   UNL     1     -21.094   0.459   5.655  0.00  0.00    +0.000 HD
ATOM     12  H   UNL     1     -19.455  -0.066   5.264  0.00  0.00    +0.000 HD
BRANCH  10  13
ATOM     13  C   UNL     1     -20.998  -1.423   4.625  0.00  0.00    +0.000 C 
ATOM     14  H   UNL     1     -20.196  -1.909   4.061  0.00  0.00    +0.000 HD
ATOM     15  H   UNL     1     -21.561  -2.198   5.155  0.00  0.00    +0.000 HD
ATOM     16  H   UNL     1     -21.674  -0.937   3.915  0.00  0.00    +0.000 HD
ENDBRANCH  10  13
ENDBRANCH   7  10
ENDBRANCH   4   7
ENDBRANCH   1   4
BRANCH   1  17
ATOM     17  C   UNL     1     -23.597  -1.259   7.856  0.00  0.00    +0.000 C 
ATOM     18  H   UNL     1     -24.393  -0.981   8.555  0.00  0.00    +0.000 HD
ATOM     19  H   UNL     1     -23.510  -0.454   7.116  0.00  0.00    +0.000 HD
BRANCH  17  20
ATOM     20  C   UNL     1     -23.967  -2.564   7.142  0.00  0.00    +0.000 C 
ATOM     21  H   UNL     1     -24.762  -3.086   7.688  0.00  0.00    +0.000 HD
BRANCH  20  22
ATOM     22  C   UNL     1     -24.435  -2.299   5.718  0.00  0.00    +0.000 C 
ATOM     23  H   UNL     1     -25.006  -1.366   5.671  0.00  0.00    +0.000 HD
ATOM     24  H   UNL     1     -25.105  -3.094   5.370  0.00  0.00    +0.000 HD
ATOM     25  H   UNL     1     -23.589  -2.226   5.028  0.00  0.00    +0.000 HD
ENDBRANCH  20  22
BRANCH  20  26
ATOM     26  O   UNL     1     -22.826  -3.415   7.102  0.00  0.00    +0.000 OA
ATOM     27  H   UNL     1     -22.660  -3.647   6.173  0.00  0.00    +0.000 HD
ENDBRANCH  20  26
ENDBRANCH  17  20
ENDBRANCH   1  17
TORSDOF 8
ENDMDL
MODEL 10
REMARK VINA RESULT:    -3.508     18.806     19.769
REMARK INTER + INTRA:          -5.374
REMARK INTER:                  -5.131
REMARK INTRA:                  -0.243
REMARK UNBOUND:                -0.533
REMARK  Name = 20083
REMARK  8 active torsions:
REMARK  status: ('A' for Active; 'I' for Inactive)
REMARK    1  A    between atoms: O_1  and  C_6
REMARK    2  A    between atoms: C_2  and  C_3
REMARK    3  A    between atoms: C_2  and  C_4
REMARK    4  A    between atoms: C_3  and  C_5
REMARK    5  A    between atoms: C_4  and  C_6
REMARK    6  A    between atoms: C_5  and  C_7
REMARK    7  A    between atoms: C_6  and  C_8
REMARK    8  A    between atoms: C_7  and  C_9
REMARK                            x       y       z     vdW  Elec       q    Type
REMARK                         _______ _______ _______ _____ _____    ______ ____
ROOT
ATOM      1  C   UNL     1      -9.107   6.985  -7.318  0.00  0.00    +0.000 C 
ATOM      2  H   UNL     1      -8.076   6.945  -7.689  0.00  0.00    +0.000 HD
ATOM      3  H   UNL     1      -9.570   6.015  -7.537  0.00  0.00    +0.000 HD
ENDROOT
BRANCH   1   4
ATOM      4  C   UNL     1      -9.883   8.072  -8.065  0.00  0.00    +0.000 C 
ATOM      5  H   UNL     1     -10.769   7.629  -8.537  0.00  0.00    +0.000 HD
ATOM      6  H   UNL     1      -9.258   8.466  -8.876  0.00  0.00    +0.000 HD
BRANCH   4   7
ATOM      7  C   UNL     1     -10.323   9.232  -7.167  0.00  0.00    +0.000 C 
ATOM      8  H   UNL     1     -11.001   8.851  -6.393  0.00  0.00    +0.000 HD
ATOM      9  H   UNL     1      -9.442   9.631  -6.648  0.00  0.00    +0.000 HD
BRANCH   7  10
ATOM     10  C   UNL     1     -11.009  10.365  -7.931  0.00  0.00    +0.000 C 
ATOM     11  H   UNL     1     -12.092  10.320  -7.769  0.00  0.00    +0.000 HD
ATOM     12  H   UNL     1     -10.663  11.333  -7.547  0.00  0.00    +0.000 HD
BRANCH  10  13
ATOM     13  C   UNL     1     -10.724  10.282  -9.423  0.00  0.00    +0.000 C 
ATOM     14  H   UNL     1     -11.399   9.571  -9.911  0.00  0.00    +0.000 HD
ATOM     15  H   UNL     1     -10.865  11.261  -9.890  0.00  0.00    +0.000 HD
ATOM     16  H   UNL     1      -9.694   9.963  -9.608  0.00  0.00    +0.000 HD
ENDBRANCH  10  13
ENDBRANCH   7  10
ENDBRANCH   4   7
ENDBRANCH   1   4
BRANCH   1  17
ATOM     17  C   UNL     1      -9.103   7.246  -5.806  0.00  0.00    +0.000 C 
ATOM     18  H   UNL     1      -8.425   8.075  -5.577  0.00  0.00    +0.000 HD
ATOM     19  H   UNL     1     -10.114   7.551  -5.506  0.00  0.00    +0.000 HD
BRANCH  17  20
ATOM     20  C   UNL     1      -8.691   6.005  -5.008  0.00  0.00    +0.000 C 
ATOM     21  H   UNL     1      -9.503   5.694  -4.339  0.00  0.00    +0.000 HD
BRANCH  20  22
ATOM     22  C   UNL     1      -8.339   4.847  -5.931  0.00  0.00    +0.000 C 
ATOM     23  H   UNL     1      -7.252   4.759  -6.034  0.00  0.00    +0.000 HD
ATOM     24  H   UNL     1      -8.737   5.012  -6.938  0.00  0.00    +0.000 HD
ATOM     25  H   UNL     1      -8.732   3.900  -5.549  0.00  0.00    +0.000 HD
ENDBRANCH  20  22
BRANCH  20  26
ATOM     26  O   UNL     1      -7.555   6.319  -4.208  0.00  0.00    +0.000 OA
ATOM     27  H   UNL     1      -7.699   5.943  -3.325  0.00  0.00    +0.000 HD
ENDBRANCH  20  26
ENDBRANCH  17  20
ENDBRANCH   1  17
TORSDOF 8
ENDMDL
