MODEL 1
REMARK VINA RESULT:    -4.783      0.000      0.000
REMARK INTER + INTRA:          -6.240
REMARK INTER:                  -6.040
REMARK INTRA:                  -0.200
REMARK UNBOUND:                -0.199
REMARK  Name = 520098
REMARK  6 active torsions:
REMARK  status: ('A' for Active; 'I' for Inactive)
REMARK    1  A    between atoms: O_1  and  C_9
REMARK    2  A    between atoms: O_1  and  C_12
REMARK    3  A    between atoms: C_4  and  C_5
REMARK    4  A    between atoms: C_4  and  C_6
REMARK    5  A    between atoms: C_4  and  C_7
REMARK    6  A    between atoms: C_5  and  C_8
REMARK                            x       y       z     vdW  Elec       q    Type
REMARK                         _______ _______ _______ _____ _____    ______ ____
ROOT
ATOM      1  C   UNL     1      -3.267   6.722 -10.369  0.00  0.00    +0.000 C 
ATOM      2  H   UNL     1      -2.799   5.776 -10.669  0.00  0.00    +0.000 HD
ENDROOT
BRANCH   1   5
ATOM      3  N   UNL     1      -2.405   8.927  -9.880  0.00  0.00    +0.000 NA
ATOM      4  N   UNL     1      -0.726   8.843 -12.126  0.00  0.00    +0.000 NA
ATOM      5  C   UNL     1      -2.350   7.883 -10.711  0.00  0.00    +0.000 A 
ATOM      6  C   UNL     1      -1.544   7.820 -11.807  0.00  0.00    +0.000 A 
ATOM      7  C   UNL     1      -1.587   9.950 -10.199  0.00  0.00    +0.000 A 
ATOM      8  C   UNL     1      -0.762   9.909 -11.301  0.00  0.00    +0.000 A 
ATOM      9  H   UNL     1      -1.616  10.807  -9.537  0.00  0.00    +0.000 HD
ATOM     10  H   UNL     1      -0.106  10.731 -11.556  0.00  0.00    +0.000 HD
BRANCH   6  11
ATOM     11  O   UNL     1      -1.523   6.728 -12.630  0.00  0.00    +0.000 OA
BRANCH  11  12
ATOM     12  C   UNL     1      -2.099   6.886 -13.923  0.00  0.00    +0.000 C 
ATOM     13  H   UNL     1      -1.320   6.687 -14.664  0.00  0.00    +0.000 HD
ATOM     14  H   UNL     1      -2.452   7.912 -14.072  0.00  0.00    +0.000 HD
ATOM     15  H   UNL     1      -2.908   6.167 -14.083  0.00  0.00    +0.000 HD
ENDBRANCH  11  12
ENDBRANCH   6  11
ENDBRANCH   1   5
BRANCH   1  16
ATOM     16  C   UNL     1      -3.471   6.627  -8.852  0.00  0.00    +0.000 C 
ATOM     17  H   UNL     1      -4.110   7.436  -8.478  0.00  0.00    +0.000 HD
ATOM     18  H   UNL     1      -3.944   5.677  -8.581  0.00  0.00    +0.000 HD
ATOM     19  H   UNL     1      -2.514   6.688  -8.323  0.00  0.00    +0.000 HD
ENDBRANCH   1  16
BRANCH   1  20
ATOM     20  C   UNL     1      -4.629   6.790 -11.089  0.00  0.00    +0.000 C 
ATOM     21  H   UNL     1      -4.598   6.222 -12.027  0.00  0.00    +0.000 HD
ATOM     22  H   UNL     1      -4.843   7.832 -11.359  0.00  0.00    +0.000 HD
BRANCH  20  23
ATOM     23  C   UNL     1      -5.782   6.275 -10.237  0.00  0.00    +0.000 C 
ATOM     24  H   UNL     1      -6.074   5.273 -10.567  0.00  0.00    +0.000 HD
ATOM     25  H   UNL     1      -5.504   6.209  -9.181  0.00  0.00    +0.000 HD
ATOM     26  H   UNL     1      -6.657   6.928 -10.324  0.00  0.00    +0.000 HD
ENDBRANCH  20  23
ENDBRANCH   1  20
TORSDOF 6
ENDMDL
MODEL 2
REMARK VINA RESULT:    -4.366     17.564     19.449
REMARK INTER + INTRA:          -5.714
REMARK INTER:                  -5.516
REMARK INTRA:                  -0.198
REMARK UNBOUND:                -0.199
REMARK  Name = 520098
REMARK  6 active torsions:
REMARK  status: ('A' for Active; 'I' for Inactive)
REMARK    1  A    between atoms: O_1  and  C_9
REMARK    2  A    between atoms: O_1  and  C_12
REMARK    3  A    between atoms: C_4  and  C_5
REMARK    4  A    between atoms: C_4  and  C_6
REMARK    5  A    between atoms: C_4  and  C_7
REMARK    6  A    between atoms: C_5  and  C_8
REMARK                            x       y       z     vdW  Elec       q    Type
REMARK                         _______ _______ _______ _____ _____    ______ ____
ROOT
ATOM      1  C   UNL     1      -7.774  11.598   5.821  0.00  0.00    +0.000 C 
ATOM      2  H   UNL     1      -7.146  10.963   6.458  0.00  0.00    +0.000 HD
ENDROOT
BRANCH   1   5
ATOM      3  N   UNL     1     -10.112  12.048   5.401  0.00  0.00    +0.000 NA
ATOM      4  N   UNL     1     -10.893  10.036   7.193  0.00  0.00    +0.000 NA
ATOM      5  C   UNL     1      -9.240  11.296   6.077  0.00  0.00    +0.000 A 
ATOM      6  C   UNL     1      -9.595  10.314   6.952  0.00  0.00    +0.000 A 
ATOM      7  C   UNL     1     -11.409  11.769   5.640  0.00  0.00    +0.000 A 
ATOM      8  C   UNL     1     -11.793  10.781   6.521  0.00  0.00    +0.000 A 
ATOM      9  H   UNL     1     -12.133  12.368   5.101  0.00  0.00    +0.000 HD
ATOM     10  H   UNL     1     -12.834  10.558   6.713  0.00  0.00    +0.000 HD
BRANCH   6  11
ATOM     11  O   UNL     1      -8.665   9.571   7.624  0.00  0.00    +0.000 OA
BRANCH  11  12
ATOM     12  C   UNL     1      -8.764   9.547   9.045  0.00  0.00    +0.000 C 
ATOM     13  H   UNL     1      -9.651  10.119   9.329  0.00  0.00    +0.000 HD
ATOM     14  H   UNL     1      -7.892  10.024   9.505  0.00  0.00    +0.000 HD
ATOM     15  H   UNL     1      -8.888   8.524   9.412  0.00  0.00    +0.000 HD
ENDBRANCH  11  12
ENDBRANCH   6  11
ENDBRANCH   1   5
BRANCH   1  16
ATOM     16  C   UNL     1      -7.398  11.246   4.376  0.00  0.00    +0.000 C 
ATOM     17  H   UNL     1      -6.342  11.455   4.171  0.00  0.00    +0.000 HD
ATOM     18  H   UNL     1      -7.573  10.183   4.176  0.00  0.00    +0.000 HD
ATOM     19  H   UNL     1      -7.997  11.823   3.663  0.00  0.00    +0.000 HD
ENDBRANCH   1  16
BRANCH   1  20
ATOM     20  C   UNL     1      -7.391  13.058   6.133  0.00  0.00    +0.000 C 
ATOM     21  H   UNL     1      -7.130  13.170   7.193  0.00  0.00    +0.000 HD
ATOM     22  H   UNL     1      -8.257  13.706   5.951  0.00  0.00    +0.000 HD
BRANCH  20  23
ATOM     23  C   UNL     1      -6.233  13.567   5.283  0.00  0.00    +0.000 C 
ATOM     24  H   UNL     1      -6.611  14.194   4.470  0.00  0.00    +0.000 HD
ATOM     25  H   UNL     1      -5.536  14.171   5.873  0.00  0.00    +0.000 HD
ATOM     26  H   UNL     1      -5.677  12.735   4.838  0.00  0.00    +0.000 HD
ENDBRANCH  20  23
ENDBRANCH   1  20
TORSDOF 6
ENDMDL
MODEL 3
REMARK VINA RESULT:    -4.252      2.371      2.783
REMARK INTER + INTRA:          -5.570
REMARK INTER:                  -5.364
REMARK INTRA:                  -0.206
REMARK UNBOUND:                -0.199
REMARK  Name = 520098
REMARK  6 active torsions:
REMARK  status: ('A' for Active; 'I' for Inactive)
REMARK    1  A    between atoms: O_1  and  C_9
REMARK    2  A    between atoms: O_1  and  C_12
REMARK    3  A    between atoms: C_4  and  C_5
REMARK    4  A    between atoms: C_4  and  C_6
REMARK    5  A    between atoms: C_4  and  C_7
REMARK    6  A    between atoms: C_5  and  C_8
REMARK                            x       y       z     vdW  Elec       q    Type
REMARK                         _______ _______ _______ _____ _____    ______ ____
ROOT
ATOM      1  C   UNL     1      -2.099   8.521 -10.549  0.00  0.00    +0.000 C 
ATOM      2  H   UNL     1      -1.005   8.434 -10.573  0.00  0.00    +0.000 HD
ENDROOT
BRANCH   1   5
ATOM      3  N   UNL     1      -3.879   9.592 -11.784  0.00  0.00    +0.000 NA
ATOM      4  N   UNL     1      -2.136  10.214 -13.892  0.00  0.00    +0.000 NA
ATOM      5  C   UNL     1      -2.585   9.266 -11.780  0.00  0.00    +0.000 A 
ATOM      6  C   UNL     1      -1.719   9.556 -12.791  0.00  0.00    +0.000 A 
ATOM      7  C   UNL     1      -4.295  10.251 -12.885  0.00  0.00    +0.000 A 
ATOM      8  C   UNL     1      -3.439  10.557 -13.920  0.00  0.00    +0.000 A 
ATOM      9  H   UNL     1      -5.342  10.526 -12.908  0.00  0.00    +0.000 HD
ATOM     10  H   UNL     1      -3.774  11.085 -14.803  0.00  0.00    +0.000 HD
BRANCH   6  11
ATOM     11  O   UNL     1      -0.401   9.199 -12.742  0.00  0.00    +0.000 OA
BRANCH  11  12
ATOM     12  C   UNL     1       0.314   9.203 -13.974  0.00  0.00    +0.000 C 
ATOM     13  H   UNL     1       0.334   8.178 -14.354  0.00  0.00    +0.000 HD
ATOM     14  H   UNL     1       1.349   9.529 -13.825  0.00  0.00    +0.000 HD
ATOM     15  H   UNL     1      -0.190   9.829 -14.717  0.00  0.00    +0.000 HD
ENDBRANCH  11  12
ENDBRANCH   6  11
ENDBRANCH   1   5
BRANCH   1  16
ATOM     16  C   UNL     1      -2.430   9.312  -9.278  0.00  0.00    +0.000 C 
ATOM     17  H   UNL     1      -1.523   9.663  -8.771  0.00  0.00    +0.000 HD
ATOM     18  H   UNL     1      -3.042  10.190  -9.513  0.00  0.00    +0.000 HD
ATOM     19  H   UNL     1      -2.991   8.695  -8.567  0.00  0.00    +0.000 HD
ENDBRANCH   1  16
BRANCH   1  20
ATOM     20  C   UNL     1      -2.655   7.087 -10.447  0.00  0.00    +0.000 C 
ATOM     21  H   UNL     1      -1.852   6.351 -10.583  0.00  0.00    +0.000 HD
ATOM     22  H   UNL     1      -3.376   6.920 -11.258  0.00  0.00    +0.000 HD
BRANCH  20  23
ATOM     23  C   UNL     1      -3.359   6.811  -9.124  0.00  0.00    +0.000 C 
ATOM     24  H   UNL     1      -3.871   7.713  -8.776  0.00  0.00    +0.000 HD
ATOM     25  H   UNL     1      -4.109   6.020  -9.224  0.00  0.00    +0.000 HD
ATOM     26  H   UNL     1      -2.641   6.510  -8.353  0.00  0.00    +0.000 HD
ENDBRANCH  20  23
ENDBRANCH   1  20
TORSDOF 6
ENDMDL
MODEL 4
REMARK VINA RESULT:    -4.220     32.650     34.626
REMARK INTER + INTRA:          -5.530
REMARK INTER:                  -5.346
REMARK INTRA:                  -0.184
REMARK UNBOUND:                -0.199
REMARK  Name = 520098
REMARK  6 active torsions:
REMARK  status: ('A' for Active; 'I' for Inactive)
REMARK    1  A    between atoms: O_1  and  C_9
REMARK    2  A    between atoms: O_1  and  C_12
REMARK    3  A    between atoms: C_4  and  C_5
REMARK    4  A    between atoms: C_4  and  C_6
REMARK    5  A    between atoms: C_4  and  C_7
REMARK    6  A    between atoms: C_5  and  C_8
REMARK                            x       y       z     vdW  Elec       q    Type
REMARK                         _______ _______ _______ _____ _____    ______ ____
ROOT
ATOM      1  C   UNL     1     -10.788 -12.634  17.329  0.00  0.00    +0.000 C 
ATOM      2  H   UNL     1     -11.755 -12.269  17.697  0.00  0.00    +0.000 HD
ENDROOT
BRANCH   1   5
ATOM      3  N   UNL     1      -9.123 -12.075  15.667  0.00  0.00    +0.000 NA
ATOM      4  N   UNL     1     -10.407  -9.647  15.097  0.00  0.00    +0.000 NA
ATOM      5  C   UNL     1     -10.241 -11.680  16.281  0.00  0.00    +0.000 A 
ATOM      6  C   UNL     1     -10.881 -10.506  16.022  0.00  0.00    +0.000 A 
ATOM      7  C   UNL     1      -8.650 -11.217  14.741  0.00  0.00    +0.000 A 
ATOM      8  C   UNL     1      -9.280 -10.024  14.462  0.00  0.00    +0.000 A 
ATOM      9  H   UNL     1      -7.744 -11.519  14.231  0.00  0.00    +0.000 HD
ATOM     10  H   UNL     1      -8.899  -9.335  13.719  0.00  0.00    +0.000 HD
BRANCH   6  11
ATOM     11  O   UNL     1     -12.024 -10.143  16.680  0.00  0.00    +0.000 OA
BRANCH  11  12
ATOM     12  C   UNL     1     -12.934  -9.305  15.975  0.00  0.00    +0.000 C 
ATOM     13  H   UNL     1     -13.452  -8.681  16.707  0.00  0.00    +0.000 HD
ATOM     14  H   UNL     1     -13.685  -9.901  15.446  0.00  0.00    +0.000 HD
ATOM     15  H   UNL     1     -12.403  -8.644  15.283  0.00  0.00    +0.000 HD
ENDBRANCH  11  12
ENDBRANCH   6  11
ENDBRANCH   1   5
BRANCH   1  16
ATOM     16  C   UNL     1     -11.065 -14.009  16.710  0.00  0.00    +0.000 C 
ATOM     17  H   UNL     1     -10.229 -14.350  16.088  0.00  0.00    +0.000 HD
ATOM     18  H   UNL     1     -11.229 -14.761  17.489  0.00  0.00    +0.000 HD
ATOM     19  H   UNL     1     -11.960 -13.982  16.078  0.00  0.00    +0.000 HD
ENDBRANCH   1  16
BRANCH   1  20
ATOM     20  C   UNL     1      -9.870 -12.777  18.559  0.00  0.00    +0.000 C 
ATOM     21  H   UNL     1      -9.147 -11.952  18.599  0.00  0.00    +0.000 HD
ATOM     22  H   UNL     1      -9.287 -13.702  18.470  0.00  0.00    +0.000 HD
BRANCH  20  23
ATOM     23  C   UNL     1     -10.636 -12.826  19.875  0.00  0.00    +0.000 C 
ATOM     24  H   UNL     1     -10.931 -11.815  20.175  0.00  0.00    +0.000 HD
ATOM     25  H   UNL     1     -11.548 -13.425  19.787  0.00  0.00    +0.000 HD
ATOM     26  H   UNL     1     -10.019 -13.250  20.674  0.00  0.00    +0.000 HD
ENDBRANCH  20  23
ENDBRANCH   1  20
TORSDOF 6
ENDMDL
MODEL 5
REMARK VINA RESULT:    -4.130      2.125      2.616
REMARK INTER + INTRA:          -5.415
REMARK INTER:                  -5.205
REMARK INTRA:                  -0.210
REMARK UNBOUND:                -0.199
REMARK  Name = 520098
REMARK  6 active torsions:
REMARK  status: ('A' for Active; 'I' for Inactive)
REMARK    1  A    between atoms: O_1  and  C_9
REMARK    2  A    between atoms: O_1  and  C_12
REMARK    3  A    between atoms: C_4  and  C_5
REMARK    4  A    between atoms: C_4  and  C_6
REMARK    5  A    between atoms: C_4  and  C_7
REMARK    6  A    between atoms: C_5  and  C_8
REMARK                            x       y       z     vdW  Elec       q    Type
REMARK                         _______ _______ _______ _____ _____    ______ ____
ROOT
ATOM      1  C   UNL     1      -3.673   7.682 -10.848  0.00  0.00    +0.000 C 
ATOM      2  H   UNL     1      -4.332   8.474 -10.471  0.00  0.00    +0.000 HD
ENDROOT
BRANCH   1   5
ATOM      3  N   UNL     1      -1.396   7.561 -11.651  0.00  0.00    +0.000 NA
ATOM      4  N   UNL     1      -1.623  10.073 -12.878  0.00  0.00    +0.000 NA
ATOM      5  C   UNL     1      -2.512   8.293 -11.611  0.00  0.00    +0.000 A 
ATOM      6  C   UNL     1      -2.645   9.515 -12.199  0.00  0.00    +0.000 A 
ATOM      7  C   UNL     1      -0.374   8.119 -12.331  0.00  0.00    +0.000 A 
ATOM      8  C   UNL     1      -0.485   9.353 -12.933  0.00  0.00    +0.000 A 
ATOM      9  H   UNL     1       0.540   7.540 -12.374  0.00  0.00    +0.000 HD
ATOM     10  H   UNL     1       0.336   9.800 -13.478  0.00  0.00    +0.000 HD
BRANCH   6  11
ATOM     11  O   UNL     1      -3.809  10.229 -12.130  0.00  0.00    +0.000 OA
BRANCH  11  12
ATOM     12  C   UNL     1      -4.548  10.375 -13.339  0.00  0.00    +0.000 C 
ATOM     13  H   UNL     1      -3.856  10.236 -14.173  0.00  0.00    +0.000 HD
ATOM     14  H   UNL     1      -4.975  11.381 -13.418  0.00  0.00    +0.000 HD
ATOM     15  H   UNL     1      -5.329   9.612 -13.416  0.00  0.00    +0.000 HD
ENDBRANCH  11  12
ENDBRANCH   6  11
ENDBRANCH   1   5
BRANCH   1  16
ATOM     16  C   UNL     1      -4.538   6.825 -11.781  0.00  0.00    +0.000 C 
ATOM     17  H   UNL     1      -4.059   5.866 -12.010  0.00  0.00    +0.000 HD
ATOM     18  H   UNL     1      -5.511   6.612 -11.325  0.00  0.00    +0.000 HD
ATOM     19  H   UNL     1      -4.720   7.342 -12.731  0.00  0.00    +0.000 HD
ENDBRANCH   1  16
BRANCH   1  20
ATOM     20  C   UNL     1      -3.229   6.856  -9.624  0.00  0.00    +0.000 C 
ATOM     21  H   UNL     1      -2.540   7.436  -8.997  0.00  0.00    +0.000 HD
ATOM     22  H   UNL     1      -2.675   5.973  -9.966  0.00  0.00    +0.000 HD
BRANCH  20  23
ATOM     23  C   UNL     1      -4.395   6.382  -8.767  0.00  0.00    +0.000 C 
ATOM     24  H   UNL     1      -4.127   5.457  -8.247  0.00  0.00    +0.000 HD
ATOM     25  H   UNL     1      -4.665   7.123  -8.008  0.00  0.00    +0.000 HD
ATOM     26  H   UNL     1      -5.279   6.180  -9.382  0.00  0.00    +0.000 HD
ENDBRANCH  20  23
ENDBRANCH   1  20
TORSDOF 6
ENDMDL
MODEL 6
REMARK VINA RESULT:    -4.126      1.765      3.164
REMARK INTER + INTRA:          -5.411
REMARK INTER:                  -5.118
REMARK INTRA:                  -0.293
REMARK UNBOUND:                -0.199
REMARK  Name = 520098
REMARK  6 active torsions:
REMARK  status: ('A' for Active; 'I' for Inactive)
REMARK    1  A    between atoms: O_1  and  C_9
REMARK    2  A    between atoms: O_1  and  C_12
REMARK    3  A    between atoms: C_4  and  C_5
REMARK    4  A    between atoms: C_4  and  C_6
REMARK    5  A    between atoms: C_4  and  C_7
REMARK    6  A    between atoms: C_5  and  C_8
REMARK                            x       y       z     vdW  Elec       q    Type
REMARK                         _______ _______ _______ _____ _____    ______ ____
ROOT
ATOM      1  C   UNL     1      -3.904   7.498 -11.194  0.00  0.00    +0.000 C 
ATOM      2  H   UNL     1      -4.311   8.443 -10.814  0.00  0.00    +0.000 HD
ENDROOT
BRANCH   1   5
ATOM      3  N   UNL     1      -2.851   6.829 -13.265  0.00  0.00    +0.000 NA
ATOM      4  N   UNL     1      -1.322   9.180 -13.327  0.00  0.00    +0.000 NA
ATOM      5  C   UNL     1      -2.927   7.773 -12.324  0.00  0.00    +0.000 A 
ATOM      6  C   UNL     1      -2.195   8.921 -12.332  0.00  0.00    +0.000 A 
ATOM      7  C   UNL     1      -1.978   7.087 -14.259  0.00  0.00    +0.000 A 
ATOM      8  C   UNL     1      -1.227   8.242 -14.290  0.00  0.00    +0.000 A 
ATOM      9  H   UNL     1      -1.901   6.333 -15.033  0.00  0.00    +0.000 HD
ATOM     10  H   UNL     1      -0.526   8.448 -15.089  0.00  0.00    +0.000 HD
BRANCH   6  11
ATOM     11  O   UNL     1      -2.307   9.859 -11.344  0.00  0.00    +0.000 OA
BRANCH  11  12
ATOM     12  C   UNL     1      -1.160  10.074 -10.527  0.00  0.00    +0.000 C 
ATOM     13  H   UNL     1      -1.507  10.332  -9.523  0.00  0.00    +0.000 HD
ATOM     14  H   UNL     1      -0.561  10.909 -10.904  0.00  0.00    +0.000 HD
ATOM     15  H   UNL     1      -0.556   9.164 -10.452  0.00  0.00    +0.000 HD
ENDBRANCH  11  12
ENDBRANCH   6  11
ENDBRANCH   1   5
BRANCH   1  16
ATOM     16  C   UNL     1      -5.108   6.698 -11.708  0.00  0.00    +0.000 C 
ATOM     17  H   UNL     1      -5.158   5.703 -11.251  0.00  0.00    +0.000 HD
ATOM     18  H   UNL     1      -6.045   7.217 -11.481  0.00  0.00    +0.000 HD
ATOM     19  H   UNL     1      -5.055   6.564 -12.794  0.00  0.00    +0.000 HD
ENDBRANCH   1  16
BRANCH   1  20
ATOM     20  C   UNL     1      -3.257   6.778  -9.993  0.00  0.00    +0.000 C 
ATOM     21  H   UNL     1      -2.215   6.517 -10.216  0.00  0.00    +0.000 HD
ATOM     22  H   UNL     1      -3.786   5.834  -9.810  0.00  0.00    +0.000 HD
BRANCH  20  23
ATOM     23  C   UNL     1      -3.298   7.600  -8.711  0.00  0.00    +0.000 C 
ATOM     24  H   UNL     1      -4.330   7.705  -8.365  0.00  0.00    +0.000 HD
ATOM     25  H   UNL     1      -2.725   7.123  -7.910  0.00  0.00    +0.000 HD
ATOM     26  H   UNL     1      -2.892   8.604  -8.876  0.00  0.00    +0.000 HD
ENDBRANCH  20  23
ENDBRANCH   1  20
TORSDOF 6
ENDMDL
MODEL 7
REMARK VINA RESULT:    -4.120     24.865     27.236
REMARK INTER + INTRA:          -5.404
REMARK INTER:                  -5.345
REMARK INTRA:                  -0.058
REMARK UNBOUND:                -0.199
REMARK  Name = 520098
REMARK  6 active torsions:
REMARK  status: ('A' for Active; 'I' for Inactive)
REMARK    1  A    between atoms: O_1  and  C_9
REMARK    2  A    between atoms: O_1  and  C_12
REMARK    3  A    between atoms: C_4  and  C_5
REMARK    4  A    between atoms: C_4  and  C_6
REMARK    5  A    between atoms: C_4  and  C_7
REMARK    6  A    between atoms: C_5  and  C_8
REMARK                            x       y       z     vdW  Elec       q    Type
REMARK                         _______ _______ _______ _____ _____    ______ ____
ROOT
ATOM      1  C   UNL     1     -19.500  -4.497   3.870  0.00  0.00    +0.000 C 
ATOM      2  H   UNL     1     -19.004  -3.573   4.192  0.00  0.00    +0.000 HD
ENDROOT
BRANCH   1   5
ATOM      3  N   UNL     1     -21.785  -4.887   3.185  0.00  0.00    +0.000 NA
ATOM      4  N   UNL     1     -22.763  -3.763   5.562  0.00  0.00    +0.000 NA
ATOM      5  C   UNL     1     -20.991  -4.405   4.143  0.00  0.00    +0.000 A 
ATOM      6  C   UNL     1     -21.442  -3.855   5.305  0.00  0.00    +0.000 A 
ATOM      7  C   UNL     1     -23.106  -4.796   3.442  0.00  0.00    +0.000 A 
ATOM      8  C   UNL     1     -23.586  -4.244   4.610  0.00  0.00    +0.000 A 
ATOM      9  H   UNL     1     -23.768  -5.182   2.677  0.00  0.00    +0.000 HD
ATOM     10  H   UNL     1     -24.646  -4.172   4.815  0.00  0.00    +0.000 HD
BRANCH   6  11
ATOM     11  O   UNL     1     -20.588  -3.372   6.258  0.00  0.00    +0.000 OA
BRANCH  11  12
ATOM     12  C   UNL     1     -21.117  -2.416   7.171  0.00  0.00    +0.000 C 
ATOM     13  H   UNL     1     -20.299  -2.075   7.812  0.00  0.00    +0.000 HD
ATOM     14  H   UNL     1     -21.883  -2.868   7.812  0.00  0.00    +0.000 HD
ATOM     15  H   UNL     1     -21.516  -1.546   6.641  0.00  0.00    +0.000 HD
ENDBRANCH  11  12
ENDBRANCH   6  11
ENDBRANCH   1   5
BRANCH   1  16
ATOM     16  C   UNL     1     -18.871  -5.624   4.698  0.00  0.00    +0.000 C 
ATOM     17  H   UNL     1     -19.049  -5.486   5.771  0.00  0.00    +0.000 HD
ATOM     18  H   UNL     1     -19.287  -6.596   4.413  0.00  0.00    +0.000 HD
ATOM     19  H   UNL     1     -17.787  -5.666   4.543  0.00  0.00    +0.000 HD
ENDBRANCH   1  16
BRANCH   1  20
ATOM     20  C   UNL     1     -19.166  -4.681   2.376  0.00  0.00    +0.000 C 
ATOM     21  H   UNL     1     -19.494  -3.808   1.797  0.00  0.00    +0.000 HD
ATOM     22  H   UNL     1     -19.721  -5.543   1.985  0.00  0.00    +0.000 HD
BRANCH  20  23
ATOM     23  C   UNL     1     -17.683  -4.915   2.119  0.00  0.00    +0.000 C 
ATOM     24  H   UNL     1     -17.553  -5.637   1.306  0.00  0.00    +0.000 HD
ATOM     25  H   UNL     1     -17.175  -3.991   1.827  0.00  0.00    +0.000 HD
ATOM     26  H   UNL     1     -17.188  -5.315   3.010  0.00  0.00    +0.000 HD
ENDBRANCH  20  23
ENDBRANCH   1  20
TORSDOF 6
ENDMDL
MODEL 8
REMARK VINA RESULT:    -4.099     16.936     18.652
REMARK INTER + INTRA:          -5.377
REMARK INTER:                  -5.165
REMARK INTRA:                  -0.212
REMARK UNBOUND:                -0.199
REMARK  Name = 520098
REMARK  6 active torsions:
REMARK  status: ('A' for Active; 'I' for Inactive)
REMARK    1  A    between atoms: O_1  and  C_9
REMARK    2  A    between atoms: O_1  and  C_12
REMARK    3  A    between atoms: C_4  and  C_5
REMARK    4  A    between atoms: C_4  and  C_6
REMARK    5  A    between atoms: C_4  and  C_7
REMARK    6  A    between atoms: C_5  and  C_8
REMARK                            x       y       z     vdW  Elec       q    Type
REMARK                         _______ _______ _______ _____ _____    ______ ____
ROOT
ATOM      1  C   UNL     1      -7.635  12.054   5.152  0.00  0.00    +0.000 C 
ATOM      2  H   UNL     1      -7.584  11.587   6.144  0.00  0.00    +0.000 HD
ENDROOT
BRANCH   1   5
ATOM      3  N   UNL     1      -9.155  13.530   3.988  0.00  0.00    +0.000 NA
ATOM      4  N   UNL     1     -11.361  12.425   5.323  0.00  0.00    +0.000 NA
ATOM      5  C   UNL     1      -9.046  12.548   4.885  0.00  0.00    +0.000 A 
ATOM      6  C   UNL     1     -10.102  11.996   5.546  0.00  0.00    +0.000 A 
ATOM      7  C   UNL     1     -10.413  13.959   3.764  0.00  0.00    +0.000 A 
ATOM      8  C   UNL     1     -11.497  13.416   4.419  0.00  0.00    +0.000 A 
ATOM      9  H   UNL     1     -10.523  14.756   3.039  0.00  0.00    +0.000 HD
ATOM     10  H   UNL     1     -12.507  13.761   4.239  0.00  0.00    +0.000 HD
BRANCH   6  11
ATOM     11  O   UNL     1      -9.941  10.991   6.459  0.00  0.00    +0.000 OA
BRANCH  11  12
ATOM     12  C   UNL     1     -11.126  10.394   6.975  0.00  0.00    +0.000 C 
ATOM     13  H   UNL     1     -11.093  10.469   8.065  0.00  0.00    +0.000 HD
ATOM     14  H   UNL     1     -11.176   9.332   6.711  0.00  0.00    +0.000 HD
ATOM     15  H   UNL     1     -12.017  10.925   6.626  0.00  0.00    +0.000 HD
ENDBRANCH  11  12
ENDBRANCH   6  11
ENDBRANCH   1   5
BRANCH   1  16
ATOM     16  C   UNL     1      -7.252  10.957   4.151  0.00  0.00    +0.000 C 
ATOM     17  H   UNL     1      -7.555   9.964   4.504  0.00  0.00    +0.000 HD
ATOM     18  H   UNL     1      -7.735  11.128   3.183  0.00  0.00    +0.000 HD
ATOM     19  H   UNL     1      -6.169  10.937   3.987  0.00  0.00    +0.000 HD
ENDBRANCH   1  16
BRANCH   1  20
ATOM     20  C   UNL     1      -6.584  13.181   5.138  0.00  0.00    +0.000 C 
ATOM     21  H   UNL     1      -6.885  13.981   4.450  0.00  0.00    +0.000 HD
ATOM     22  H   UNL     1      -5.633  12.784   4.762  0.00  0.00    +0.000 HD
BRANCH  20  23
ATOM     23  C   UNL     1      -6.334  13.784   6.515  0.00  0.00    +0.000 C 
ATOM     24  H   UNL     1      -6.476  13.023   7.289  0.00  0.00    +0.000 HD
ATOM     25  H   UNL     1      -5.313  14.166   6.608  0.00  0.00    +0.000 HD
ATOM     26  H   UNL     1      -7.030  14.605   6.717  0.00  0.00    +0.000 HD
ENDBRANCH  20  23
ENDBRANCH   1  20
TORSDOF 6
ENDMDL
MODEL 9
REMARK VINA RESULT:    -3.990     32.817     34.720
REMARK INTER + INTRA:          -5.238
REMARK INTER:                  -4.976
REMARK INTRA:                  -0.262
REMARK UNBOUND:                -0.199
REMARK  Name = 520098
REMARK  6 active torsions:
REMARK  status: ('A' for Active; 'I' for Inactive)
REMARK    1  A    between atoms: O_1  and  C_9
REMARK    2  A    between atoms: O_1  and  C_12
REMARK    3  A    between atoms: C_4  and  C_5
REMARK    4  A    between atoms: C_4  and  C_6
REMARK    5  A    between atoms: C_4  and  C_7
REMARK    6  A    between atoms: C_5  and  C_8
REMARK                            x       y       z     vdW  Elec       q    Type
REMARK                         _______ _______ _______ _____ _____    ______ ____
ROOT
ATOM      1  C   UNL     1     -11.502 -11.072  16.743  0.00  0.00    +0.000 C 
ATOM      2  H   UNL     1     -11.439 -10.945  17.831  0.00  0.00    +0.000 HD
ENDROOT
BRANCH   1   5
ATOM      3  N   UNL     1      -9.912 -10.779  14.946  0.00  0.00    +0.000 NA
ATOM      4  N   UNL     1      -7.929 -12.145  16.385  0.00  0.00    +0.000 NA
ATOM      5  C   UNL     1     -10.113 -11.281  16.166  0.00  0.00    +0.000 A 
ATOM      6  C   UNL     1      -9.166 -11.948  16.884  0.00  0.00    +0.000 A 
ATOM      7  C   UNL     1      -8.674 -10.975  14.448  0.00  0.00    +0.000 A 
ATOM      8  C   UNL     1      -7.700 -11.646  15.154  0.00  0.00    +0.000 A 
ATOM      9  H   UNL     1      -8.490 -10.575  13.458  0.00  0.00    +0.000 HD
ATOM     10  H   UNL     1      -6.708 -11.803  14.753  0.00  0.00    +0.000 HD
BRANCH   6  11
ATOM     11  O   UNL     1      -9.420 -12.447  18.131  0.00  0.00    +0.000 OA
BRANCH  11  12
ATOM     12  C   UNL     1      -9.498 -13.864  18.255  0.00  0.00    +0.000 C 
ATOM     13  H   UNL     1     -10.463 -14.183  17.853  0.00  0.00    +0.000 HD
ATOM     14  H   UNL     1      -9.452 -14.168  19.306  0.00  0.00    +0.000 HD
ATOM     15  H   UNL     1      -8.711 -14.352  17.672  0.00  0.00    +0.000 HD
ENDBRANCH  11  12
ENDBRANCH   6  11
ENDBRANCH   1   5
BRANCH   1  16
ATOM     16  C   UNL     1     -12.117  -9.775  16.203  0.00  0.00    +0.000 C 
ATOM     17  H   UNL     1     -13.150  -9.927  15.866  0.00  0.00    +0.000 HD
ATOM     18  H   UNL     1     -12.129  -8.999  16.976  0.00  0.00    +0.000 HD
ATOM     19  H   UNL     1     -11.542  -9.393  15.352  0.00  0.00    +0.000 HD
ENDBRANCH   1  16
BRANCH   1  20
ATOM     20  C   UNL     1     -12.451 -12.261  16.489  0.00  0.00    +0.000 C 
ATOM     21  H   UNL     1     -11.891 -13.128  16.116  0.00  0.00    +0.000 HD
ATOM     22  H   UNL     1     -13.169 -11.989  15.706  0.00  0.00    +0.000 HD
BRANCH  20  23
ATOM     23  C   UNL     1     -13.234 -12.675  17.728  0.00  0.00    +0.000 C 
ATOM     24  H   UNL     1     -13.681 -11.795  18.201  0.00  0.00    +0.000 HD
ATOM     25  H   UNL     1     -14.046 -13.366  17.479  0.00  0.00    +0.000 HD
ATOM     26  H   UNL     1     -12.582 -13.159  18.462  0.00  0.00    +0.000 HD
ENDBRANCH  20  23
ENDBRANCH   1  20
TORSDOF 6
ENDMDL
MODEL 10
REMARK VINA RESULT:    -3.901      8.915      9.862
REMARK INTER + INTRA:          -5.126
REMARK INTER:                  -4.927
REMARK INTRA:                  -0.199
REMARK UNBOUND:                -0.199
REMARK  Name = 520098
REMARK  6 active torsions:
REMARK  status: ('A' for Active; 'I' for Inactive)
REMARK    1  A    between atoms: O_1  and  C_9
REMARK    2  A    between atoms: O_1  and  C_12
REMARK    3  A    between atoms: C_4  and  C_5
REMARK    4  A    between atoms: C_4  and  C_6
REMARK    5  A    between atoms: C_4  and  C_7
REMARK    6  A    between atoms: C_5  and  C_8
REMARK                            x       y       z     vdW  Elec       q    Type
REMARK                         _______ _______ _______ _____ _____    ______ ____
ROOT
ATOM      1  C   UNL     1      -1.601  -0.422 -11.826  0.00  0.00    +0.000 C 
ATOM      2  H   UNL     1      -1.168   0.578 -11.947  0.00  0.00    +0.000 HD
ENDROOT
BRANCH   1   5
ATOM      3  N   UNL     1      -1.354  -2.586 -12.876  0.00  0.00    +0.000 NA
ATOM      4  N   UNL     1       1.350  -2.085 -13.431  0.00  0.00    +0.000 NA
ATOM      5  C   UNL     1      -0.740  -1.449 -12.541  0.00  0.00    +0.000 A 
ATOM      6  C   UNL     1       0.571  -1.184 -12.799  0.00  0.00    +0.000 A 
ATOM      7  C   UNL     1      -0.576  -3.487 -13.509  0.00  0.00    +0.000 A 
ATOM      8  C   UNL     1       0.752  -3.241 -13.781  0.00  0.00    +0.000 A 
ATOM      9  H   UNL     1      -1.056  -4.416 -13.790  0.00  0.00    +0.000 HD
ATOM     10  H   UNL     1       1.376  -3.966 -14.288  0.00  0.00    +0.000 HD
BRANCH   6  11
ATOM     11  O   UNL     1       1.157  -0.004 -12.434  0.00  0.00    +0.000 OA
BRANCH  11  12
ATOM     12  C   UNL     1       2.006   0.618 -13.394  0.00  0.00    +0.000 C 
ATOM     13  H   UNL     1       2.737   1.224 -12.854  0.00  0.00    +0.000 HD
ATOM     14  H   UNL     1       1.434   1.283 -14.050  0.00  0.00    +0.000 HD
ATOM     15  H   UNL     1       2.552  -0.130 -13.977  0.00  0.00    +0.000 HD
ENDBRANCH  11  12
ENDBRANCH   6  11
ENDBRANCH   1   5
BRANCH   1  16
ATOM     16  C   UNL     1      -2.996  -0.357 -12.459  0.00  0.00    +0.000 C 
ATOM     17  H   UNL     1      -2.985   0.197 -13.405  0.00  0.00    +0.000 HD
ATOM     18  H   UNL     1      -3.378  -1.363 -12.665  0.00  0.00    +0.000 HD
ATOM     19  H   UNL     1      -3.707   0.141 -11.790  0.00  0.00    +0.000 HD
ENDBRANCH   1  16
BRANCH   1  20
ATOM     20  C   UNL     1      -1.714  -0.675 -10.309  0.00  0.00    +0.000 C 
ATOM     21  H   UNL     1      -1.071   0.020  -9.753  0.00  0.00    +0.000 HD
ATOM     22  H   UNL     1      -1.353  -1.686 -10.083  0.00  0.00    +0.000 HD
BRANCH  20  23
ATOM     23  C   UNL     1      -3.140  -0.553  -9.787  0.00  0.00    +0.000 C 
ATOM     24  H   UNL     1      -3.843  -0.961 -10.518  0.00  0.00    +0.000 HD
ATOM     25  H   UNL     1      -3.274  -1.105  -8.851  0.00  0.00    +0.000 HD
ATOM     26  H   UNL     1      -3.405   0.495  -9.610  0.00  0.00    +0.000 HD
ENDBRANCH  20  23
ENDBRANCH   1  20
TORSDOF 6
ENDMDL
