MODEL 1
REMARK VINA RESULT:    -4.317      0.000      0.000
REMARK INTER + INTRA:          -6.617
REMARK INTER:                  -5.944
REMARK INTRA:                  -0.673
REMARK UNBOUND:                -0.533
REMARK  Name = 61235
REMARK  8 active torsions:
REMARK  status: ('A' for Active; 'I' for Inactive)
REMARK    1  A    between atoms: C_2  and  C_3
REMARK    2  A    between atoms: C_2  and  C_4
REMARK    3  A    between atoms: C_3  and  C_5
REMARK    4  A    between atoms: C_4  and  C_6
REMARK    5  A    between atoms: C_5  and  C_7
REMARK    6  A    between atoms: C_6  and  C_8
REMARK    7  A    between atoms: C_7  and  C_9
REMARK    8  A    between atoms: C_9  and  C_10
REMARK                            x       y       z     vdW  Elec       q    Type
REMARK                         _______ _______ _______ _____ _____    ______ ____
ROOT
ATOM      1  C   UNL     1      -2.862   8.669  -8.914  0.00  0.00    +0.000 C 
ATOM      2  H   UNL     1      -3.781   8.813  -8.332  0.00  0.00    +0.000 HD
ATOM      3  H   UNL     1      -2.032   8.700  -8.198  0.00  0.00    +0.000 HD
ENDROOT
BRANCH   1   4
ATOM      4  C   UNL     1      -2.707   9.812  -9.922  0.00  0.00    +0.000 C 
ATOM      5  H   UNL     1      -3.042  10.752  -9.467  0.00  0.00    +0.000 HD
ATOM      6  H   UNL     1      -3.351   9.624 -10.790  0.00  0.00    +0.000 HD
BRANCH   4   7
ATOM      7  C   UNL     1      -1.254   9.950 -10.383  0.00  0.00    +0.000 C 
ATOM      8  H   UNL     1      -0.853  10.916 -10.055  0.00  0.00    +0.000 HD
ATOM      9  H   UNL     1      -0.644   9.170  -9.911  0.00  0.00    +0.000 HD
BRANCH   7  10
ATOM     10  C   UNL     1      -1.141   9.835 -11.903  0.00  0.00    +0.000 C 
ATOM     11  H   UNL     1      -2.140   9.844 -12.353  0.00  0.00    +0.000 HD
ATOM     12  H   UNL     1      -0.596  10.699 -12.301  0.00  0.00    +0.000 HD
BRANCH  10  13
ATOM     13  C   UNL     1      -0.424   8.558 -12.313  0.00  0.00    +0.000 C 
ATOM     14  H   UNL     1       0.588   8.787 -12.661  0.00  0.00    +0.000 HD
ATOM     15  H   UNL     1      -0.344   7.865 -11.469  0.00  0.00    +0.000 HD
ATOM     16  H   UNL     1      -0.956   8.052 -13.125  0.00  0.00    +0.000 HD
ENDBRANCH  10  13
ENDBRANCH   7  10
ENDBRANCH   4   7
ENDBRANCH   1   4
BRANCH   1  17
ATOM     17  C   UNL     1      -2.896   7.299  -9.588  0.00  0.00    +0.000 C 
ATOM     18  H   UNL     1      -2.437   7.364 -10.582  0.00  0.00    +0.000 HD
ATOM     19  H   UNL     1      -2.323   6.582  -8.989  0.00  0.00    +0.000 HD
BRANCH  17  21
ATOM     20  O   UNL     1      -4.922   6.227  -8.830  0.00  0.00    +0.000 OA
ATOM     21  C   UNL     1      -4.298   6.732  -9.761  0.00  0.00    +0.000 C 
BRANCH  21  22
ATOM     22  C   UNL     1      -4.861   6.796 -11.172  0.00  0.00    +0.000 C 
ATOM     23  H   UNL     1      -5.567   7.631 -11.221  0.00  0.00    +0.000 HD
ATOM     24  H   UNL     1      -5.405   5.865 -11.364  0.00  0.00    +0.000 HD
BRANCH  22  25
ATOM     25  C   UNL     1      -3.784   6.980 -12.226  0.00  0.00    +0.000 C 
ATOM     26  H   UNL     1      -2.790   7.025 -11.769  0.00  0.00    +0.000 HD
ATOM     27  H   UNL     1      -3.949   7.908 -12.782  0.00  0.00    +0.000 HD
ATOM     28  H   UNL     1      -3.787   6.148 -12.939  0.00  0.00    +0.000 HD
ENDBRANCH  22  25
ENDBRANCH  21  22
ENDBRANCH  17  21
ENDBRANCH   1  17
TORSDOF 8
ENDMDL
MODEL 2
REMARK VINA RESULT:    -4.206      1.495      3.107
REMARK INTER + INTRA:          -6.460
REMARK INTER:                  -5.648
REMARK INTRA:                  -0.812
REMARK UNBOUND:                -0.533
REMARK  Name = 61235
REMARK  8 active torsions:
REMARK  status: ('A' for Active; 'I' for Inactive)
REMARK    1  A    between atoms: C_2  and  C_3
REMARK    2  A    between atoms: C_2  and  C_4
REMARK    3  A    between atoms: C_3  and  C_5
REMARK    4  A    between atoms: C_4  and  C_6
REMARK    5  A    between atoms: C_5  and  C_7
REMARK    6  A    between atoms: C_6  and  C_8
REMARK    7  A    between atoms: C_7  and  C_9
REMARK    8  A    between atoms: C_9  and  C_10
REMARK                            x       y       z     vdW  Elec       q    Type
REMARK                         _______ _______ _______ _____ _____    ______ ____
ROOT
ATOM      1  C   UNL     1      -3.907   7.056 -11.151  0.00  0.00    +0.000 C 
ATOM      2  H   UNL     1      -4.573   6.203 -10.973  0.00  0.00    +0.000 HD
ATOM      3  H   UNL     1      -4.539   7.953 -11.145  0.00  0.00    +0.000 HD
ENDROOT
BRANCH   1   4
ATOM      4  C   UNL     1      -3.241   6.913 -12.524  0.00  0.00    +0.000 C 
ATOM      5  H   UNL     1      -3.529   7.758 -13.161  0.00  0.00    +0.000 HD
ATOM      6  H   UNL     1      -3.603   6.000 -13.012  0.00  0.00    +0.000 HD
BRANCH   4   7
ATOM      7  C   UNL     1      -1.717   6.858 -12.397  0.00  0.00    +0.000 C 
ATOM      8  H   UNL     1      -1.426   7.065 -11.360  0.00  0.00    +0.000 HD
ATOM      9  H   UNL     1      -1.366   5.846 -12.636  0.00  0.00    +0.000 HD
BRANCH   7  10
ATOM     10  C   UNL     1      -1.046   7.864 -13.331  0.00  0.00    +0.000 C 
ATOM     11  H   UNL     1      -0.270   8.417 -12.788  0.00  0.00    +0.000 HD
ATOM     12  H   UNL     1      -0.552   7.335 -14.154  0.00  0.00    +0.000 HD
BRANCH  10  13
ATOM     13  C   UNL     1      -2.051   8.852 -13.903  0.00  0.00    +0.000 C 
ATOM     14  H   UNL     1      -1.650   9.869 -13.856  0.00  0.00    +0.000 HD
ATOM     15  H   UNL     1      -2.274   8.623 -14.950  0.00  0.00    +0.000 HD
ATOM     16  H   UNL     1      -2.988   8.829 -13.338  0.00  0.00    +0.000 HD
ENDBRANCH  10  13
ENDBRANCH   7  10
ENDBRANCH   4   7
ENDBRANCH   1   4
BRANCH   1  17
ATOM     17  C   UNL     1      -2.887   7.150 -10.017  0.00  0.00    +0.000 C 
ATOM     18  H   UNL     1      -3.062   6.344  -9.295  0.00  0.00    +0.000 HD
ATOM     19  H   UNL     1      -1.876   7.036 -10.424  0.00  0.00    +0.000 HD
BRANCH  17  21
ATOM     20  O   UNL     1      -3.134   8.525  -8.049  0.00  0.00    +0.000 OA
ATOM     21  C   UNL     1      -2.929   8.469  -9.260  0.00  0.00    +0.000 C 
BRANCH  21  22
ATOM     22  C   UNL     1      -2.739   9.717 -10.106  0.00  0.00    +0.000 C 
ATOM     23  H   UNL     1      -3.180  10.564  -9.572  0.00  0.00    +0.000 HD
ATOM     24  H   UNL     1      -3.281   9.576 -11.048  0.00  0.00    +0.000 HD
BRANCH  22  25
ATOM     25  C   UNL     1      -1.279  10.009 -10.402  0.00  0.00    +0.000 C 
ATOM     26  H   UNL     1      -0.972  10.963  -9.962  0.00  0.00    +0.000 HD
ATOM     27  H   UNL     1      -1.112  10.061 -11.482  0.00  0.00    +0.000 HD
ATOM     28  H   UNL     1      -0.631   9.227  -9.993  0.00  0.00    +0.000 HD
ENDBRANCH  22  25
ENDBRANCH  21  22
ENDBRANCH  17  21
ENDBRANCH   1  17
TORSDOF 8
ENDMDL
MODEL 3
REMARK VINA RESULT:    -4.197      1.809      2.932
REMARK INTER + INTRA:          -6.447
REMARK INTER:                  -5.846
REMARK INTRA:                  -0.601
REMARK UNBOUND:                -0.533
REMARK  Name = 61235
REMARK  8 active torsions:
REMARK  status: ('A' for Active; 'I' for Inactive)
REMARK    1  A    between atoms: C_2  and  C_3
REMARK    2  A    between atoms: C_2  and  C_4
REMARK    3  A    between atoms: C_3  and  C_5
REMARK    4  A    between atoms: C_4  and  C_6
REMARK    5  A    between atoms: C_5  and  C_7
REMARK    6  A    between atoms: C_6  and  C_8
REMARK    7  A    between atoms: C_7  and  C_9
REMARK    8  A    between atoms: C_9  and  C_10
REMARK                            x       y       z     vdW  Elec       q    Type
REMARK                         _______ _______ _______ _____ _____    ______ ____
ROOT
ATOM      1  C   UNL     1      -2.983   6.789  -9.940  0.00  0.00    +0.000 C 
ATOM      2  H   UNL     1      -2.868   5.766  -9.560  0.00  0.00    +0.000 HD
ATOM      3  H   UNL     1      -1.990   7.111 -10.275  0.00  0.00    +0.000 HD
ENDROOT
BRANCH   1   4
ATOM      4  C   UNL     1      -3.462   7.707  -8.811  0.00  0.00    +0.000 C 
ATOM      5  H   UNL     1      -3.470   7.152  -7.865  0.00  0.00    +0.000 HD
ATOM      6  H   UNL     1      -4.494   8.023  -9.010  0.00  0.00    +0.000 HD
BRANCH   4   7
ATOM      7  C   UNL     1      -2.565   8.939  -8.680  0.00  0.00    +0.000 C 
ATOM      8  H   UNL     1      -2.870   9.527  -7.806  0.00  0.00    +0.000 HD
ATOM      9  H   UNL     1      -1.528   8.622  -8.510  0.00  0.00    +0.000 HD
BRANCH   7  10
ATOM     10  C   UNL     1      -2.631   9.809  -9.935  0.00  0.00    +0.000 C 
ATOM     11  H   UNL     1      -3.220   9.304 -10.709  0.00  0.00    +0.000 HD
ATOM     12  H   UNL     1      -3.138  10.754  -9.706  0.00  0.00    +0.000 HD
BRANCH  10  13
ATOM     13  C   UNL     1      -1.243  10.105 -10.482  0.00  0.00    +0.000 C 
ATOM     14  H   UNL     1      -0.956   9.347 -11.217  0.00  0.00    +0.000 HD
ATOM     15  H   UNL     1      -1.216  11.083 -10.974  0.00  0.00    +0.000 HD
ATOM     16  H   UNL     1      -0.496  10.102  -9.681  0.00  0.00    +0.000 HD
ENDBRANCH  10  13
ENDBRANCH   7  10
ENDBRANCH   4   7
ENDBRANCH   1   4
BRANCH   1  17
ATOM     17  C   UNL     1      -3.940   6.784 -11.131  0.00  0.00    +0.000 C 
ATOM     18  H   UNL     1      -4.384   5.788 -11.246  0.00  0.00    +0.000 HD
ATOM     19  H   UNL     1      -4.747   7.504 -10.955  0.00  0.00    +0.000 HD
BRANCH  17  21
ATOM     20  O   UNL     1      -3.911   7.633 -13.391  0.00  0.00    +0.000 OA
ATOM     21  C   UNL     1      -3.279   7.152 -12.452  0.00  0.00    +0.000 C 
BRANCH  21  22
ATOM     22  C   UNL     1      -1.793   6.850 -12.548  0.00  0.00    +0.000 C 
ATOM     23  H   UNL     1      -1.673   5.865 -13.011  0.00  0.00    +0.000 HD
ATOM     24  H   UNL     1      -1.387   6.810 -11.531  0.00  0.00    +0.000 HD
BRANCH  22  25
ATOM     25  C   UNL     1      -1.033   7.887 -13.355  0.00  0.00    +0.000 C 
ATOM     26  H   UNL     1      -1.029   7.630 -14.420  0.00  0.00    +0.000 HD
ATOM     27  H   UNL     1       0.004   7.951 -13.014  0.00  0.00    +0.000 HD
ATOM     28  H   UNL     1      -1.490   8.877 -13.252  0.00  0.00    +0.000 HD
ENDBRANCH  22  25
ENDBRANCH  21  22
ENDBRANCH  17  21
ENDBRANCH   1  17
TORSDOF 8
ENDMDL
MODEL 4
REMARK VINA RESULT:    -4.058      2.858      4.408
REMARK INTER + INTRA:          -6.252
REMARK INTER:                  -5.747
REMARK INTRA:                  -0.505
REMARK UNBOUND:                -0.533
REMARK  Name = 61235
REMARK  8 active torsions:
REMARK  status: ('A' for Active; 'I' for Inactive)
REMARK    1  A    between atoms: C_2  and  C_3
REMARK    2  A    between atoms: C_2  and  C_4
REMARK    3  A    between atoms: C_3  and  C_5
REMARK    4  A    between atoms: C_4  and  C_6
REMARK    5  A    between atoms: C_5  and  C_7
REMARK    6  A    between atoms: C_6  and  C_8
REMARK    7  A    between atoms: C_7  and  C_9
REMARK    8  A    between atoms: C_9  and  C_10
REMARK                            x       y       z     vdW  Elec       q    Type
REMARK                         _______ _______ _______ _____ _____    ______ ____
ROOT
ATOM      1  C   UNL     1      -1.136  10.101 -11.711  0.00  0.00    +0.000 C 
ATOM      2  H   UNL     1      -0.797  11.119 -11.937  0.00  0.00    +0.000 HD
ATOM      3  H   UNL     1      -2.088   9.964 -12.240  0.00  0.00    +0.000 HD
ENDROOT
BRANCH   1   4
ATOM      4  C   UNL     1      -1.367   9.957 -10.203  0.00  0.00    +0.000 C 
ATOM      5  H   UNL     1      -1.096  10.892  -9.699  0.00  0.00    +0.000 HD
ATOM      6  H   UNL     1      -0.712   9.172  -9.806  0.00  0.00    +0.000 HD
BRANCH   4   7
ATOM      7  C   UNL     1      -2.826   9.610  -9.897  0.00  0.00    +0.000 C 
ATOM      8  H   UNL     1      -3.346  10.500  -9.525  0.00  0.00    +0.000 HD
ATOM      9  H   UNL     1      -3.331   9.303 -10.821  0.00  0.00    +0.000 HD
BRANCH   7  10
ATOM     10  C   UNL     1      -2.924   8.487  -8.865  0.00  0.00    +0.000 C 
ATOM     11  H   UNL     1      -2.012   8.457  -8.258  0.00  0.00    +0.000 HD
ATOM     12  H   UNL     1      -3.762   8.679  -8.185  0.00  0.00    +0.000 HD
BRANCH  10  13
ATOM     13  C   UNL     1      -3.121   7.134  -9.531  0.00  0.00    +0.000 C 
ATOM     14  H   UNL     1      -2.515   6.373  -9.029  0.00  0.00    +0.000 HD
ATOM     15  H   UNL     1      -4.169   6.820  -9.481  0.00  0.00    +0.000 HD
ATOM     16  H   UNL     1      -2.822   7.167 -10.584  0.00  0.00    +0.000 HD
ENDBRANCH  10  13
ENDBRANCH   7  10
ENDBRANCH   4   7
ENDBRANCH   1   4
BRANCH   1  17
ATOM     17  C   UNL     1      -0.116   9.095 -12.242  0.00  0.00    +0.000 C 
ATOM     18  H   UNL     1       0.891   9.523 -12.181  0.00  0.00    +0.000 HD
ATOM     19  H   UNL     1      -0.144   8.187 -11.628  0.00  0.00    +0.000 HD
BRANCH  17  21
ATOM     20  O   UNL     1       0.432   8.951 -14.588  0.00  0.00    +0.000 OA
ATOM     21  C   UNL     1      -0.357   8.677 -13.685  0.00  0.00    +0.000 C 
BRANCH  21  22
ATOM     22  C   UNL     1      -1.657   7.934 -13.944  0.00  0.00    +0.000 C 
ATOM     23  H   UNL     1      -1.642   7.567 -14.975  0.00  0.00    +0.000 HD
ATOM     24  H   UNL     1      -2.483   8.645 -13.837  0.00  0.00    +0.000 HD
BRANCH  22  25
ATOM     25  C   UNL     1      -1.867   6.769 -12.994  0.00  0.00    +0.000 C 
ATOM     26  H   UNL     1      -1.000   6.100 -12.995  0.00  0.00    +0.000 HD
ATOM     27  H   UNL     1      -2.746   6.189 -13.289  0.00  0.00    +0.000 HD
ATOM     28  H   UNL     1      -2.017   7.121 -11.968  0.00  0.00    +0.000 HD
ENDBRANCH  22  25
ENDBRANCH  21  22
ENDBRANCH  17  21
ENDBRANCH   1  17
TORSDOF 8
ENDMDL
MODEL 5
REMARK VINA RESULT:    -3.950     16.871     18.450
REMARK INTER + INTRA:          -6.099
REMARK INTER:                  -5.766
REMARK INTRA:                  -0.334
REMARK UNBOUND:                -0.533
REMARK  Name = 61235
REMARK  8 active torsions:
REMARK  status: ('A' for Active; 'I' for Inactive)
REMARK    1  A    between atoms: C_2  and  C_3
REMARK    2  A    between atoms: C_2  and  C_4
REMARK    3  A    between atoms: C_3  and  C_5
REMARK    4  A    between atoms: C_4  and  C_6
REMARK    5  A    between atoms: C_5  and  C_7
REMARK    6  A    between atoms: C_6  and  C_8
REMARK    7  A    between atoms: C_7  and  C_9
REMARK    8  A    between atoms: C_9  and  C_10
REMARK                            x       y       z     vdW  Elec       q    Type
REMARK                         _______ _______ _______ _____ _____    ______ ____
ROOT
ATOM      1  C   UNL     1      -8.074  11.507   6.976  0.00  0.00    +0.000 C 
ATOM      2  H   UNL     1      -7.968  12.592   7.092  0.00  0.00    +0.000 HD
ATOM      3  H   UNL     1      -7.110  11.067   7.262  0.00  0.00    +0.000 HD
ENDROOT
BRANCH   1   4
ATOM      4  C   UNL     1      -8.373  11.170   5.512  0.00  0.00    +0.000 C 
ATOM      5  H   UNL     1      -9.339  11.601   5.226  0.00  0.00    +0.000 HD
ATOM      6  H   UNL     1      -8.456  10.083   5.397  0.00  0.00    +0.000 HD
BRANCH   4   7
ATOM      7  C   UNL     1      -7.276  11.701   4.587  0.00  0.00    +0.000 C 
ATOM      8  H   UNL     1      -6.489  10.947   4.477  0.00  0.00    +0.000 HD
ATOM      9  H   UNL     1      -7.694  11.880   3.588  0.00  0.00    +0.000 HD
BRANCH   7  10
ATOM     10  C   UNL     1      -6.675  12.999   5.126  0.00  0.00    +0.000 C 
ATOM     11  H   UNL     1      -6.617  12.957   6.220  0.00  0.00    +0.000 HD
ATOM     12  H   UNL     1      -5.652  13.119   4.750  0.00  0.00    +0.000 HD
BRANCH  10  13
ATOM     13  C   UNL     1      -7.503  14.208   4.719  0.00  0.00    +0.000 C 
ATOM     14  H   UNL     1      -6.968  15.132   4.962  0.00  0.00    +0.000 HD
ATOM     15  H   UNL     1      -7.701  14.204   3.642  0.00  0.00    +0.000 HD
ATOM     16  H   UNL     1      -8.463  14.222   5.246  0.00  0.00    +0.000 HD
ENDBRANCH  10  13
ENDBRANCH   7  10
ENDBRANCH   4   7
ENDBRANCH   1   4
BRANCH   1  17
ATOM     17  C   UNL     1      -9.159  10.999   7.924  0.00  0.00    +0.000 C 
ATOM     18  H   UNL     1      -8.837  11.134   8.963  0.00  0.00    +0.000 HD
ATOM     19  H   UNL     1     -10.079  11.575   7.770  0.00  0.00    +0.000 HD
BRANCH  17  21
ATOM     20  O   UNL     1     -10.627   9.156   7.398  0.00  0.00    +0.000 OA
ATOM     21  C   UNL     1      -9.504   9.529   7.733  0.00  0.00    +0.000 C 
BRANCH  21  22
ATOM     22  C   UNL     1      -8.379   8.549   8.024  0.00  0.00    +0.000 C 
ATOM     23  H   UNL     1      -7.567   8.741   7.316  0.00  0.00    +0.000 HD
ATOM     24  H   UNL     1      -8.759   7.535   7.855  0.00  0.00    +0.000 HD
BRANCH  22  25
ATOM     25  C   UNL     1      -7.853   8.662   9.443  0.00  0.00    +0.000 C 
ATOM     26  H   UNL     1      -6.823   8.299   9.510  0.00  0.00    +0.000 HD
ATOM     27  H   UNL     1      -8.470   8.072  10.127  0.00  0.00    +0.000 HD
ATOM     28  H   UNL     1      -7.864   9.703   9.784  0.00  0.00    +0.000 HD
ENDBRANCH  22  25
ENDBRANCH  21  22
ENDBRANCH  17  21
ENDBRANCH   1  17
TORSDOF 8
ENDMDL
MODEL 6
REMARK VINA RESULT:    -3.930     18.008     19.439
REMARK INTER + INTRA:          -6.071
REMARK INTER:                  -5.721
REMARK INTRA:                  -0.350
REMARK UNBOUND:                -0.533
REMARK  Name = 61235
REMARK  8 active torsions:
REMARK  status: ('A' for Active; 'I' for Inactive)
REMARK    1  A    between atoms: C_2  and  C_3
REMARK    2  A    between atoms: C_2  and  C_4
REMARK    3  A    between atoms: C_3  and  C_5
REMARK    4  A    between atoms: C_4  and  C_6
REMARK    5  A    between atoms: C_5  and  C_7
REMARK    6  A    between atoms: C_6  and  C_8
REMARK    7  A    between atoms: C_7  and  C_9
REMARK    8  A    between atoms: C_9  and  C_10
REMARK                            x       y       z     vdW  Elec       q    Type
REMARK                         _______ _______ _______ _____ _____    ______ ____
ROOT
ATOM      1  C   UNL     1       6.913   9.325   5.952  0.00  0.00    +0.000 C 
ATOM      2  H   UNL     1       6.197   8.825   6.616  0.00  0.00    +0.000 HD
ATOM      3  H   UNL     1       6.427  10.245   5.604  0.00  0.00    +0.000 HD
ENDROOT
BRANCH   1   4
ATOM      4  C   UNL     1       7.217   8.424   4.751  0.00  0.00    +0.000 C 
ATOM      5  H   UNL     1       8.282   8.165   4.746  0.00  0.00    +0.000 HD
ATOM      6  H   UNL     1       7.013   8.972   3.823  0.00  0.00    +0.000 HD
BRANCH   4   7
ATOM      7  C   UNL     1       6.374   7.147   4.788  0.00  0.00    +0.000 C 
ATOM      8  H   UNL     1       6.994   6.306   5.122  0.00  0.00    +0.000 HD
ATOM      9  H   UNL     1       5.566   7.263   5.521  0.00  0.00    +0.000 HD
BRANCH   7  10
ATOM     10  C   UNL     1       5.778   6.835   3.416  0.00  0.00    +0.000 C 
ATOM     11  H   UNL     1       5.997   5.797   3.142  0.00  0.00    +0.000 HD
ATOM     12  H   UNL     1       4.687   6.938   3.453  0.00  0.00    +0.000 HD
BRANCH  10  13
ATOM     13  C   UNL     1       6.333   7.759   2.344  0.00  0.00    +0.000 C 
ATOM     14  H   UNL     1       6.850   8.607   2.804  0.00  0.00    +0.000 HD
ATOM     15  H   UNL     1       7.048   7.232   1.704  0.00  0.00    +0.000 HD
ATOM     16  H   UNL     1       5.530   8.154   1.711  0.00  0.00    +0.000 HD
ENDBRANCH  10  13
ENDBRANCH   7  10
ENDBRANCH   4   7
ENDBRANCH   1   4
BRANCH   1  17
ATOM     17  C   UNL     1       8.170   9.686   6.741  0.00  0.00    +0.000 C 
ATOM     18  H   UNL     1       7.971   9.597   7.816  0.00  0.00    +0.000 HD
ATOM     19  H   UNL     1       8.977   8.992   6.481  0.00  0.00    +0.000 HD
BRANCH  17  21
ATOM     20  O   UNL     1       8.026  12.095   6.776  0.00  0.00    +0.000 OA
ATOM     21  C   UNL     1       8.678  11.096   6.478  0.00  0.00    +0.000 C 
BRANCH  21  22
ATOM     22  C   UNL     1      10.028  11.188   5.787  0.00  0.00    +0.000 C 
ATOM     23  H   UNL     1      10.700  10.458   6.250  0.00  0.00    +0.000 HD
ATOM     24  H   UNL     1      10.431  12.192   5.958  0.00  0.00    +0.000 HD
BRANCH  22  25
ATOM     25  C   UNL     1       9.943  10.925   4.294  0.00  0.00    +0.000 C 
ATOM     26  H   UNL     1       8.923  10.660   3.999  0.00  0.00    +0.000 HD
ATOM     27  H   UNL     1      10.606  10.102   4.014  0.00  0.00    +0.000 HD
ATOM     28  H   UNL     1      10.237  11.812   3.722  0.00  0.00    +0.000 HD
ENDBRANCH  22  25
ENDBRANCH  21  22
ENDBRANCH  17  21
ENDBRANCH   1  17
TORSDOF 8
ENDMDL
MODEL 7
REMARK VINA RESULT:    -3.925      7.313      9.152
REMARK INTER + INTRA:          -6.064
REMARK INTER:                  -5.604
REMARK INTRA:                  -0.460
REMARK UNBOUND:                -0.533
REMARK  Name = 61235
REMARK  8 active torsions:
REMARK  status: ('A' for Active; 'I' for Inactive)
REMARK    1  A    between atoms: C_2  and  C_3
REMARK    2  A    between atoms: C_2  and  C_4
REMARK    3  A    between atoms: C_3  and  C_5
REMARK    4  A    between atoms: C_4  and  C_6
REMARK    5  A    between atoms: C_5  and  C_7
REMARK    6  A    between atoms: C_6  and  C_8
REMARK    7  A    between atoms: C_7  and  C_9
REMARK    8  A    between atoms: C_9  and  C_10
REMARK                            x       y       z     vdW  Elec       q    Type
REMARK                         _______ _______ _______ _____ _____    ______ ____
ROOT
ATOM      1  C   UNL     1      -8.066   6.162  -6.698  0.00  0.00    +0.000 C 
ATOM      2  H   UNL     1      -8.595   6.383  -7.633  0.00  0.00    +0.000 HD
ATOM      3  H   UNL     1      -7.023   6.469  -6.848  0.00  0.00    +0.000 HD
ENDROOT
BRANCH   1   4
ATOM      4  C   UNL     1      -8.117   4.656  -6.420  0.00  0.00    +0.000 C 
ATOM      5  H   UNL     1      -7.210   4.179  -6.810  0.00  0.00    +0.000 HD
ATOM      6  H   UNL     1      -8.969   4.216  -6.952  0.00  0.00    +0.000 HD
BRANCH   4   7
ATOM      7  C   UNL     1      -8.247   4.373  -4.922  0.00  0.00    +0.000 C 
ATOM      8  H   UNL     1      -7.254   4.193  -4.493  0.00  0.00    +0.000 HD
ATOM      9  H   UNL     1      -8.661   5.255  -4.417  0.00  0.00    +0.000 HD
BRANCH   7  10
ATOM     10  C   UNL     1      -9.148   3.167  -4.661  0.00  0.00    +0.000 C 
ATOM     11  H   UNL     1      -8.675   2.257  -5.048  0.00  0.00    +0.000 HD
ATOM     12  H   UNL     1      -9.282   3.030  -3.581  0.00  0.00    +0.000 HD
BRANCH  10  13
ATOM     13  C   UNL     1     -10.510   3.336  -5.316  0.00  0.00    +0.000 C 
ATOM     14  H   UNL     1     -10.460   3.048  -6.371  0.00  0.00    +0.000 HD
ATOM     15  H   UNL     1     -11.261   2.707  -4.827  0.00  0.00    +0.000 HD
ATOM     16  H   UNL     1     -10.845   4.377  -5.264  0.00  0.00    +0.000 HD
ENDBRANCH  10  13
ENDBRANCH   7  10
ENDBRANCH   4   7
ENDBRANCH   1   4
BRANCH   1  17
ATOM     17  C   UNL     1      -8.674   6.984  -5.562  0.00  0.00    +0.000 C 
ATOM     18  H   UNL     1      -8.719   6.378  -4.650  0.00  0.00    +0.000 HD
ATOM     19  H   UNL     1      -8.043   7.858  -5.365  0.00  0.00    +0.000 HD
BRANCH  17  21
ATOM     20  O   UNL     1     -11.018   6.729  -6.079  0.00  0.00    +0.000 OA
ATOM     21  C   UNL     1     -10.079   7.490  -5.853  0.00  0.00    +0.000 C 
BRANCH  21  22
ATOM     22  C   UNL     1     -10.237   9.001  -5.886  0.00  0.00    +0.000 C 
ATOM     23  H   UNL     1      -9.307   9.451  -5.524  0.00  0.00    +0.000 HD
ATOM     24  H   UNL     1     -11.047   9.274  -5.201  0.00  0.00    +0.000 HD
BRANCH  22  25
ATOM     25  C   UNL     1     -10.549   9.530  -7.274  0.00  0.00    +0.000 C 
ATOM     26  H   UNL     1     -11.305  10.320  -7.233  0.00  0.00    +0.000 HD
ATOM     27  H   UNL     1     -10.928   8.726  -7.912  0.00  0.00    +0.000 HD
ATOM     28  H   UNL     1      -9.653   9.949  -7.746  0.00  0.00    +0.000 HD
ENDBRANCH  22  25
ENDBRANCH  21  22
ENDBRANCH  17  21
ENDBRANCH   1  17
TORSDOF 8
ENDMDL
MODEL 8
REMARK VINA RESULT:    -3.876     17.910     19.341
REMARK INTER + INTRA:          -5.996
REMARK INTER:                  -5.614
REMARK INTRA:                  -0.382
REMARK UNBOUND:                -0.533
REMARK  Name = 61235
REMARK  8 active torsions:
REMARK  status: ('A' for Active; 'I' for Inactive)
REMARK    1  A    between atoms: C_2  and  C_3
REMARK    2  A    between atoms: C_2  and  C_4
REMARK    3  A    between atoms: C_3  and  C_5
REMARK    4  A    between atoms: C_4  and  C_6
REMARK    5  A    between atoms: C_5  and  C_7
REMARK    6  A    between atoms: C_6  and  C_8
REMARK    7  A    between atoms: C_7  and  C_9
REMARK    8  A    between atoms: C_9  and  C_10
REMARK                            x       y       z     vdW  Elec       q    Type
REMARK                         _______ _______ _______ _____ _____    ______ ____
ROOT
ATOM      1  C   UNL     1       6.566   8.690   5.466  0.00  0.00    +0.000 C 
ATOM      2  H   UNL     1       6.045   8.662   6.431  0.00  0.00    +0.000 HD
ATOM      3  H   UNL     1       6.004   9.384   4.828  0.00  0.00    +0.000 HD
ENDROOT
BRANCH   1   4
ATOM      4  C   UNL     1       6.555   7.295   4.833  0.00  0.00    +0.000 C 
ATOM      5  H   UNL     1       6.526   6.534   5.621  0.00  0.00    +0.000 HD
ATOM      6  H   UNL     1       7.483   7.143   4.269  0.00  0.00    +0.000 HD
BRANCH   4   7
ATOM      7  C   UNL     1       5.354   7.119   3.901  0.00  0.00    +0.000 C 
ATOM      8  H   UNL     1       5.352   6.103   3.490  0.00  0.00    +0.000 HD
ATOM      9  H   UNL     1       4.425   7.238   4.473  0.00  0.00    +0.000 HD
BRANCH   7  10
ATOM     10  C   UNL     1       5.383   8.136   2.760  0.00  0.00    +0.000 C 
ATOM     11  H   UNL     1       4.442   8.092   2.198  0.00  0.00    +0.000 HD
ATOM     12  H   UNL     1       5.472   9.150   3.167  0.00  0.00    +0.000 HD
BRANCH  10  13
ATOM     13  C   UNL     1       6.541   7.874   1.809  0.00  0.00    +0.000 C 
ATOM     14  H   UNL     1       6.724   6.799   1.723  0.00  0.00    +0.000 HD
ATOM     15  H   UNL     1       6.323   8.263   0.809  0.00  0.00    +0.000 HD
ATOM     16  H   UNL     1       7.460   8.348   2.170  0.00  0.00    +0.000 HD
ENDBRANCH  10  13
ENDBRANCH   7  10
ENDBRANCH   4   7
ENDBRANCH   1   4
BRANCH   1  17
ATOM     17  C   UNL     1       7.982   9.227   5.667  0.00  0.00    +0.000 C 
ATOM     18  H   UNL     1       8.673   8.392   5.839  0.00  0.00    +0.000 HD
ATOM     19  H   UNL     1       8.303   9.761   4.766  0.00  0.00    +0.000 HD
BRANCH  17  21
ATOM     20  O   UNL     1       7.995  11.405   6.709  0.00  0.00    +0.000 OA
ATOM     21  C   UNL     1       8.115  10.188   6.840  0.00  0.00    +0.000 C 
BRANCH  21  22
ATOM     22  C   UNL     1       8.446   9.547   8.177  0.00  0.00    +0.000 C 
ATOM     23  H   UNL     1       7.510   9.384   8.720  0.00  0.00    +0.000 HD
ATOM     24  H   UNL     1       9.064  10.250   8.748  0.00  0.00    +0.000 HD
BRANCH  22  25
ATOM     25  C   UNL     1       9.184   8.229   8.031  0.00  0.00    +0.000 C 
ATOM     26  H   UNL     1       8.876   7.518   8.804  0.00  0.00    +0.000 HD
ATOM     27  H   UNL     1      10.264   8.384   8.119  0.00  0.00    +0.000 HD
ATOM     28  H   UNL     1       8.982   7.772   7.057  0.00  0.00    +0.000 HD
ENDBRANCH  22  25
ENDBRANCH  21  22
ENDBRANCH  17  21
ENDBRANCH   1  17
TORSDOF 8
ENDMDL
MODEL 9
REMARK VINA RESULT:    -3.876      2.022      3.156
REMARK INTER + INTRA:          -5.996
REMARK INTER:                  -5.300
REMARK INTRA:                  -0.696
REMARK UNBOUND:                -0.533
REMARK  Name = 61235
REMARK  8 active torsions:
REMARK  status: ('A' for Active; 'I' for Inactive)
REMARK    1  A    between atoms: C_2  and  C_3
REMARK    2  A    between atoms: C_2  and  C_4
REMARK    3  A    between atoms: C_3  and  C_5
REMARK    4  A    between atoms: C_4  and  C_6
REMARK    5  A    between atoms: C_5  and  C_7
REMARK    6  A    between atoms: C_6  and  C_8
REMARK    7  A    between atoms: C_7  and  C_9
REMARK    8  A    between atoms: C_9  and  C_10
REMARK                            x       y       z     vdW  Elec       q    Type
REMARK                         _______ _______ _______ _____ _____    ______ ____
ROOT
ATOM      1  C   UNL     1      -4.216   6.796 -10.369  0.00  0.00    +0.000 C 
ATOM      2  H   UNL     1      -4.999   7.479 -10.019  0.00  0.00    +0.000 HD
ATOM      3  H   UNL     1      -4.511   5.790 -10.046  0.00  0.00    +0.000 HD
ENDROOT
BRANCH   1   4
ATOM      4  C   UNL     1      -2.880   7.167  -9.718  0.00  0.00    +0.000 C 
ATOM      5  H   UNL     1      -2.165   7.469 -10.492  0.00  0.00    +0.000 HD
ATOM      6  H   UNL     1      -2.461   6.286  -9.216  0.00  0.00    +0.000 HD
BRANCH   4   7
ATOM      7  C   UNL     1      -3.053   8.300  -8.704  0.00  0.00    +0.000 C 
ATOM      8  H   UNL     1      -4.048   8.236  -8.247  0.00  0.00    +0.000 HD
ATOM      9  H   UNL     1      -2.319   8.186  -7.897  0.00  0.00    +0.000 HD
BRANCH   7  10
ATOM     10  C   UNL     1      -2.876   9.667  -9.364  0.00  0.00    +0.000 C 
ATOM     11  H   UNL     1      -3.706   9.859 -10.054  0.00  0.00    +0.000 HD
ATOM     12  H   UNL     1      -2.899  10.454  -8.601  0.00  0.00    +0.000 HD
BRANCH  10  13
ATOM     13  C   UNL     1      -1.565   9.751 -10.130  0.00  0.00    +0.000 C 
ATOM     14  H   UNL     1      -1.729   9.518 -11.187  0.00  0.00    +0.000 HD
ATOM     15  H   UNL     1      -1.137  10.756 -10.066  0.00  0.00    +0.000 HD
ATOM     16  H   UNL     1      -0.833   9.039  -9.734  0.00  0.00    +0.000 HD
ENDBRANCH  10  13
ENDBRANCH   7  10
ENDBRANCH   4   7
ENDBRANCH   1   4
BRANCH   1  17
ATOM     17  C   UNL     1      -4.151   6.836 -11.895  0.00  0.00    +0.000 C 
ATOM     18  H   UNL     1      -3.104   6.864 -12.219  0.00  0.00    +0.000 HD
ATOM     19  H   UNL     1      -4.616   5.933 -12.305  0.00  0.00    +0.000 HD
BRANCH  17  21
ATOM     20  O   UNL     1      -6.079   8.073 -12.655  0.00  0.00    +0.000 OA
ATOM     21  C   UNL     1      -4.859   8.034 -12.509  0.00  0.00    +0.000 C 
BRANCH  21  22
ATOM     22  C   UNL     1      -3.954   9.165 -12.969  0.00  0.00    +0.000 C 
ATOM     23  H   UNL     1      -3.710   9.002 -14.024  0.00  0.00    +0.000 HD
ATOM     24  H   UNL     1      -3.028   9.120 -12.385  0.00  0.00    +0.000 HD
BRANCH  22  25
ATOM     25  C   UNL     1      -4.591  10.533 -12.802  0.00  0.00    +0.000 C 
ATOM     26  H   UNL     1      -4.336  10.969 -11.831  0.00  0.00    +0.000 HD
ATOM     27  H   UNL     1      -5.680  10.457 -12.869  0.00  0.00    +0.000 HD
ATOM     28  H   UNL     1      -4.247  11.224 -13.579  0.00  0.00    +0.000 HD
ENDBRANCH  22  25
ENDBRANCH  21  22
ENDBRANCH  17  21
ENDBRANCH   1  17
TORSDOF 8
ENDMDL
MODEL 10
REMARK VINA RESULT:    -3.835     16.692     18.329
REMARK INTER + INTRA:          -5.937
REMARK INTER:                  -5.404
REMARK INTRA:                  -0.533
REMARK UNBOUND:                -0.533
REMARK  Name = 61235
REMARK  8 active torsions:
REMARK  status: ('A' for Active; 'I' for Inactive)
REMARK    1  A    between atoms: C_2  and  C_3
REMARK    2  A    between atoms: C_2  and  C_4
REMARK    3  A    between atoms: C_3  and  C_5
REMARK    4  A    between atoms: C_4  and  C_6
REMARK    5  A    between atoms: C_5  and  C_7
REMARK    6  A    between atoms: C_6  and  C_8
REMARK    7  A    between atoms: C_7  and  C_9
REMARK    8  A    between atoms: C_9  and  C_10
REMARK                            x       y       z     vdW  Elec       q    Type
REMARK                         _______ _______ _______ _____ _____    ______ ____
ROOT
ATOM      1  C   UNL     1      -7.263  13.143   4.728  0.00  0.00    +0.000 C 
ATOM      2  H   UNL     1      -7.070  13.376   3.674  0.00  0.00    +0.000 HD
ATOM      3  H   UNL     1      -8.182  13.676   5.002  0.00  0.00    +0.000 HD
ENDROOT
BRANCH   1   4
ATOM      4  C   UNL     1      -6.104  13.654   5.589  0.00  0.00    +0.000 C 
ATOM      5  H   UNL     1      -5.565  14.442   5.051  0.00  0.00    +0.000 HD
ATOM      6  H   UNL     1      -5.393  12.837   5.766  0.00  0.00    +0.000 HD
BRANCH   4   7
ATOM      7  C   UNL     1      -6.606  14.195   6.930  0.00  0.00    +0.000 C 
ATOM      8  H   UNL     1      -6.497  15.286   6.952  0.00  0.00    +0.000 HD
ATOM      9  H   UNL     1      -7.676  13.976   7.036  0.00  0.00    +0.000 HD
BRANCH   7  10
ATOM     10  C   UNL     1      -5.841  13.577   8.100  0.00  0.00    +0.000 C 
ATOM     11  H   UNL     1      -5.022  12.954   7.723  0.00  0.00    +0.000 HD
ATOM     12  H   UNL     1      -5.394  14.369   8.711  0.00  0.00    +0.000 HD
BRANCH  10  13
ATOM     13  C   UNL     1      -6.750  12.725   8.972  0.00  0.00    +0.000 C 
ATOM     14  H   UNL     1      -6.607  12.976  10.027  0.00  0.00    +0.000 HD
ATOM     15  H   UNL     1      -7.803  12.893   8.723  0.00  0.00    +0.000 HD
ATOM     16  H   UNL     1      -6.532  11.659   8.843  0.00  0.00    +0.000 HD
ENDBRANCH  10  13
ENDBRANCH   7  10
ENDBRANCH   4   7
ENDBRANCH   1   4
BRANCH   1  17
ATOM     17  C   UNL     1      -7.486  11.640   4.884  0.00  0.00    +0.000 C 
ATOM     18  H   UNL     1      -7.497  11.163   3.897  0.00  0.00    +0.000 HD
ATOM     19  H   UNL     1      -6.665  11.207   5.468  0.00  0.00    +0.000 HD
BRANCH  17  21
ATOM     20  O   UNL     1      -9.880  11.684   5.195  0.00  0.00    +0.000 OA
ATOM     21  C   UNL     1      -8.787  11.280   5.588  0.00  0.00    +0.000 C 
BRANCH  21  22
ATOM     22  C   UNL     1      -8.642  10.419   6.832  0.00  0.00    +0.000 C 
ATOM     23  H   UNL     1      -7.804  10.806   7.420  0.00  0.00    +0.000 HD
ATOM     24  H   UNL     1      -8.404   9.398   6.514  0.00  0.00    +0.000 HD
BRANCH  22  25
ATOM     25  C   UNL     1      -9.897  10.404   7.685  0.00  0.00    +0.000 C 
ATOM     26  H   UNL     1     -10.793  10.297   7.065  0.00  0.00    +0.000 HD
ATOM     27  H   UNL     1      -9.983  11.335   8.254  0.00  0.00    +0.000 HD
ATOM     28  H   UNL     1      -9.880   9.570   8.395  0.00  0.00    +0.000 HD
ENDBRANCH  22  25
ENDBRANCH  21  22
ENDBRANCH  17  21
ENDBRANCH   1  17
TORSDOF 8
ENDMDL
