MODEL 1
REMARK VINA RESULT:    -5.202      0.000      0.000
REMARK INTER + INTRA:          -5.729
REMARK INTER:                  -5.645
REMARK INTRA:                  -0.084
REMARK UNBOUND:                -0.070
REMARK  Name = 7410
REMARK  2 active torsions:
REMARK  status: ('A' for Active; 'I' for Inactive)
REMARK    1  A    between atoms: C_2  and  C_5
REMARK    2  A    between atoms: C_5  and  C_9
REMARK                            x       y       z     vdW  Elec       q    Type
REMARK                         _______ _______ _______ _____ _____    ______ ____
ROOT
ATOM      1  C   UNL     1      -1.835   8.684 -10.591  0.00  0.00    +0.000 A 
ATOM      2  C   UNL     1      -2.253   9.247  -9.386  0.00  0.00    +0.000 A 
ATOM      3  C   UNL     1      -2.240   7.394 -10.935  0.00  0.00    +0.000 A 
ATOM      4  C   UNL     1      -3.075   8.521  -8.524  0.00  0.00    +0.000 A 
ATOM      5  C   UNL     1      -3.062   6.667 -10.074  0.00  0.00    +0.000 A 
ATOM      6  C   UNL     1      -3.480   7.231  -8.868  0.00  0.00    +0.000 A 
ATOM      7  H   UNL     1      -1.965  10.246  -9.075  0.00  0.00    +0.000 HD
ATOM      8  H   UNL     1      -1.927   6.935 -11.869  0.00  0.00    +0.000 HD
ATOM      9  H   UNL     1      -3.401   8.959  -7.585  0.00  0.00    +0.000 HD
ATOM     10  H   UNL     1      -3.377   5.663 -10.341  0.00  0.00    +0.000 HD
ATOM     11  H   UNL     1      -4.120   6.666  -8.197  0.00  0.00    +0.000 HD
ENDROOT
BRANCH   1  13
ATOM     12  O   UNL     1      -0.790  10.663 -11.389  0.00  0.00    +0.000 OA
ATOM     13  C   UNL     1      -0.979   9.440 -11.489  0.00  0.00    +0.000 C 
BRANCH  13  14
ATOM     14  C   UNL     1      -0.268   8.712 -12.618  0.00  0.00    +0.000 C 
ATOM     15  H   UNL     1      -0.316   7.631 -12.465  0.00  0.00    +0.000 HD
ATOM     16  H   UNL     1       0.789   9.001 -12.622  0.00  0.00    +0.000 HD
ATOM     17  H   UNL     1      -0.694   8.997 -13.584  0.00  0.00    +0.000 HD
ENDBRANCH  13  14
ENDBRANCH   1  13
TORSDOF 2
ENDMDL
MODEL 2
REMARK VINA RESULT:    -5.008     13.005     13.896
REMARK INTER + INTRA:          -5.518
REMARK INTER:                  -5.435
REMARK INTRA:                  -0.083
REMARK UNBOUND:                -0.070
REMARK  Name = 7410
REMARK  2 active torsions:
REMARK  status: ('A' for Active; 'I' for Inactive)
REMARK    1  A    between atoms: C_2  and  C_5
REMARK    2  A    between atoms: C_5  and  C_9
REMARK                            x       y       z     vdW  Elec       q    Type
REMARK                         _______ _______ _______ _____ _____    ______ ____
ROOT
ATOM      1  C   UNL     1       4.692   9.576   1.267  0.00  0.00    +0.000 A 
ATOM      2  C   UNL     1       5.838   9.136   0.605  0.00  0.00    +0.000 A 
ATOM      3  C   UNL     1       4.325   9.001   2.484  0.00  0.00    +0.000 A 
ATOM      4  C   UNL     1       6.618   8.121   1.161  0.00  0.00    +0.000 A 
ATOM      5  C   UNL     1       5.104   7.986   3.040  0.00  0.00    +0.000 A 
ATOM      6  C   UNL     1       6.251   7.546   2.378  0.00  0.00    +0.000 A 
ATOM      7  H   UNL     1       6.163   9.552  -0.342  0.00  0.00    +0.000 HD
ATOM      8  H   UNL     1       3.436   9.328   3.017  0.00  0.00    +0.000 HD
ATOM      9  H   UNL     1       7.510   7.778   0.647  0.00  0.00    +0.000 HD
ATOM     10  H   UNL     1       4.819   7.539   3.987  0.00  0.00    +0.000 HD
ATOM     11  H   UNL     1       6.858   6.756   2.810  0.00  0.00    +0.000 HD
ENDROOT
BRANCH   1  13
ATOM     12  O   UNL     1       3.155  11.386   1.359  0.00  0.00    +0.000 OA
ATOM     13  C   UNL     1       3.879  10.633   0.689  0.00  0.00    +0.000 C 
BRANCH  13  14
ATOM     14  C   UNL     1       3.905  10.843  -0.816  0.00  0.00    +0.000 C 
ATOM     15  H   UNL     1       4.534  11.698  -1.072  0.00  0.00    +0.000 HD
ATOM     16  H   UNL     1       2.889  11.061  -1.166  0.00  0.00    +0.000 HD
ATOM     17  H   UNL     1       4.243   9.935  -1.323  0.00  0.00    +0.000 HD
ENDBRANCH  13  14
ENDBRANCH   1  13
TORSDOF 2
ENDMDL
MODEL 3
REMARK VINA RESULT:    -5.000     13.111     13.573
REMARK INTER + INTRA:          -5.509
REMARK INTER:                  -5.425
REMARK INTRA:                  -0.085
REMARK UNBOUND:                -0.070
REMARK  Name = 7410
REMARK  2 active torsions:
REMARK  status: ('A' for Active; 'I' for Inactive)
REMARK    1  A    between atoms: C_2  and  C_5
REMARK    2  A    between atoms: C_5  and  C_9
REMARK                            x       y       z     vdW  Elec       q    Type
REMARK                         _______ _______ _______ _____ _____    ______ ____
ROOT
ATOM      1  C   UNL     1       5.124  10.168   0.396  0.00  0.00    +0.000 A 
ATOM      2  C   UNL     1       5.721   8.910   0.321  0.00  0.00    +0.000 A 
ATOM      3  C   UNL     1       5.669  11.242  -0.307  0.00  0.00    +0.000 A 
ATOM      4  C   UNL     1       6.864   8.726  -0.457  0.00  0.00    +0.000 A 
ATOM      5  C   UNL     1       6.812  11.058  -1.086  0.00  0.00    +0.000 A 
ATOM      6  C   UNL     1       7.410   9.800  -1.161  0.00  0.00    +0.000 A 
ATOM      7  H   UNL     1       5.334   8.046   0.850  0.00  0.00    +0.000 HD
ATOM      8  H   UNL     1       5.221  12.231  -0.264  0.00  0.00    +0.000 HD
ATOM      9  H   UNL     1       7.330   7.747  -0.516  0.00  0.00    +0.000 HD
ATOM     10  H   UNL     1       7.237  11.894  -1.633  0.00  0.00    +0.000 HD
ATOM     11  H   UNL     1       8.300   9.657  -1.766  0.00  0.00    +0.000 HD
ENDROOT
BRANCH   1  13
ATOM     12  O   UNL     1       3.287  11.420   1.237  0.00  0.00    +0.000 OA
ATOM     13  C   UNL     1       3.933  10.361   1.207  0.00  0.00    +0.000 C 
BRANCH  13  14
ATOM     14  C   UNL     1       3.436   9.214   2.071  0.00  0.00    +0.000 C 
ATOM     15  H   UNL     1       3.837   8.263   1.711  0.00  0.00    +0.000 HD
ATOM     16  H   UNL     1       2.344   9.161   2.004  0.00  0.00    +0.000 HD
ATOM     17  H   UNL     1       3.697   9.384   3.119  0.00  0.00    +0.000 HD
ENDBRANCH  13  14
ENDBRANCH   1  13
TORSDOF 2
ENDMDL
MODEL 4
REMARK VINA RESULT:    -4.998     12.502     13.334
REMARK INTER + INTRA:          -5.507
REMARK INTER:                  -5.437
REMARK INTRA:                  -0.070
REMARK UNBOUND:                -0.070
REMARK  Name = 7410
REMARK  2 active torsions:
REMARK  status: ('A' for Active; 'I' for Inactive)
REMARK    1  A    between atoms: C_2  and  C_5
REMARK    2  A    between atoms: C_5  and  C_9
REMARK                            x       y       z     vdW  Elec       q    Type
REMARK                         _______ _______ _______ _____ _____    ______ ____
ROOT
ATOM      1  C   UNL     1       5.202  10.432   0.099  0.00  0.00    +0.000 A 
ATOM      2  C   UNL     1       6.392  11.078  -0.240  0.00  0.00    +0.000 A 
ATOM      3  C   UNL     1       5.224   9.095   0.496  0.00  0.00    +0.000 A 
ATOM      4  C   UNL     1       7.602  10.387  -0.182  0.00  0.00    +0.000 A 
ATOM      5  C   UNL     1       6.434   8.404   0.553  0.00  0.00    +0.000 A 
ATOM      6  C   UNL     1       7.623   9.050   0.214  0.00  0.00    +0.000 A 
ATOM      7  H   UNL     1       6.425  12.116  -0.554  0.00  0.00    +0.000 HD
ATOM      8  H   UNL     1       4.310   8.572   0.764  0.00  0.00    +0.000 HD
ATOM      9  H   UNL     1       8.528  10.889  -0.446  0.00  0.00    +0.000 HD
ATOM     10  H   UNL     1       6.451   7.363   0.862  0.00  0.00    +0.000 HD
ATOM     11  H   UNL     1       8.565   8.512   0.259  0.00  0.00    +0.000 HD
ENDROOT
BRANCH   1  13
ATOM     12  O   UNL     1       3.385  11.644   1.034  0.00  0.00    +0.000 OA
ATOM     13  C   UNL     1       3.942  11.152   0.039  0.00  0.00    +0.000 C 
BRANCH  13  14
ATOM     14  C   UNL     1       3.252  11.322  -1.304  0.00  0.00    +0.000 C 
ATOM     15  H   UNL     1       3.769  12.073  -1.906  0.00  0.00    +0.000 HD
ATOM     16  H   UNL     1       2.227  11.674  -1.140  0.00  0.00    +0.000 HD
ATOM     17  H   UNL     1       3.194  10.363  -1.827  0.00  0.00    +0.000 HD
ENDBRANCH  13  14
ENDBRANCH   1  13
TORSDOF 2
ENDMDL
MODEL 5
REMARK VINA RESULT:    -4.873      1.712      3.546
REMARK INTER + INTRA:          -5.371
REMARK INTER:                  -5.287
REMARK INTRA:                  -0.084
REMARK UNBOUND:                -0.070
REMARK  Name = 7410
REMARK  2 active torsions:
REMARK  status: ('A' for Active; 'I' for Inactive)
REMARK    1  A    between atoms: C_2  and  C_5
REMARK    2  A    between atoms: C_5  and  C_9
REMARK                            x       y       z     vdW  Elec       q    Type
REMARK                         _______ _______ _______ _____ _____    ______ ____
ROOT
ATOM      1  C   UNL     1      -2.365   8.051 -10.167  0.00  0.00    +0.000 A 
ATOM      2  C   UNL     1      -1.802   9.296 -10.451  0.00  0.00    +0.000 A 
ATOM      3  C   UNL     1      -2.138   6.973 -11.022  0.00  0.00    +0.000 A 
ATOM      4  C   UNL     1      -1.011   9.461 -11.588  0.00  0.00    +0.000 A 
ATOM      5  C   UNL     1      -1.348   7.138 -12.159  0.00  0.00    +0.000 A 
ATOM      6  C   UNL     1      -0.784   8.382 -12.443  0.00  0.00    +0.000 A 
ATOM      7  H   UNL     1      -1.950  10.164  -9.817  0.00  0.00    +0.000 HD
ATOM      8  H   UNL     1      -2.567   5.994 -10.821  0.00  0.00    +0.000 HD
ATOM      9  H   UNL     1      -0.572  10.429 -11.809  0.00  0.00    +0.000 HD
ATOM     10  H   UNL     1      -1.171   6.298 -12.824  0.00  0.00    +0.000 HD
ATOM     11  H   UNL     1      -0.169   8.510 -13.328  0.00  0.00    +0.000 HD
ENDROOT
BRANCH   1  13
ATOM     12  O   UNL     1      -3.229   8.698  -8.050  0.00  0.00    +0.000 OA
ATOM     13  C   UNL     1      -3.189   7.879  -8.982  0.00  0.00    +0.000 C 
BRANCH  13  14
ATOM     14  C   UNL     1      -4.054   6.636  -8.860  0.00  0.00    +0.000 C 
ATOM     15  H   UNL     1      -3.432   5.749  -8.724  0.00  0.00    +0.000 HD
ATOM     16  H   UNL     1      -4.626   6.504  -9.786  0.00  0.00    +0.000 HD
ATOM     17  H   UNL     1      -4.770   6.749  -8.041  0.00  0.00    +0.000 HD
ENDBRANCH  13  14
ENDBRANCH   1  13
TORSDOF 2
ENDMDL
MODEL 6
REMARK VINA RESULT:    -4.796      2.112      2.911
REMARK INTER + INTRA:          -5.287
REMARK INTER:                  -5.213
REMARK INTRA:                  -0.074
REMARK UNBOUND:                -0.070
REMARK  Name = 7410
REMARK  2 active torsions:
REMARK  status: ('A' for Active; 'I' for Inactive)
REMARK    1  A    between atoms: C_2  and  C_5
REMARK    2  A    between atoms: C_5  and  C_9
REMARK                            x       y       z     vdW  Elec       q    Type
REMARK                         _______ _______ _______ _____ _____    ______ ____
ROOT
ATOM      1  C   UNL     1      -3.811   6.990 -10.307  0.00  0.00    +0.000 A 
ATOM      2  C   UNL     1      -4.109   6.609  -8.998  0.00  0.00    +0.000 A 
ATOM      3  C   UNL     1      -4.765   6.836 -11.312  0.00  0.00    +0.000 A 
ATOM      4  C   UNL     1      -5.362   6.075  -8.696  0.00  0.00    +0.000 A 
ATOM      5  C   UNL     1      -6.018   6.302 -11.010  0.00  0.00    +0.000 A 
ATOM      6  C   UNL     1      -6.316   5.921  -9.702  0.00  0.00    +0.000 A 
ATOM      7  H   UNL     1      -3.400   6.709  -8.184  0.00  0.00    +0.000 HD
ATOM      8  H   UNL     1      -4.555   7.126 -12.339  0.00  0.00    +0.000 HD
ATOM      9  H   UNL     1      -5.595   5.778  -7.678  0.00  0.00    +0.000 HD
ATOM     10  H   UNL     1      -6.761   6.182 -11.793  0.00  0.00    +0.000 HD
ATOM     11  H   UNL     1      -7.291   5.505  -9.466  0.00  0.00    +0.000 HD
ENDROOT
BRANCH   1  13
ATOM     12  O   UNL     1      -2.048   8.567 -10.086  0.00  0.00    +0.000 OA
ATOM     13  C   UNL     1      -2.506   7.546 -10.622  0.00  0.00    +0.000 C 
BRANCH  13  14
ATOM     14  C   UNL     1      -1.642   6.855 -11.663  0.00  0.00    +0.000 C 
ATOM     15  H   UNL     1      -0.768   7.466 -11.901  0.00  0.00    +0.000 HD
ATOM     16  H   UNL     1      -2.220   6.728 -12.585  0.00  0.00    +0.000 HD
ATOM     17  H   UNL     1      -1.348   5.860 -11.316  0.00  0.00    +0.000 HD
ENDBRANCH  13  14
ENDBRANCH   1  13
TORSDOF 2
ENDMDL
MODEL 7
REMARK VINA RESULT:    -4.788     16.809     18.612
REMARK INTER + INTRA:          -5.278
REMARK INTER:                  -5.207
REMARK INTRA:                  -0.072
REMARK UNBOUND:                -0.070
REMARK  Name = 7410
REMARK  2 active torsions:
REMARK  status: ('A' for Active; 'I' for Inactive)
REMARK    1  A    between atoms: C_2  and  C_5
REMARK    2  A    between atoms: C_5  and  C_9
REMARK                            x       y       z     vdW  Elec       q    Type
REMARK                         _______ _______ _______ _____ _____    ______ ____
ROOT
ATOM      1  C   UNL     1      -8.347  11.135   6.577  0.00  0.00    +0.000 A 
ATOM      2  C   UNL     1      -8.047  10.945   5.228  0.00  0.00    +0.000 A 
ATOM      3  C   UNL     1      -7.844  12.245   7.253  0.00  0.00    +0.000 A 
ATOM      4  C   UNL     1      -7.243  11.866   4.556  0.00  0.00    +0.000 A 
ATOM      5  C   UNL     1      -7.040  13.167   6.582  0.00  0.00    +0.000 A 
ATOM      6  C   UNL     1      -6.740  12.977   5.232  0.00  0.00    +0.000 A 
ATOM      7  H   UNL     1      -8.415  10.097   4.660  0.00  0.00    +0.000 HD
ATOM      8  H   UNL     1      -8.064  12.414   8.304  0.00  0.00    +0.000 HD
ATOM      9  H   UNL     1      -7.009  11.719   3.506  0.00  0.00    +0.000 HD
ATOM     10  H   UNL     1      -6.648  14.032   7.108  0.00  0.00    +0.000 HD
ATOM     11  H   UNL     1      -6.114  13.694   4.709  0.00  0.00    +0.000 HD
ENDROOT
BRANCH   1  13
ATOM     12  O   UNL     1     -10.397  10.031   7.054  0.00  0.00    +0.000 OA
ATOM     13  C   UNL     1      -9.184  10.175   7.277  0.00  0.00    +0.000 C 
BRANCH  13  14
ATOM     14  C   UNL     1      -8.559   9.291   8.344  0.00  0.00    +0.000 C 
ATOM     15  H   UNL     1      -8.536   8.250   8.012  0.00  0.00    +0.000 HD
ATOM     16  H   UNL     1      -9.170   9.338   9.252  0.00  0.00    +0.000 HD
ATOM     17  H   UNL     1      -7.558   9.649   8.598  0.00  0.00    +0.000 HD
ENDBRANCH  13  14
ENDBRANCH   1  13
TORSDOF 2
ENDMDL
MODEL 8
REMARK VINA RESULT:    -4.691     26.259     27.087
REMARK INTER + INTRA:          -5.173
REMARK INTER:                  -5.103
REMARK INTRA:                  -0.070
REMARK UNBOUND:                -0.070
REMARK  Name = 7410
REMARK  2 active torsions:
REMARK  status: ('A' for Active; 'I' for Inactive)
REMARK    1  A    between atoms: C_2  and  C_5
REMARK    2  A    between atoms: C_5  and  C_9
REMARK                            x       y       z     vdW  Elec       q    Type
REMARK                         _______ _______ _______ _____ _____    ______ ____
ROOT
ATOM      1  C   UNL     1     -20.777  -2.886   5.245  0.00  0.00    +0.000 A 
ATOM      2  C   UNL     1     -20.713  -2.798   6.636  0.00  0.00    +0.000 A 
ATOM      3  C   UNL     1     -20.765  -1.725   4.472  0.00  0.00    +0.000 A 
ATOM      4  C   UNL     1     -20.637  -1.549   7.253  0.00  0.00    +0.000 A 
ATOM      5  C   UNL     1     -20.689  -0.476   5.089  0.00  0.00    +0.000 A 
ATOM      6  C   UNL     1     -20.625  -0.388   6.480  0.00  0.00    +0.000 A 
ATOM      7  H   UNL     1     -20.719  -3.671   7.279  0.00  0.00    +0.000 HD
ATOM      8  H   UNL     1     -20.814  -1.769   3.387  0.00  0.00    +0.000 HD
ATOM      9  H   UNL     1     -20.587  -1.479   8.336  0.00  0.00    +0.000 HD
ATOM     10  H   UNL     1     -20.680   0.428   4.487  0.00  0.00    +0.000 HD
ATOM     11  H   UNL     1     -20.566   0.584   6.960  0.00  0.00    +0.000 HD
ENDROOT
BRANCH   1  13
ATOM     12  O   UNL     1     -21.909  -4.666   4.152  0.00  0.00    +0.000 OA
ATOM     13  C   UNL     1     -20.856  -4.186   4.602  0.00  0.00    +0.000 C 
BRANCH  13  14
ATOM     14  C   UNL     1     -19.593  -5.019   4.464  0.00  0.00    +0.000 C 
ATOM     15  H   UNL     1     -18.948  -4.882   5.336  0.00  0.00    +0.000 HD
ATOM     16  H   UNL     1     -19.036  -4.684   3.582  0.00  0.00    +0.000 HD
ATOM     17  H   UNL     1     -19.844  -6.073   4.318  0.00  0.00    +0.000 HD
ENDBRANCH  13  14
ENDBRANCH   1  13
TORSDOF 2
ENDMDL
MODEL 9
REMARK VINA RESULT:    -4.547      9.223     10.208
REMARK INTER + INTRA:          -5.016
REMARK INTER:                  -4.946
REMARK INTRA:                  -0.070
REMARK UNBOUND:                -0.070
REMARK  Name = 7410
REMARK  2 active torsions:
REMARK  status: ('A' for Active; 'I' for Inactive)
REMARK    1  A    between atoms: C_2  and  C_5
REMARK    2  A    between atoms: C_5  and  C_9
REMARK                            x       y       z     vdW  Elec       q    Type
REMARK                         _______ _______ _______ _____ _____    ______ ____
ROOT
ATOM      1  C   UNL     1     -10.119   5.885  -5.575  0.00  0.00    +0.000 A 
ATOM      2  C   UNL     1     -10.759   4.646  -5.575  0.00  0.00    +0.000 A 
ATOM      3  C   UNL     1      -8.797   5.987  -5.142  0.00  0.00    +0.000 A 
ATOM      4  C   UNL     1     -10.077   3.509  -5.141  0.00  0.00    +0.000 A 
ATOM      5  C   UNL     1      -8.115   4.850  -4.708  0.00  0.00    +0.000 A 
ATOM      6  C   UNL     1      -8.755   3.610  -4.708  0.00  0.00    +0.000 A 
ATOM      7  H   UNL     1     -11.785   4.517  -5.903  0.00  0.00    +0.000 HD
ATOM      8  H   UNL     1      -8.278   6.942  -5.134  0.00  0.00    +0.000 HD
ATOM      9  H   UNL     1     -10.575   2.543  -5.141  0.00  0.00    +0.000 HD
ATOM     10  H   UNL     1      -7.086   4.929  -4.371  0.00  0.00    +0.000 HD
ATOM     11  H   UNL     1      -8.225   2.725  -4.371  0.00  0.00    +0.000 HD
ENDROOT
BRANCH   1  13
ATOM     12  O   UNL     1     -10.840   7.455  -7.207  0.00  0.00    +0.000 OA
ATOM     13  C   UNL     1     -10.829   7.070  -6.027  0.00  0.00    +0.000 C 
BRANCH  13  14
ATOM     14  C   UNL     1     -11.605   7.895  -5.015  0.00  0.00    +0.000 C 
ATOM     15  H   UNL     1     -12.459   7.329  -4.634  0.00  0.00    +0.000 HD
ATOM     16  H   UNL     1     -11.994   8.794  -5.506  0.00  0.00    +0.000 HD
ATOM     17  H   UNL     1     -10.949   8.219  -4.202  0.00  0.00    +0.000 HD
ENDBRANCH  13  14
ENDBRANCH   1  13
TORSDOF 2
ENDMDL
MODEL 10
REMARK VINA RESULT:    -4.470      8.872      9.216
REMARK INTER + INTRA:          -4.933
REMARK INTER:                  -4.862
REMARK INTRA:                  -0.070
REMARK UNBOUND:                -0.070
REMARK  Name = 7410
REMARK  2 active torsions:
REMARK  status: ('A' for Active; 'I' for Inactive)
REMARK    1  A    between atoms: C_2  and  C_5
REMARK    2  A    between atoms: C_5  and  C_9
REMARK                            x       y       z     vdW  Elec       q    Type
REMARK                         _______ _______ _______ _____ _____    ______ ____
ROOT
ATOM      1  C   UNL     1      -1.403  -0.491 -11.725  0.00  0.00    +0.000 A 
ATOM      2  C   UNL     1      -1.624  -0.531 -10.348  0.00  0.00    +0.000 A 
ATOM      3  C   UNL     1      -2.485  -0.426 -12.603  0.00  0.00    +0.000 A 
ATOM      4  C   UNL     1      -2.927  -0.506  -9.850  0.00  0.00    +0.000 A 
ATOM      5  C   UNL     1      -3.788  -0.401 -12.105  0.00  0.00    +0.000 A 
ATOM      6  C   UNL     1      -4.009  -0.441 -10.728  0.00  0.00    +0.000 A 
ATOM      7  H   UNL     1      -0.816  -0.582  -9.627  0.00  0.00    +0.000 HD
ATOM      8  H   UNL     1      -2.337  -0.394 -13.679  0.00  0.00    +0.000 HD
ATOM      9  H   UNL     1      -3.100  -0.537  -8.778  0.00  0.00    +0.000 HD
ATOM     10  H   UNL     1      -4.630  -0.351 -12.789  0.00  0.00    +0.000 HD
ATOM     11  H   UNL     1      -5.023  -0.421 -10.341  0.00  0.00    +0.000 HD
ENDROOT
BRANCH   1  13
ATOM     12  O   UNL     1       0.479  -1.527 -12.740  0.00  0.00    +0.000 OA
ATOM     13  C   UNL     1      -0.046  -0.518 -12.244  0.00  0.00    +0.000 C 
BRANCH  13  14
ATOM     14  C   UNL     1       0.790   0.749 -12.186  0.00  0.00    +0.000 C 
ATOM     15  H   UNL     1       1.781   0.535 -11.778  0.00  0.00    +0.000 HD
ATOM     16  H   UNL     1       0.305   1.470 -11.519  0.00  0.00    +0.000 HD
ATOM     17  H   UNL     1       0.860   1.208 -13.176  0.00  0.00    +0.000 HD
ENDBRANCH  13  14
ENDBRANCH   1  13
TORSDOF 2
ENDMDL
