MODEL 1
REMARK VINA RESULT:    -5.511      0.000      0.000
REMARK INTER + INTRA:          -6.516
REMARK INTER:                  -6.328
REMARK INTRA:                  -0.189
REMARK UNBOUND:                -0.200
REMARK  Name = 261491
REMARK  4 active torsions:
REMARK  status: ('A' for Active; 'I' for Inactive)
REMARK    1  A    between atoms: C_2  and  C_7
REMARK    2  A    between atoms: C_5  and  C_9
REMARK    3  A    between atoms: C_7  and  C_10
REMARK    4  A    between atoms: C_7  and  C_11
REMARK                            x       y       z     vdW  Elec       q    Type
REMARK                         _______ _______ _______ _____ _____    ______ ____
ROOT
ATOM      1  O   UNL     1       4.614   8.603   4.082  0.00  0.00    +0.000 OA
ATOM      2  C   UNL     1       3.862   9.916   0.854  0.00  0.00    +0.000 C 
ATOM      3  C   UNL     1       4.993   8.984   0.548  0.00  0.00    +0.000 C 
ATOM      4  C   UNL     1       3.618   8.700   0.002  0.00  0.00    +0.000 C 
ATOM      5  C   UNL     1       5.470   8.323   1.817  0.00  0.00    +0.000 C 
ATOM      6  C   UNL     1       3.569   9.900   2.324  0.00  0.00    +0.000 C 
ATOM      7  C   UNL     1       4.557   8.900   2.896  0.00  0.00    +0.000 C 
ATOM      8  H   UNL     1       5.768   9.258  -0.153  0.00  0.00    +0.000 HD
ATOM      9  H   UNL     1       3.053   7.877   0.425  0.00  0.00    +0.000 HD
ATOM     10  H   UNL     1       3.467   8.825  -1.063  0.00  0.00    +0.000 HD
ATOM     11  H   UNL     1       5.312   7.241   1.759  0.00  0.00    +0.000 HD
ATOM     12  H   UNL     1       2.551   9.549   2.512  0.00  0.00    +0.000 HD
ATOM     13  H   UNL     1       3.728  10.857   2.825  0.00  0.00    +0.000 HD
ENDROOT
BRANCH   5  14
ATOM     14  C   UNL     1       6.921   8.649   2.125  0.00  0.00    +0.000 C 
ATOM     15  H   UNL     1       7.593   8.238   1.362  0.00  0.00    +0.000 HD
ATOM     16  H   UNL     1       7.080   9.732   2.156  0.00  0.00    +0.000 HD
ATOM     17  H   UNL     1       7.218   8.231   3.092  0.00  0.00    +0.000 HD
ENDBRANCH   5  14
BRANCH   2  18
ATOM     18  C   UNL     1       3.822  11.244   0.183  0.00  0.00    +0.000 C 
ATOM     19  H   UNL     1       3.120  11.906   0.708  0.00  0.00    +0.000 HD
BRANCH  18  20
ATOM     20  C   UNL     1       5.196  11.927   0.208  0.00  0.00    +0.000 C 
ATOM     21  H   UNL     1       5.582  12.108  -0.800  0.00  0.00    +0.000 HD
ATOM     22  H   UNL     1       5.139  12.891   0.724  0.00  0.00    +0.000 HD
ATOM     23  H   UNL     1       5.927  11.305   0.736  0.00  0.00    +0.000 HD
ENDBRANCH  18  20
BRANCH  18  24
ATOM     24  C   UNL     1       3.328  11.126  -1.265  0.00  0.00    +0.000 C 
ATOM     25  H   UNL     1       3.067  12.093  -1.704  0.00  0.00    +0.000 HD
ATOM     26  H   UNL     1       2.427  10.502  -1.305  0.00  0.00    +0.000 HD
ATOM     27  H   UNL     1       4.082  10.658  -1.905  0.00  0.00    +0.000 HD
ENDBRANCH  18  24
ENDBRANCH   2  18
TORSDOF 4
ENDMDL
MODEL 2
REMARK VINA RESULT:    -5.243      1.709      2.467
REMARK INTER + INTRA:          -6.210
REMARK INTER:                  -6.009
REMARK INTRA:                  -0.201
REMARK UNBOUND:                -0.200
REMARK  Name = 261491
REMARK  4 active torsions:
REMARK  status: ('A' for Active; 'I' for Inactive)
REMARK    1  A    between atoms: C_2  and  C_7
REMARK    2  A    between atoms: C_5  and  C_9
REMARK    3  A    between atoms: C_7  and  C_10
REMARK    4  A    between atoms: C_7  and  C_11
REMARK                            x       y       z     vdW  Elec       q    Type
REMARK                         _______ _______ _______ _____ _____    ______ ____
ROOT
ATOM      1  O   UNL     1       4.304   8.479   2.866  0.00  0.00    +0.000 OA
ATOM      2  C   UNL     1       6.188   9.251  -0.061  0.00  0.00    +0.000 C 
ATOM      3  C   UNL     1       7.187   8.489   0.752  0.00  0.00    +0.000 C 
ATOM      4  C   UNL     1       6.686   7.917  -0.548  0.00  0.00    +0.000 C 
ATOM      5  C   UNL     1       6.570   8.073   2.064  0.00  0.00    +0.000 C 
ATOM      6  C   UNL     1       4.896   9.364   0.690  0.00  0.00    +0.000 C 
ATOM      7  C   UNL     1       5.146   8.618   1.988  0.00  0.00    +0.000 C 
ATOM      8  H   UNL     1       8.220   8.800   0.803  0.00  0.00    +0.000 HD
ATOM      9  H   UNL     1       6.012   7.070  -0.516  0.00  0.00    +0.000 HD
ATOM     10  H   UNL     1       7.379   7.886  -1.381  0.00  0.00    +0.000 HD
ATOM     11  H   UNL     1       6.530   6.981   2.131  0.00  0.00    +0.000 HD
ATOM     12  H   UNL     1       4.085   8.875   0.143  0.00  0.00    +0.000 HD
ATOM     13  H   UNL     1       4.608  10.387   0.939  0.00  0.00    +0.000 HD
ENDROOT
BRANCH   5  14
ATOM     14  C   UNL     1       7.299   8.669   3.257  0.00  0.00    +0.000 C 
ATOM     15  H   UNL     1       8.325   8.291   3.327  0.00  0.00    +0.000 HD
ATOM     16  H   UNL     1       7.353   9.760   3.176  0.00  0.00    +0.000 HD
ATOM     17  H   UNL     1       6.786   8.420   4.191  0.00  0.00    +0.000 HD
ENDBRANCH   5  14
BRANCH   2  18
ATOM     18  C   UNL     1       6.636  10.463  -0.800  0.00  0.00    +0.000 C 
ATOM     19  H   UNL     1       6.120  10.520  -1.768  0.00  0.00    +0.000 HD
BRANCH  18  20
ATOM     20  C   UNL     1       6.299  11.746  -0.028  0.00  0.00    +0.000 C 
ATOM     21  H   UNL     1       6.035  11.539   1.014  0.00  0.00    +0.000 HD
ATOM     22  H   UNL     1       7.153  12.432  -0.029  0.00  0.00    +0.000 HD
ATOM     23  H   UNL     1       5.451  12.263  -0.490  0.00  0.00    +0.000 HD
ENDBRANCH  18  20
BRANCH  18  24
ATOM     24  C   UNL     1       8.140  10.414  -1.096  0.00  0.00    +0.000 C 
ATOM     25  H   UNL     1       8.359  10.317  -2.163  0.00  0.00    +0.000 HD
ATOM     26  H   UNL     1       8.595   9.552  -0.595  0.00  0.00    +0.000 HD
ATOM     27  H   UNL     1       8.646  11.313  -0.730  0.00  0.00    +0.000 HD
ENDBRANCH  18  24
ENDBRANCH   2  18
TORSDOF 4
ENDMDL
MODEL 3
REMARK VINA RESULT:    -5.076      2.294      4.539
REMARK INTER + INTRA:          -6.018
REMARK INTER:                  -5.817
REMARK INTRA:                  -0.201
REMARK UNBOUND:                -0.200
REMARK  Name = 261491
REMARK  4 active torsions:
REMARK  status: ('A' for Active; 'I' for Inactive)
REMARK    1  A    between atoms: C_2  and  C_7
REMARK    2  A    between atoms: C_5  and  C_9
REMARK    3  A    between atoms: C_7  and  C_10
REMARK    4  A    between atoms: C_7  and  C_11
REMARK                            x       y       z     vdW  Elec       q    Type
REMARK                         _______ _______ _______ _____ _____    ______ ____
ROOT
ATOM      1  O   UNL     1       5.942   9.412   0.167  0.00  0.00    +0.000 OA
ATOM      2  C   UNL     1       6.467   7.963   3.382  0.00  0.00    +0.000 C 
ATOM      3  C   UNL     1       4.978   7.883   3.251  0.00  0.00    +0.000 C 
ATOM      4  C   UNL     1       5.796   6.618   3.301  0.00  0.00    +0.000 C 
ATOM      5  C   UNL     1       4.548   8.470   1.930  0.00  0.00    +0.000 C 
ATOM      6  C   UNL     1       7.054   8.607   2.162  0.00  0.00    +0.000 C 
ATOM      7  C   UNL     1       5.858   8.895   1.273  0.00  0.00    +0.000 C 
ATOM      8  H   UNL     1       4.332   8.100   4.089  0.00  0.00    +0.000 HD
ATOM      9  H   UNL     1       5.907   6.038   2.392  0.00  0.00    +0.000 HD
ATOM     10  H   UNL     1       5.724   6.011   4.195  0.00  0.00    +0.000 HD
ATOM     11  H   UNL     1       4.074   7.699   1.313  0.00  0.00    +0.000 HD
ATOM     12  H   UNL     1       7.728   7.917   1.646  0.00  0.00    +0.000 HD
ATOM     13  H   UNL     1       7.568   9.550   2.354  0.00  0.00    +0.000 HD
ENDROOT
BRANCH   5  14
ATOM     14  C   UNL     1       3.632   9.670   2.105  0.00  0.00    +0.000 C 
ATOM     15  H   UNL     1       2.775   9.429   2.745  0.00  0.00    +0.000 HD
ATOM     16  H   UNL     1       4.168  10.505   2.570  0.00  0.00    +0.000 HD
ATOM     17  H   UNL     1       3.244  10.008   1.140  0.00  0.00    +0.000 HD
ENDBRANCH   5  14
BRANCH   2  18
ATOM     18  C   UNL     1       7.054   8.359   4.691  0.00  0.00    +0.000 C 
ATOM     19  H   UNL     1       7.463   7.474   5.198  0.00  0.00    +0.000 HD
BRANCH  18  20
ATOM     20  C   UNL     1       8.210   9.352   4.509  0.00  0.00    +0.000 C 
ATOM     21  H   UNL     1       9.063   9.109   5.150  0.00  0.00    +0.000 HD
ATOM     22  H   UNL     1       8.559   9.353   3.471  0.00  0.00    +0.000 HD
ATOM     23  H   UNL     1       7.888  10.369   4.757  0.00  0.00    +0.000 HD
ENDBRANCH  18  20
BRANCH  18  24
ATOM     24  C   UNL     1       5.994   8.960   5.622  0.00  0.00    +0.000 C 
ATOM     25  H   UNL     1       5.054   8.400   5.610  0.00  0.00    +0.000 HD
ATOM     26  H   UNL     1       5.761   9.986   5.314  0.00  0.00    +0.000 HD
ATOM     27  H   UNL     1       6.349   8.998   6.656  0.00  0.00    +0.000 HD
ENDBRANCH  18  24
ENDBRANCH   2  18
TORSDOF 4
ENDMDL
MODEL 4
REMARK VINA RESULT:    -5.056      1.993      3.361
REMARK INTER + INTRA:          -5.995
REMARK INTER:                  -5.832
REMARK INTRA:                  -0.163
REMARK UNBOUND:                -0.200
REMARK  Name = 261491
REMARK  4 active torsions:
REMARK  status: ('A' for Active; 'I' for Inactive)
REMARK    1  A    between atoms: C_2  and  C_7
REMARK    2  A    between atoms: C_5  and  C_9
REMARK    3  A    between atoms: C_7  and  C_10
REMARK    4  A    between atoms: C_7  and  C_11
REMARK                            x       y       z     vdW  Elec       q    Type
REMARK                         _______ _______ _______ _____ _____    ______ ____
ROOT
ATOM      1  O   UNL     1       3.140  10.676   1.076  0.00  0.00    +0.000 OA
ATOM      2  C   UNL     1       6.481   9.592   0.455  0.00  0.00    +0.000 C 
ATOM      3  C   UNL     1       5.952   8.480   1.307  0.00  0.00    +0.000 C 
ATOM      4  C   UNL     1       6.325   8.214  -0.128  0.00  0.00    +0.000 C 
ATOM      5  C   UNL     1       4.522   8.764   1.692  0.00  0.00    +0.000 C 
ATOM      6  C   UNL     1       5.422  10.636   0.263  0.00  0.00    +0.000 C 
ATOM      7  C   UNL     1       4.219  10.099   1.016  0.00  0.00    +0.000 C 
ATOM      8  H   UNL     1       6.561   8.031   2.078  0.00  0.00    +0.000 HD
ATOM      9  H   UNL     1       5.531   8.043  -0.846  0.00  0.00    +0.000 HD
ATOM     10  H   UNL     1       7.211   7.618  -0.313  0.00  0.00    +0.000 HD
ATOM     11  H   UNL     1       3.862   7.996   1.275  0.00  0.00    +0.000 HD
ATOM     12  H   UNL     1       5.167  10.739  -0.796  0.00  0.00    +0.000 HD
ATOM     13  H   UNL     1       5.672  11.613   0.678  0.00  0.00    +0.000 HD
ENDROOT
BRANCH   5  14
ATOM     14  C   UNL     1       4.343   8.882   3.196  0.00  0.00    +0.000 C 
ATOM     15  H   UNL     1       3.627   9.671   3.453  0.00  0.00    +0.000 HD
ATOM     16  H   UNL     1       3.968   7.944   3.619  0.00  0.00    +0.000 HD
ATOM     17  H   UNL     1       5.293   9.121   3.684  0.00  0.00    +0.000 HD
ENDBRANCH   5  14
BRANCH   2  18
ATOM     18  C   UNL     1       7.864  10.085   0.693  0.00  0.00    +0.000 C 
ATOM     19  H   UNL     1       7.875  11.184   0.679  0.00  0.00    +0.000 HD
BRANCH  18  20
ATOM     20  C   UNL     1       8.390   9.643   2.065  0.00  0.00    +0.000 C 
ATOM     21  H   UNL     1       9.480   9.543   2.072  0.00  0.00    +0.000 HD
ATOM     22  H   UNL     1       8.114  10.369   2.837  0.00  0.00    +0.000 HD
ATOM     23  H   UNL     1       7.965   8.673   2.347  0.00  0.00    +0.000 HD
ENDBRANCH  18  20
BRANCH  18  24
ATOM     24  C   UNL     1       8.824   9.615  -0.408  0.00  0.00    +0.000 C 
ATOM     25  H   UNL     1       9.193  10.436  -1.028  0.00  0.00    +0.000 HD
ATOM     26  H   UNL     1       8.313   8.911  -1.076  0.00  0.00    +0.000 HD
ATOM     27  H   UNL     1       9.690   9.098   0.016  0.00  0.00    +0.000 HD
ENDBRANCH  18  24
ENDBRANCH   2  18
TORSDOF 4
ENDMDL
MODEL 5
REMARK VINA RESULT:    -5.002      2.261      3.942
REMARK INTER + INTRA:          -5.933
REMARK INTER:                  -5.732
REMARK INTRA:                  -0.201
REMARK UNBOUND:                -0.200
REMARK  Name = 261491
REMARK  4 active torsions:
REMARK  status: ('A' for Active; 'I' for Inactive)
REMARK    1  A    between atoms: C_2  and  C_7
REMARK    2  A    between atoms: C_5  and  C_9
REMARK    3  A    between atoms: C_7  and  C_10
REMARK    4  A    between atoms: C_7  and  C_11
REMARK                            x       y       z     vdW  Elec       q    Type
REMARK                         _______ _______ _______ _____ _____    ______ ____
ROOT
ATOM      1  O   UNL     1       7.557   9.832  -1.638  0.00  0.00    +0.000 OA
ATOM      2  C   UNL     1       5.217   8.683   0.795  0.00  0.00    +0.000 C 
ATOM      3  C   UNL     1       4.698  10.055   0.496  0.00  0.00    +0.000 C 
ATOM      4  C   UNL     1       3.876   8.847   0.131  0.00  0.00    +0.000 C 
ATOM      5  C   UNL     1       5.579  10.725  -0.528  0.00  0.00    +0.000 C 
ATOM      6  C   UNL     1       6.451   8.416  -0.013  0.00  0.00    +0.000 C 
ATOM      7  C   UNL     1       6.647   9.678  -0.834  0.00  0.00    +0.000 C 
ATOM      8  H   UNL     1       4.330  10.696   1.284  0.00  0.00    +0.000 HD
ATOM      9  H   UNL     1       3.782   8.582  -0.915  0.00  0.00    +0.000 HD
ATOM     10  H   UNL     1       2.978   8.660   0.707  0.00  0.00    +0.000 HD
ATOM     11  H   UNL     1       5.008  10.928  -1.440  0.00  0.00    +0.000 HD
ATOM     12  H   UNL     1       6.296   7.569  -0.687  0.00  0.00    +0.000 HD
ATOM     13  H   UNL     1       7.353   8.256   0.581  0.00  0.00    +0.000 HD
ENDROOT
BRANCH   5  14
ATOM     14  C   UNL     1       6.223  11.993   0.008  0.00  0.00    +0.000 C 
ATOM     15  H   UNL     1       7.277  11.829   0.263  0.00  0.00    +0.000 HD
ATOM     16  H   UNL     1       6.183  12.796  -0.735  0.00  0.00    +0.000 HD
ATOM     17  H   UNL     1       5.711  12.338   0.912  0.00  0.00    +0.000 HD
ENDBRANCH   5  14
BRANCH   2  18
ATOM     18  C   UNL     1       5.232   8.211   2.206  0.00  0.00    +0.000 C 
ATOM     19  H   UNL     1       4.978   7.143   2.244  0.00  0.00    +0.000 HD
BRANCH  18  20
ATOM     20  C   UNL     1       6.622   8.370   2.836  0.00  0.00    +0.000 C 
ATOM     21  H   UNL     1       6.736   7.757   3.736  0.00  0.00    +0.000 HD
ATOM     22  H   UNL     1       7.403   8.075   2.128  0.00  0.00    +0.000 HD
ATOM     23  H   UNL     1       6.801   9.413   3.120  0.00  0.00    +0.000 HD
ENDBRANCH  18  20
BRANCH  18  24
ATOM     24  C   UNL     1       4.189   8.949   3.055  0.00  0.00    +0.000 C 
ATOM     25  H   UNL     1       3.307   9.244   2.480  0.00  0.00    +0.000 HD
ATOM     26  H   UNL     1       4.623   9.866   3.472  0.00  0.00    +0.000 HD
ATOM     27  H   UNL     1       3.852   8.333   3.894  0.00  0.00    +0.000 HD
ENDBRANCH  18  24
ENDBRANCH   2  18
TORSDOF 4
ENDMDL
MODEL 6
REMARK VINA RESULT:    -4.897      2.923      3.666
REMARK INTER + INTRA:          -5.813
REMARK INTER:                  -5.705
REMARK INTRA:                  -0.108
REMARK UNBOUND:                -0.200
REMARK  Name = 261491
REMARK  4 active torsions:
REMARK  status: ('A' for Active; 'I' for Inactive)
REMARK    1  A    between atoms: C_2  and  C_7
REMARK    2  A    between atoms: C_5  and  C_9
REMARK    3  A    between atoms: C_7  and  C_10
REMARK    4  A    between atoms: C_7  and  C_11
REMARK                            x       y       z     vdW  Elec       q    Type
REMARK                         _______ _______ _______ _____ _____    ______ ____
ROOT
ATOM      1  O   UNL     1       8.568  10.747  -1.572  0.00  0.00    +0.000 OA
ATOM      2  C   UNL     1       5.651   9.851   0.273  0.00  0.00    +0.000 C 
ATOM      3  C   UNL     1       6.375   8.543   0.192  0.00  0.00    +0.000 C 
ATOM      4  C   UNL     1       6.183   9.213   1.528  0.00  0.00    +0.000 C 
ATOM      5  C   UNL     1       7.660   8.715  -0.578  0.00  0.00    +0.000 C 
ATOM      6  C   UNL     1       6.431  10.912  -0.444  0.00  0.00    +0.000 C 
ATOM      7  C   UNL     1       7.673  10.197  -0.944  0.00  0.00    +0.000 C 
ATOM      8  H   UNL     1       5.843   7.621   0.009  0.00  0.00    +0.000 HD
ATOM      9  H   UNL     1       7.043   9.661   2.011  0.00  0.00    +0.000 HD
ATOM     10  H   UNL     1       5.487   8.756   2.221  0.00  0.00    +0.000 HD
ATOM     11  H   UNL     1       8.517   8.502   0.070  0.00  0.00    +0.000 HD
ATOM     12  H   UNL     1       6.727  11.707   0.246  0.00  0.00    +0.000 HD
ATOM     13  H   UNL     1       5.918  11.343  -1.306  0.00  0.00    +0.000 HD
ENDROOT
BRANCH   5  14
ATOM     14  C   UNL     1       7.697   7.861  -1.834  0.00  0.00    +0.000 C 
ATOM     15  H   UNL     1       8.660   7.348  -1.940  0.00  0.00    +0.000 HD
ATOM     16  H   UNL     1       6.915   7.094  -1.807  0.00  0.00    +0.000 HD
ATOM     17  H   UNL     1       7.545   8.474  -2.727  0.00  0.00    +0.000 HD
ENDBRANCH   5  14
BRANCH   2  18
ATOM     18  C   UNL     1       4.175   9.869   0.084  0.00  0.00    +0.000 C 
ATOM     19  H   UNL     1       3.836   8.893  -0.290  0.00  0.00    +0.000 HD
BRANCH  18  20
ATOM     20  C   UNL     1       3.444  10.128   1.407  0.00  0.00    +0.000 C 
ATOM     21  H   UNL     1       3.881  10.966   1.959  0.00  0.00    +0.000 HD
ATOM     22  H   UNL     1       2.388  10.358   1.227  0.00  0.00    +0.000 HD
ATOM     23  H   UNL     1       3.490   9.245   2.054  0.00  0.00    +0.000 HD
ENDBRANCH  18  20
BRANCH  18  24
ATOM     24  C   UNL     1       3.756  10.916  -0.956  0.00  0.00    +0.000 C 
ATOM     25  H   UNL     1       3.208  11.754  -0.515  0.00  0.00    +0.000 HD
ATOM     26  H   UNL     1       3.098  10.460  -1.705  0.00  0.00    +0.000 HD
ATOM     27  H   UNL     1       4.624  11.322  -1.482  0.00  0.00    +0.000 HD
ENDBRANCH  18  24
ENDBRANCH   2  18
TORSDOF 4
ENDMDL
MODEL 7
REMARK VINA RESULT:    -4.647     14.991     16.344
REMARK INTER + INTRA:          -5.527
REMARK INTER:                  -5.341
REMARK INTRA:                  -0.185
REMARK UNBOUND:                -0.200
REMARK  Name = 261491
REMARK  4 active torsions:
REMARK  status: ('A' for Active; 'I' for Inactive)
REMARK    1  A    between atoms: C_2  and  C_7
REMARK    2  A    between atoms: C_5  and  C_9
REMARK    3  A    between atoms: C_7  and  C_10
REMARK    4  A    between atoms: C_7  and  C_11
REMARK                            x       y       z     vdW  Elec       q    Type
REMARK                         _______ _______ _______ _____ _____    ______ ____
ROOT
ATOM      1  O   UNL     1      -8.123   3.228  -7.510  0.00  0.00    +0.000 OA
ATOM      2  C   UNL     1      -9.312   6.344  -6.248  0.00  0.00    +0.000 C 
ATOM      3  C   UNL     1      -8.811   5.682  -5.002  0.00  0.00    +0.000 C 
ATOM      4  C   UNL     1      -8.133   6.925  -5.515  0.00  0.00    +0.000 C 
ATOM      5  C   UNL     1      -8.264   4.315  -5.333  0.00  0.00    +0.000 C 
ATOM      6  C   UNL     1      -9.117   5.435  -7.424  0.00  0.00    +0.000 C 
ATOM      7  C   UNL     1      -8.455   4.199  -6.843  0.00  0.00    +0.000 C 
ATOM      8  H   UNL     1      -9.359   5.751  -4.074  0.00  0.00    +0.000 HD
ATOM      9  H   UNL     1      -7.150   6.833  -5.961  0.00  0.00    +0.000 HD
ATOM     10  H   UNL     1      -8.266   7.838  -4.946  0.00  0.00    +0.000 HD
ATOM     11  H   UNL     1      -7.194   4.274  -5.105  0.00  0.00    +0.000 HD
ATOM     12  H   UNL     1      -8.448   5.891  -8.159  0.00  0.00    +0.000 HD
ATOM     13  H   UNL     1     -10.043   5.125  -7.911  0.00  0.00    +0.000 HD
ENDROOT
BRANCH   5  14
ATOM     14  C   UNL     1      -9.019   3.206  -4.619  0.00  0.00    +0.000 C 
ATOM     15  H   UNL     1      -9.207   2.357  -5.287  0.00  0.00    +0.000 HD
ATOM     16  H   UNL     1      -8.448   2.834  -3.762  0.00  0.00    +0.000 HD
ATOM     17  H   UNL     1      -9.987   3.565  -4.256  0.00  0.00    +0.000 HD
ENDBRANCH   5  14
BRANCH   2  18
ATOM     18  C   UNL     1     -10.593   7.099  -6.196  0.00  0.00    +0.000 C 
ATOM     19  H   UNL     1     -11.010   7.194  -7.208  0.00  0.00    +0.000 HD
BRANCH  18  20
ATOM     20  C   UNL     1     -11.639   6.370  -5.340  0.00  0.00    +0.000 C 
ATOM     21  H   UNL     1     -12.286   7.070  -4.802  0.00  0.00    +0.000 HD
ATOM     22  H   UNL     1     -12.276   5.736  -5.966  0.00  0.00    +0.000 HD
ATOM     23  H   UNL     1     -11.151   5.730  -4.597  0.00  0.00    +0.000 HD
ENDBRANCH  18  20
BRANCH  18  24
ATOM     24  C   UNL     1     -10.385   8.522  -5.662  0.00  0.00    +0.000 C 
ATOM     25  H   UNL     1     -11.326   9.051  -5.489  0.00  0.00    +0.000 HD
ATOM     26  H   UNL     1      -9.810   9.114  -6.384  0.00  0.00    +0.000 HD
ATOM     27  H   UNL     1      -9.826   8.514  -4.722  0.00  0.00    +0.000 HD
ENDBRANCH  18  24
ENDBRANCH   2  18
TORSDOF 4
ENDMDL
MODEL 8
REMARK VINA RESULT:    -4.610     13.986     15.101
REMARK INTER + INTRA:          -5.484
REMARK INTER:                  -5.316
REMARK INTRA:                  -0.168
REMARK UNBOUND:                -0.200
REMARK  Name = 261491
REMARK  4 active torsions:
REMARK  status: ('A' for Active; 'I' for Inactive)
REMARK    1  A    between atoms: C_2  and  C_7
REMARK    2  A    between atoms: C_5  and  C_9
REMARK    3  A    between atoms: C_7  and  C_10
REMARK    4  A    between atoms: C_7  and  C_11
REMARK                            x       y       z     vdW  Elec       q    Type
REMARK                         _______ _______ _______ _____ _____    ______ ____
ROOT
ATOM      1  O   UNL     1      -0.954  10.409 -11.043  0.00  0.00    +0.000 OA
ATOM      2  C   UNL     1      -3.338   7.761 -11.175  0.00  0.00    +0.000 C 
ATOM      3  C   UNL     1      -2.103   7.085 -11.684  0.00  0.00    +0.000 C 
ATOM      4  C   UNL     1      -2.710   6.651 -10.375  0.00  0.00    +0.000 C 
ATOM      5  C   UNL     1      -0.958   8.066 -11.715  0.00  0.00    +0.000 C 
ATOM      6  C   UNL     1      -3.044   9.198 -10.864  0.00  0.00    +0.000 C 
ATOM      7  C   UNL     1      -1.570   9.360 -11.186  0.00  0.00    +0.000 C 
ATOM      8  H   UNL     1      -2.147   6.395 -12.514  0.00  0.00    +0.000 HD
ATOM      9  H   UNL     1      -2.194   6.904  -9.457  0.00  0.00    +0.000 HD
ATOM     10  H   UNL     1      -3.196   5.683 -10.346  0.00  0.00    +0.000 HD
ATOM     11  H   UNL     1      -0.167   7.741 -11.030  0.00  0.00    +0.000 HD
ATOM     12  H   UNL     1      -3.206   9.405  -9.803  0.00  0.00    +0.000 HD
ATOM     13  H   UNL     1      -3.603   9.913 -11.470  0.00  0.00    +0.000 HD
ENDROOT
BRANCH   5  14
ATOM     14  C   UNL     1      -0.416   8.273 -13.118  0.00  0.00    +0.000 C 
ATOM     15  H   UNL     1       0.331   7.513 -13.375  0.00  0.00    +0.000 HD
ATOM     16  H   UNL     1      -1.219   8.211 -13.860  0.00  0.00    +0.000 HD
ATOM     17  H   UNL     1       0.061   9.254 -13.211  0.00  0.00    +0.000 HD
ENDBRANCH   5  14
BRANCH   2  18
ATOM     18  C   UNL     1      -4.639   7.477 -11.839  0.00  0.00    +0.000 C 
ATOM     19  H   UNL     1      -5.224   8.403 -11.923  0.00  0.00    +0.000 HD
BRANCH  18  20
ATOM     20  C   UNL     1      -4.437   6.937 -13.261  0.00  0.00    +0.000 C 
ATOM     21  H   UNL     1      -3.681   7.506 -13.811  0.00  0.00    +0.000 HD
ATOM     22  H   UNL     1      -4.116   5.890 -13.234  0.00  0.00    +0.000 HD
ATOM     23  H   UNL     1      -5.371   6.988 -13.830  0.00  0.00    +0.000 HD
ENDBRANCH  18  20
BRANCH  18  24
ATOM     24  C   UNL     1      -5.482   6.489 -11.022  0.00  0.00    +0.000 C 
ATOM     25  H   UNL     1      -5.287   6.553  -9.948  0.00  0.00    +0.000 HD
ATOM     26  H   UNL     1      -5.258   5.460 -11.329  0.00  0.00    +0.000 HD
ATOM     27  H   UNL     1      -6.552   6.655 -11.180  0.00  0.00    +0.000 HD
ENDBRANCH  18  24
ENDBRANCH   2  18
TORSDOF 4
ENDMDL
MODEL 9
REMARK VINA RESULT:    -4.578     14.923     16.516
REMARK INTER + INTRA:          -5.447
REMARK INTER:                  -5.246
REMARK INTRA:                  -0.201
REMARK UNBOUND:                -0.200
REMARK  Name = 261491
REMARK  4 active torsions:
REMARK  status: ('A' for Active; 'I' for Inactive)
REMARK    1  A    between atoms: C_2  and  C_7
REMARK    2  A    between atoms: C_5  and  C_9
REMARK    3  A    between atoms: C_7  and  C_10
REMARK    4  A    between atoms: C_7  and  C_11
REMARK                            x       y       z     vdW  Elec       q    Type
REMARK                         _______ _______ _______ _____ _____    ______ ____
ROOT
ATOM      1  O   UNL     1     -11.964   6.757  -5.391  0.00  0.00    +0.000 OA
ATOM      2  C   UNL     1      -8.836   5.053  -5.566  0.00  0.00    +0.000 C 
ATOM      3  C   UNL     1      -8.418   6.478  -5.750  0.00  0.00    +0.000 C 
ATOM      4  C   UNL     1      -7.986   5.723  -4.520  0.00  0.00    +0.000 C 
ATOM      5  C   UNL     1      -9.629   7.377  -5.716  0.00  0.00    +0.000 C 
ATOM      6  C   UNL     1     -10.326   4.973  -5.414  0.00  0.00    +0.000 C 
ATOM      7  C   UNL     1     -10.792   6.415  -5.491  0.00  0.00    +0.000 C 
ATOM      8  H   UNL     1      -7.658   6.748  -6.469  0.00  0.00    +0.000 HD
ATOM      9  H   UNL     1      -8.440   5.978  -3.570  0.00  0.00    +0.000 HD
ATOM     10  H   UNL     1      -6.940   5.452  -4.441  0.00  0.00    +0.000 HD
ATOM     11  H   UNL     1      -9.564   8.062  -4.865  0.00  0.00    +0.000 HD
ATOM     12  H   UNL     1     -10.594   4.559  -4.438  0.00  0.00    +0.000 HD
ATOM     13  H   UNL     1     -10.829   4.412  -6.204  0.00  0.00    +0.000 HD
ENDROOT
BRANCH   5  14
ATOM     14  C   UNL     1      -9.817   8.137  -7.018  0.00  0.00    +0.000 C 
ATOM     15  H   UNL     1      -9.139   8.996  -7.081  0.00  0.00    +0.000 HD
ATOM     16  H   UNL     1      -9.615   7.492  -7.880  0.00  0.00    +0.000 HD
ATOM     17  H   UNL     1     -10.841   8.513  -7.105  0.00  0.00    +0.000 HD
ENDBRANCH   5  14
BRANCH   2  18
ATOM     18  C   UNL     1      -8.196   4.001  -6.402  0.00  0.00    +0.000 C 
ATOM     19  H   UNL     1      -7.450   3.457  -5.807  0.00  0.00    +0.000 HD
BRANCH  18  20
ATOM     20  C   UNL     1      -9.223   2.973  -6.894  0.00  0.00    +0.000 C 
ATOM     21  H   UNL     1     -10.236   3.388  -6.921  0.00  0.00    +0.000 HD
ATOM     22  H   UNL     1      -8.973   2.630  -7.904  0.00  0.00    +0.000 HD
ATOM     23  H   UNL     1      -9.240   2.098  -6.235  0.00  0.00    +0.000 HD
ENDBRANCH  18  20
BRANCH  18  24
ATOM     24  C   UNL     1      -7.456   4.611  -7.599  0.00  0.00    +0.000 C 
ATOM     25  H   UNL     1      -7.463   5.704  -7.590  0.00  0.00    +0.000 HD
ATOM     26  H   UNL     1      -7.930   4.294  -8.536  0.00  0.00    +0.000 HD
ATOM     27  H   UNL     1      -6.413   4.282  -7.630  0.00  0.00    +0.000 HD
ENDBRANCH  18  24
ENDBRANCH   2  18
TORSDOF 4
ENDMDL
MODEL 10
REMARK VINA RESULT:    -4.449     16.316     18.030
REMARK INTER + INTRA:          -5.300
REMARK INTER:                  -5.100
REMARK INTRA:                  -0.200
REMARK UNBOUND:                -0.200
REMARK  Name = 261491
REMARK  4 active torsions:
REMARK  status: ('A' for Active; 'I' for Inactive)
REMARK    1  A    between atoms: C_2  and  C_7
REMARK    2  A    between atoms: C_5  and  C_9
REMARK    3  A    between atoms: C_7  and  C_10
REMARK    4  A    between atoms: C_7  and  C_11
REMARK                            x       y       z     vdW  Elec       q    Type
REMARK                         _______ _______ _______ _____ _____    ______ ____
ROOT
ATOM      1  O   UNL     1      12.411  -4.820  10.409  0.00  0.00    +0.000 OA
ATOM      2  C   UNL     1      13.718  -3.726   7.277  0.00  0.00    +0.000 C 
ATOM      3  C   UNL     1      12.547  -4.554   6.847  0.00  0.00    +0.000 C 
ATOM      4  C   UNL     1      12.550  -3.069   6.593  0.00  0.00    +0.000 C 
ATOM      5  C   UNL     1      11.852  -5.127   8.057  0.00  0.00    +0.000 C 
ATOM      6  C   UNL     1      13.831  -3.738   8.772  0.00  0.00    +0.000 C 
ATOM      7  C   UNL     1      12.663  -4.590   9.233  0.00  0.00    +0.000 C 
ATOM      8  H   UNL     1      12.613  -5.212   5.993  0.00  0.00    +0.000 HD
ATOM      9  H   UNL     1      11.891  -2.442   7.182  0.00  0.00    +0.000 HD
ATOM     10  H   UNL     1      12.660  -2.737   5.567  0.00  0.00    +0.000 HD
ATOM     11  H   UNL     1      10.831  -4.739   8.122  0.00  0.00    +0.000 HD
ATOM     12  H   UNL     1      13.721  -2.727   9.176  0.00  0.00    +0.000 HD
ATOM     13  H   UNL     1      14.749  -4.189   9.151  0.00  0.00    +0.000 HD
ENDROOT
BRANCH   5  14
ATOM     14  C   UNL     1      11.862  -6.647   8.059  0.00  0.00    +0.000 C 
ATOM     15  H   UNL     1      12.818  -7.039   8.427  0.00  0.00    +0.000 HD
ATOM     16  H   UNL     1      11.072  -7.041   8.706  0.00  0.00    +0.000 HD
ATOM     17  H   UNL     1      11.706  -7.039   7.050  0.00  0.00    +0.000 HD
ENDBRANCH   5  14
BRANCH   2  18
ATOM     18  C   UNL     1      14.992  -3.830   6.514  0.00  0.00    +0.000 C 
ATOM     19  H   UNL     1      15.315  -2.830   6.193  0.00  0.00    +0.000 HD
BRANCH  18  20
ATOM     20  C   UNL     1      16.117  -4.416   7.377  0.00  0.00    +0.000 C 
ATOM     21  H   UNL     1      16.359  -5.444   7.091  0.00  0.00    +0.000 HD
ATOM     22  H   UNL     1      17.029  -3.817   7.281  0.00  0.00    +0.000 HD
ATOM     23  H   UNL     1      15.829  -4.424   8.434  0.00  0.00    +0.000 HD
ENDBRANCH  18  20
BRANCH  18  24
ATOM     24  C   UNL     1      14.817  -4.674   5.245  0.00  0.00    +0.000 C 
ATOM     25  H   UNL     1      15.480  -4.360   4.433  0.00  0.00    +0.000 HD
ATOM     26  H   UNL     1      13.790  -4.586   4.873  0.00  0.00    +0.000 HD
ATOM     27  H   UNL     1      15.007  -5.733   5.443  0.00  0.00    +0.000 HD
ENDBRANCH  18  24
ENDBRANCH   2  18
TORSDOF 4
ENDMDL
