MODEL 1
REMARK VINA RESULT:    -5.403      0.000      0.000
REMARK INTER + INTRA:          -5.403
REMARK INTER:                  -5.403
REMARK INTRA:                   0.000
REMARK UNBOUND:                 0.000
REMARK  Name = 7222
REMARK  0 active torsions:
REMARK  status: ('A' for Active; 'I' for Inactive)
REMARK                            x       y       z     vdW  Elec       q    Type
REMARK                         _______ _______ _______ _____ _____    ______ ____
ROOT
ATOM      1  S   UNL     1      -1.259   7.674 -12.517  0.00  0.00    +0.000 S 
ATOM      2  N   UNL     1      -1.037   9.869 -11.181  0.00  0.00    +0.000 NA
ATOM      3  C   UNL     1      -2.048   7.754 -10.986  0.00  0.00    +0.000 A 
ATOM      4  C   UNL     1      -1.815   9.011 -10.417  0.00  0.00    +0.000 A 
ATOM      5  C   UNL     1      -2.817   6.777 -10.334  0.00  0.00    +0.000 A 
ATOM      6  C   UNL     1      -2.373   9.296  -9.153  0.00  0.00    +0.000 A 
ATOM      7  C   UNL     1      -3.357   7.084  -9.084  0.00  0.00    +0.000 A 
ATOM      8  C   UNL     1      -3.140   8.327  -8.498  0.00  0.00    +0.000 A 
ATOM      9  C   UNL     1      -0.691   9.273 -12.298  0.00  0.00    +0.000 A 
ATOM     10  H   UNL     1      -2.990   5.805 -10.785  0.00  0.00    +0.000 HD
ATOM     11  H   UNL     1      -2.210  10.263  -8.686  0.00  0.00    +0.000 HD
ATOM     12  H   UNL     1      -3.956   6.342  -8.562  0.00  0.00    +0.000 HD
ATOM     13  H   UNL     1      -3.569   8.548  -7.524  0.00  0.00    +0.000 HD
ATOM     14  H   UNL     1      -0.081   9.762 -13.044  0.00  0.00    +0.000 HD
ENDROOT
TORSDOF 0
ENDMDL
MODEL 2
REMARK VINA RESULT:    -5.328      1.225      2.031
REMARK INTER + INTRA:          -5.328
REMARK INTER:                  -5.328
REMARK INTRA:                   0.000
REMARK UNBOUND:                 0.000
REMARK  Name = 7222
REMARK  0 active torsions:
REMARK  status: ('A' for Active; 'I' for Inactive)
REMARK                            x       y       z     vdW  Elec       q    Type
REMARK                         _______ _______ _______ _____ _____    ______ ____
ROOT
ATOM      1  S   UNL     1      -0.937  10.034 -11.411  0.00  0.00    +0.000 S 
ATOM      2  N   UNL     1      -1.380   7.639 -12.257  0.00  0.00    +0.000 NA
ATOM      3  C   UNL     1      -1.884   9.000 -10.407  0.00  0.00    +0.000 A 
ATOM      4  C   UNL     1      -2.014   7.754 -11.029  0.00  0.00    +0.000 A 
ATOM      5  C   UNL     1      -2.469   9.271  -9.160  0.00  0.00    +0.000 A 
ATOM      6  C   UNL     1      -2.757   6.747 -10.377  0.00  0.00    +0.000 A 
ATOM      7  C   UNL     1      -3.199   8.257  -8.536  0.00  0.00    +0.000 A 
ATOM      8  C   UNL     1      -3.342   7.009  -9.135  0.00  0.00    +0.000 A 
ATOM      9  C   UNL     1      -0.786   8.771 -12.555  0.00  0.00    +0.000 A 
ATOM     10  H   UNL     1      -2.361  10.242  -8.687  0.00  0.00    +0.000 HD
ATOM     11  H   UNL     1      -2.875   5.769 -10.835  0.00  0.00    +0.000 HD
ATOM     12  H   UNL     1      -3.660   8.445  -7.570  0.00  0.00    +0.000 HD
ATOM     13  H   UNL     1      -3.914   6.232  -8.635  0.00  0.00    +0.000 HD
ATOM     14  H   UNL     1      -0.230   8.904 -13.472  0.00  0.00    +0.000 HD
ENDROOT
TORSDOF 0
ENDMDL
MODEL 3
REMARK VINA RESULT:    -4.715      2.029      3.810
REMARK INTER + INTRA:          -4.715
REMARK INTER:                  -4.715
REMARK INTRA:                   0.000
REMARK UNBOUND:                 0.000
REMARK  Name = 7222
REMARK  0 active torsions:
REMARK  status: ('A' for Active; 'I' for Inactive)
REMARK                            x       y       z     vdW  Elec       q    Type
REMARK                         _______ _______ _______ _____ _____    ______ ____
ROOT
ATOM      1  S   UNL     1      -2.816   8.879  -8.821  0.00  0.00    +0.000 S 
ATOM      2  N   UNL     1      -2.862   6.677 -10.163  0.00  0.00    +0.000 NA
ATOM      3  C   UNL     1      -1.952   8.840 -10.312  0.00  0.00    +0.000 A 
ATOM      4  C   UNL     1      -2.093   7.575 -10.889  0.00  0.00    +0.000 A 
ATOM      5  C   UNL     1      -1.203   9.856 -10.927  0.00  0.00    +0.000 A 
ATOM      6  C   UNL     1      -1.462   7.320 -12.126  0.00  0.00    +0.000 A 
ATOM      7  C   UNL     1      -0.588   9.578 -12.150  0.00  0.00    +0.000 A 
ATOM      8  C   UNL     1      -0.714   8.327 -12.745  0.00  0.00    +0.000 A 
ATOM      9  C   UNL     1      -3.291   7.253  -9.064  0.00  0.00    +0.000 A 
ATOM     10  H   UNL     1      -1.100  10.835 -10.469  0.00  0.00    +0.000 HD
ATOM     11  H   UNL     1      -1.554   6.346 -12.598  0.00  0.00    +0.000 HD
ATOM     12  H   UNL     1      -0.004  10.351 -12.644  0.00  0.00    +0.000 HD
ATOM     13  H   UNL     1      -0.229   8.128 -13.696  0.00  0.00    +0.000 HD
ATOM     14  H   UNL     1      -3.910   6.734  -8.348  0.00  0.00    +0.000 HD
ENDROOT
TORSDOF 0
ENDMDL
MODEL 4
REMARK VINA RESULT:    -4.560      1.723      3.154
REMARK INTER + INTRA:          -4.560
REMARK INTER:                  -4.560
REMARK INTRA:                   0.000
REMARK UNBOUND:                 0.000
REMARK  Name = 7222
REMARK  0 active torsions:
REMARK  status: ('A' for Active; 'I' for Inactive)
REMARK                            x       y       z     vdW  Elec       q    Type
REMARK                         _______ _______ _______ _____ _____    ______ ____
ROOT
ATOM      1  S   UNL     1      -3.284   7.426  -9.207  0.00  0.00    +0.000 S 
ATOM      2  N   UNL     1      -2.072   9.687  -9.470  0.00  0.00    +0.000 NA
ATOM      3  C   UNL     1      -2.327   7.653 -10.623  0.00  0.00    +0.000 A 
ATOM      4  C   UNL     1      -1.754   8.928 -10.588  0.00  0.00    +0.000 A 
ATOM      5  C   UNL     1      -2.100   6.768 -11.689  0.00  0.00    +0.000 A 
ATOM      6  C   UNL     1      -0.926   9.328 -11.657  0.00  0.00    +0.000 A 
ATOM      7  C   UNL     1      -1.276   7.188 -12.735  0.00  0.00    +0.000 A 
ATOM      8  C   UNL     1      -0.694   8.452 -12.722  0.00  0.00    +0.000 A 
ATOM      9  C   UNL     1      -2.865   9.000  -8.682  0.00  0.00    +0.000 A 
ATOM     10  H   UNL     1      -2.550   5.780 -11.705  0.00  0.00    +0.000 HD
ATOM     11  H   UNL     1      -0.467  10.313 -11.658  0.00  0.00    +0.000 HD
ATOM     12  H   UNL     1      -1.086   6.518 -13.570  0.00  0.00    +0.000 HD
ATOM     13  H   UNL     1      -0.056   8.762 -13.545  0.00  0.00    +0.000 HD
ATOM     14  H   UNL     1      -3.238   9.401  -7.751  0.00  0.00    +0.000 HD
ENDROOT
TORSDOF 0
ENDMDL
MODEL 5
REMARK VINA RESULT:    -4.394     17.462     18.854
REMARK INTER + INTRA:          -4.394
REMARK INTER:                  -4.394
REMARK INTRA:                   0.000
REMARK UNBOUND:                 0.000
REMARK  Name = 7222
REMARK  0 active torsions:
REMARK  status: ('A' for Active; 'I' for Inactive)
REMARK                            x       y       z     vdW  Elec       q    Type
REMARK                         _______ _______ _______ _____ _____    ______ ____
ROOT
ATOM      1  S   UNL     1      -9.211  10.815   8.068  0.00  0.00    +0.000 S 
ATOM      2  N   UNL     1      -7.887  12.985   8.500  0.00  0.00    +0.000 NA
ATOM      3  C   UNL     1      -8.291  11.457   6.759  0.00  0.00    +0.000 A 
ATOM      4  C   UNL     1      -7.649  12.625   7.182  0.00  0.00    +0.000 A 
ATOM      5  C   UNL     1      -8.148  10.963   5.452  0.00  0.00    +0.000 A 
ATOM      6  C   UNL     1      -6.835  13.320   6.262  0.00  0.00    +0.000 A 
ATOM      7  C   UNL     1      -7.337  11.671   4.562  0.00  0.00    +0.000 A 
ATOM      8  C   UNL     1      -6.688  12.835   4.959  0.00  0.00    +0.000 A 
ATOM      9  C   UNL     1      -8.690  12.110   9.058  0.00  0.00    +0.000 A 
ATOM     10  H   UNL     1      -8.652  10.055   5.136  0.00  0.00    +0.000 HD
ATOM     11  H   UNL     1      -6.323  14.230   6.562  0.00  0.00    +0.000 HD
ATOM     12  H   UNL     1      -7.213  11.306   3.546  0.00  0.00    +0.000 HD
ATOM     13  H   UNL     1      -6.061  13.372   4.253  0.00  0.00    +0.000 HD
ATOM     14  H   UNL     1      -9.009  12.197  10.086  0.00  0.00    +0.000 HD
ENDROOT
TORSDOF 0
ENDMDL
MODEL 6
REMARK VINA RESULT:    -4.332     17.491     18.905
REMARK INTER + INTRA:          -4.332
REMARK INTER:                  -4.332
REMARK INTRA:                   0.000
REMARK UNBOUND:                 0.000
REMARK  Name = 7222
REMARK  0 active torsions:
REMARK  status: ('A' for Active; 'I' for Inactive)
REMARK                            x       y       z     vdW  Elec       q    Type
REMARK                         _______ _______ _______ _____ _____    ______ ____
ROOT
ATOM      1  S   UNL     1      -8.710  11.772   8.894  0.00  0.00    +0.000 S 
ATOM      2  N   UNL     1      -9.234  10.042   7.054  0.00  0.00    +0.000 NA
ATOM      3  C   UNL     1      -8.016  12.034   7.337  0.00  0.00    +0.000 A 
ATOM      4  C   UNL     1      -8.411  11.001   6.481  0.00  0.00    +0.000 A 
ATOM      5  C   UNL     1      -7.184  13.078   6.904  0.00  0.00    +0.000 A 
ATOM      6  C   UNL     1      -7.954  11.016   5.146  0.00  0.00    +0.000 A 
ATOM      7  C   UNL     1      -6.746  13.070   5.578  0.00  0.00    +0.000 A 
ATOM      8  C   UNL     1      -7.125  12.052   4.707  0.00  0.00    +0.000 A 
ATOM      9  C   UNL     1      -9.455  10.346   8.312  0.00  0.00    +0.000 A 
ATOM     10  H   UNL     1      -6.884  13.875   7.578  0.00  0.00    +0.000 HD
ATOM     11  H   UNL     1      -8.244  10.227   4.458  0.00  0.00    +0.000 HD
ATOM     12  H   UNL     1      -6.100  13.868   5.222  0.00  0.00    +0.000 HD
ATOM     13  H   UNL     1      -6.774  12.062   3.679  0.00  0.00    +0.000 HD
ATOM     14  H   UNL     1     -10.073   9.731   8.950  0.00  0.00    +0.000 HD
ENDROOT
TORSDOF 0
ENDMDL
MODEL 7
REMARK VINA RESULT:    -4.328      9.213     10.109
REMARK INTER + INTRA:          -4.328
REMARK INTER:                  -4.328
REMARK INTRA:                   0.000
REMARK UNBOUND:                 0.000
REMARK  Name = 7222
REMARK  0 active torsions:
REMARK  status: ('A' for Active; 'I' for Inactive)
REMARK                            x       y       z     vdW  Elec       q    Type
REMARK                         _______ _______ _______ _____ _____    ______ ____
ROOT
ATOM      1  S   UNL     1     -10.214   8.387  -5.849  0.00  0.00    +0.000 S 
ATOM      2  N   UNL     1     -11.923   6.469  -6.079  0.00  0.00    +0.000 NA
ATOM      3  C   UNL     1      -9.671   6.792  -5.483  0.00  0.00    +0.000 A 
ATOM      4  C   UNL     1     -10.729   5.897  -5.665  0.00  0.00    +0.000 A 
ATOM      5  C   UNL     1      -8.401   6.364  -5.066  0.00  0.00    +0.000 A 
ATOM      6  C   UNL     1     -10.505   4.525  -5.419  0.00  0.00    +0.000 A 
ATOM      7  C   UNL     1      -8.205   5.001  -4.830  0.00  0.00    +0.000 A 
ATOM      8  C   UNL     1      -9.243   4.091  -5.003  0.00  0.00    +0.000 A 
ATOM      9  C   UNL     1     -11.768   7.767  -6.207  0.00  0.00    +0.000 A 
ATOM     10  H   UNL     1      -7.587   7.069  -4.928  0.00  0.00    +0.000 HD
ATOM     11  H   UNL     1     -11.308   3.806  -5.552  0.00  0.00    +0.000 HD
ATOM     12  H   UNL     1      -7.230   4.649  -4.506  0.00  0.00    +0.000 HD
ATOM     13  H   UNL     1      -9.073   3.035  -4.815  0.00  0.00    +0.000 HD
ATOM     14  H   UNL     1     -12.574   8.413  -6.522  0.00  0.00    +0.000 HD
ENDROOT
TORSDOF 0
ENDMDL
MODEL 8
REMARK VINA RESULT:    -4.293     17.333     18.660
REMARK INTER + INTRA:          -4.293
REMARK INTER:                  -4.293
REMARK INTRA:                   0.000
REMARK UNBOUND:                 0.000
REMARK  Name = 7222
REMARK  0 active torsions:
REMARK  status: ('A' for Active; 'I' for Inactive)
REMARK                            x       y       z     vdW  Elec       q    Type
REMARK                         _______ _______ _______ _____ _____    ______ ____
ROOT
ATOM      1  S   UNL     1      -7.713  13.029   8.848  0.00  0.00    +0.000 S 
ATOM      2  N   UNL     1      -6.333  14.313   7.088  0.00  0.00    +0.000 NA
ATOM      3  C   UNL     1      -7.699  12.405   7.241  0.00  0.00    +0.000 A 
ATOM      4  C   UNL     1      -6.904  13.229   6.438  0.00  0.00    +0.000 A 
ATOM      5  C   UNL     1      -8.343  11.268   6.728  0.00  0.00    +0.000 A 
ATOM      6  C   UNL     1      -6.752  12.901   5.074  0.00  0.00    +0.000 A 
ATOM      7  C   UNL     1      -8.176  10.966   5.375  0.00  0.00    +0.000 A 
ATOM      8  C   UNL     1      -7.391  11.771   4.555  0.00  0.00    +0.000 A 
ATOM      9  C   UNL     1      -6.689  14.307   8.352  0.00  0.00    +0.000 A 
ATOM     10  H   UNL     1      -8.958  10.636   7.362  0.00  0.00    +0.000 HD
ATOM     11  H   UNL     1      -6.141  13.523   4.425  0.00  0.00    +0.000 HD
ATOM     12  H   UNL     1      -8.667  10.091   4.957  0.00  0.00    +0.000 HD
ATOM     13  H   UNL     1      -7.273  11.521   3.505  0.00  0.00    +0.000 HD
ATOM     14  H   UNL     1      -6.356  15.065   9.046  0.00  0.00    +0.000 HD
ENDROOT
TORSDOF 0
ENDMDL
MODEL 9
REMARK VINA RESULT:    -4.265     26.069     26.669
REMARK INTER + INTRA:          -4.265
REMARK INTER:                  -4.265
REMARK INTRA:                   0.000
REMARK UNBOUND:                 0.000
REMARK  Name = 7222
REMARK  0 active torsions:
REMARK  status: ('A' for Active; 'I' for Inactive)
REMARK                            x       y       z     vdW  Elec       q    Type
REMARK                         _______ _______ _______ _____ _____    ______ ____
ROOT
ATOM      1  S   UNL     1     -21.462  -4.448   3.870  0.00  0.00    +0.000 S 
ATOM      2  N   UNL     1     -21.375  -2.085   2.842  0.00  0.00    +0.000 NA
ATOM      3  C   UNL     1     -21.079  -3.138   4.923  0.00  0.00    +0.000 A 
ATOM      4  C   UNL     1     -21.080  -1.947   4.190  0.00  0.00    +0.000 A 
ATOM      5  C   UNL     1     -20.799  -3.162   6.299  0.00  0.00    +0.000 A 
ATOM      6  C   UNL     1     -20.789  -0.740   4.860  0.00  0.00    +0.000 A 
ATOM      7  C   UNL     1     -20.514  -1.953   6.938  0.00  0.00    +0.000 A 
ATOM      8  C   UNL     1     -20.508  -0.755   6.230  0.00  0.00    +0.000 A 
ATOM      9  C   UNL     1     -21.592  -3.349   2.565  0.00  0.00    +0.000 A 
ATOM     10  H   UNL     1     -20.802  -4.093   6.857  0.00  0.00    +0.000 HD
ATOM     11  H   UNL     1     -20.781   0.201   4.317  0.00  0.00    +0.000 HD
ATOM     12  H   UNL     1     -20.294  -1.949   8.002  0.00  0.00    +0.000 HD
ATOM     13  H   UNL     1     -20.285   0.175   6.743  0.00  0.00    +0.000 HD
ATOM     14  H   UNL     1     -21.840  -3.684   1.568  0.00  0.00    +0.000 HD
ENDROOT
TORSDOF 0
ENDMDL
MODEL 10
REMARK VINA RESULT:    -4.253     27.200     28.577
REMARK INTER + INTRA:          -4.253
REMARK INTER:                  -4.253
REMARK INTRA:                   0.000
REMARK UNBOUND:                 0.000
REMARK  Name = 7222
REMARK  0 active torsions:
REMARK  status: ('A' for Active; 'I' for Inactive)
REMARK                            x       y       z     vdW  Elec       q    Type
REMARK                         _______ _______ _______ _____ _____    ______ ____
ROOT
ATOM      1  S   UNL     1     -23.911  -3.055   6.874  0.00  0.00    +0.000 S 
ATOM      2  N   UNL     1     -22.674  -1.885   8.811  0.00  0.00    +0.000 NA
ATOM      3  C   UNL     1     -22.525  -2.111   6.475  0.00  0.00    +0.000 A 
ATOM      4  C   UNL     1     -21.994  -1.561   7.646  0.00  0.00    +0.000 A 
ATOM      5  C   UNL     1     -21.947  -1.874   5.217  0.00  0.00    +0.000 A 
ATOM      6  C   UNL     1     -20.846  -0.745   7.552  0.00  0.00    +0.000 A 
ATOM      7  C   UNL     1     -20.812  -1.063   5.151  0.00  0.00    +0.000 A 
ATOM      8  C   UNL     1     -20.266  -0.504   6.303  0.00  0.00    +0.000 A 
ATOM      9  C   UNL     1     -23.693  -2.662   8.524  0.00  0.00    +0.000 A 
ATOM     10  H   UNL     1     -22.368  -2.307   4.315  0.00  0.00    +0.000 HD
ATOM     11  H   UNL     1     -20.412  -0.304   8.444  0.00  0.00    +0.000 HD
ATOM     12  H   UNL     1     -20.349  -0.867   4.188  0.00  0.00    +0.000 HD
ATOM     13  H   UNL     1     -19.383   0.123   6.232  0.00  0.00    +0.000 HD
ATOM     14  H   UNL     1     -24.362  -3.036   9.286  0.00  0.00    +0.000 HD
ENDROOT
TORSDOF 0
ENDMDL
