MODEL 1
REMARK VINA RESULT:    -5.342      0.000      0.000
REMARK INTER + INTRA:          -6.269
REMARK INTER:                  -6.126
REMARK INTRA:                  -0.143
REMARK UNBOUND:                -0.146
REMARK  Name = 249286
REMARK  4 active torsions:
REMARK  status: ('A' for Active; 'I' for Inactive)
REMARK    1  A    between atoms: C_2  and  C_7
REMARK    2  A    between atoms: C_5  and  C_9
REMARK    3  A    between atoms: C_7  and  C_10
REMARK    4  A    between atoms: C_7  and  C_11
REMARK                            x       y       z     vdW  Elec       q    Type
REMARK                         _______ _______ _______ _____ _____    ______ ____
ROOT
ATOM      1  O   UNL     1      -3.002   7.385 -13.682  0.00  0.00    +0.000 OA
ATOM      2  C   UNL     1      -2.621   7.562 -10.212  0.00  0.00    +0.000 C 
ATOM      3  C   UNL     1      -3.919   6.697 -10.391  0.00  0.00    +0.000 C 
ATOM      4  C   UNL     1      -3.398   7.049  -9.052  0.00  0.00    +0.000 C 
ATOM      5  C   UNL     1      -4.427   7.293 -11.671  0.00  0.00    +0.000 C 
ATOM      6  C   UNL     1      -1.934   7.190 -11.486  0.00  0.00    +0.000 C 
ATOM      7  C   UNL     1      -3.107   7.306 -12.468  0.00  0.00    +0.000 C 
ATOM      8  H   UNL     1      -3.834   5.617 -10.541  0.00  0.00    +0.000 HD
ATOM      9  H   UNL     1      -2.912   6.257  -8.480  0.00  0.00    +0.000 HD
ATOM     10  H   UNL     1      -4.186   7.462  -8.437  0.00  0.00    +0.000 HD
ATOM     11  H   UNL     1      -4.807   8.311 -11.538  0.00  0.00    +0.000 HD
ATOM     12  H   UNL     1      -1.592   6.149 -11.463  0.00  0.00    +0.000 HD
ATOM     13  H   UNL     1      -1.108   7.811 -11.824  0.00  0.00    +0.000 HD
ENDROOT
BRANCH   5  14
ATOM     14  C   UNL     1      -5.484   6.439 -12.344  0.00  0.00    +0.000 C 
ATOM     15  H   UNL     1      -5.932   6.973 -13.189  0.00  0.00    +0.000 HD
ATOM     16  H   UNL     1      -5.064   5.506 -12.734  0.00  0.00    +0.000 HD
ATOM     17  H   UNL     1      -6.281   6.180 -11.639  0.00  0.00    +0.000 HD
ENDBRANCH   5  14
BRANCH   2  18
ATOM     18  C   UNL     1      -2.625   9.075 -10.096  0.00  0.00    +0.000 C 
ATOM     19  H   UNL     1      -3.407   9.527 -10.719  0.00  0.00    +0.000 HD
BRANCH  18  20
ATOM     20  C   UNL     1      -2.902   9.512  -8.656  0.00  0.00    +0.000 C 
ATOM     21  H   UNL     1      -2.911   8.688  -7.933  0.00  0.00    +0.000 HD
ATOM     22  H   UNL     1      -2.081  10.163  -8.325  0.00  0.00    +0.000 HD
ATOM     23  H   UNL     1      -3.788  10.150  -8.565  0.00  0.00    +0.000 HD
ENDBRANCH  18  20
BRANCH  18  24
ATOM     24  C   UNL     1      -1.299   9.663 -10.582  0.00  0.00    +0.000 C 
ATOM     25  H   UNL     1      -0.464   8.976 -10.405  0.00  0.00    +0.000 HD
ATOM     26  H   UNL     1      -1.073  10.600 -10.059  0.00  0.00    +0.000 HD
ATOM     27  H   UNL     1      -1.317   9.919 -11.645  0.00  0.00    +0.000 HD
ENDBRANCH  18  24
ENDBRANCH   2  18
TORSDOF 4
ENDMDL
MODEL 2
REMARK VINA RESULT:    -5.160     13.526     14.848
REMARK INTER + INTRA:          -6.060
REMARK INTER:                  -5.946
REMARK INTRA:                  -0.115
REMARK UNBOUND:                -0.146
REMARK  Name = 249286
REMARK  4 active torsions:
REMARK  status: ('A' for Active; 'I' for Inactive)
REMARK    1  A    between atoms: C_2  and  C_7
REMARK    2  A    between atoms: C_5  and  C_9
REMARK    3  A    between atoms: C_7  and  C_10
REMARK    4  A    between atoms: C_7  and  C_11
REMARK                            x       y       z     vdW  Elec       q    Type
REMARK                         _______ _______ _______ _____ _____    ______ ____
ROOT
ATOM      1  O   UNL     1       3.130  11.356   1.302  0.00  0.00    +0.000 OA
ATOM      2  C   UNL     1       5.676   9.410  -0.092  0.00  0.00    +0.000 C 
ATOM      3  C   UNL     1       5.113   8.501   1.058  0.00  0.00    +0.000 C 
ATOM      4  C   UNL     1       6.244   8.068   0.209  0.00  0.00    +0.000 C 
ATOM      5  C   UNL     1       4.676   9.572   2.014  0.00  0.00    +0.000 C 
ATOM      6  C   UNL     1       4.426  10.167  -0.403  0.00  0.00    +0.000 C 
ATOM      7  C   UNL     1       3.953  10.501   1.018  0.00  0.00    +0.000 C 
ATOM      8  H   UNL     1       4.249   7.858   0.866  0.00  0.00    +0.000 HD
ATOM      9  H   UNL     1       6.045   7.299  -0.538  0.00  0.00    +0.000 HD
ATOM     10  H   UNL     1       7.066   7.724   0.822  0.00  0.00    +0.000 HD
ATOM     11  H   UNL     1       5.521  10.089   2.479  0.00  0.00    +0.000 HD
ATOM     12  H   UNL     1       3.681   9.523  -0.883  0.00  0.00    +0.000 HD
ATOM     13  H   UNL     1       4.512  11.082  -0.987  0.00  0.00    +0.000 HD
ENDROOT
BRANCH   5  14
ATOM     14  C   UNL     1       3.738   9.059   3.090  0.00  0.00    +0.000 C 
ATOM     15  H   UNL     1       4.269   8.937   4.040  0.00  0.00    +0.000 HD
ATOM     16  H   UNL     1       2.907   9.751   3.267  0.00  0.00    +0.000 HD
ATOM     17  H   UNL     1       3.314   8.090   2.805  0.00  0.00    +0.000 HD
ENDBRANCH   5  14
BRANCH   2  18
ATOM     18  C   UNL     1       6.804  10.406   0.097  0.00  0.00    +0.000 C 
ATOM     19  H   UNL     1       6.636  11.048   0.971  0.00  0.00    +0.000 HD
BRANCH  18  20
ATOM     20  C   UNL     1       8.136   9.688   0.328  0.00  0.00    +0.000 C 
ATOM     21  H   UNL     1       8.552   9.219  -0.571  0.00  0.00    +0.000 HD
ATOM     22  H   UNL     1       8.887  10.432   0.628  0.00  0.00    +0.000 HD
ATOM     23  H   UNL     1       8.107   8.995   1.177  0.00  0.00    +0.000 HD
ENDBRANCH  18  20
BRANCH  18  24
ATOM     24  C   UNL     1       6.911  11.345  -1.107  0.00  0.00    +0.000 C 
ATOM     25  H   UNL     1       6.385  10.943  -1.979  0.00  0.00    +0.000 HD
ATOM     26  H   UNL     1       7.960  11.495  -1.393  0.00  0.00    +0.000 HD
ATOM     27  H   UNL     1       6.520  12.345  -0.897  0.00  0.00    +0.000 HD
ENDBRANCH  18  24
ENDBRANCH   2  18
TORSDOF 4
ENDMDL
MODEL 3
REMARK VINA RESULT:    -5.048     16.841     18.272
REMARK INTER + INTRA:          -5.932
REMARK INTER:                  -5.904
REMARK INTRA:                  -0.028
REMARK UNBOUND:                -0.146
REMARK  Name = 249286
REMARK  4 active torsions:
REMARK  status: ('A' for Active; 'I' for Inactive)
REMARK    1  A    between atoms: C_2  and  C_7
REMARK    2  A    between atoms: C_5  and  C_9
REMARK    3  A    between atoms: C_7  and  C_10
REMARK    4  A    between atoms: C_7  and  C_11
REMARK                            x       y       z     vdW  Elec       q    Type
REMARK                         _______ _______ _______ _____ _____    ______ ____
ROOT
ATOM      1  O   UNL     1     -10.885  12.017   7.154  0.00  0.00    +0.000 OA
ATOM      2  C   UNL     1      -8.347  12.205   4.758  0.00  0.00    +0.000 C 
ATOM      3  C   UNL     1      -8.081  10.826   5.461  0.00  0.00    +0.000 C 
ATOM      4  C   UNL     1      -7.207  11.327   4.378  0.00  0.00    +0.000 C 
ATOM      5  C   UNL     1      -8.597  11.154   6.831  0.00  0.00    +0.000 C 
ATOM      6  C   UNL     1      -9.826  12.270   4.959  0.00  0.00    +0.000 C 
ATOM      7  C   UNL     1      -9.917  11.844   6.430  0.00  0.00    +0.000 C 
ATOM      8  H   UNL     1      -8.609   9.932   5.116  0.00  0.00    +0.000 HD
ATOM      9  H   UNL     1      -7.293  10.848   3.402  0.00  0.00    +0.000 HD
ATOM     10  H   UNL     1      -6.170  11.277   4.678  0.00  0.00    +0.000 HD
ATOM     11  H   UNL     1      -7.946  11.852   7.368  0.00  0.00    +0.000 HD
ATOM     12  H   UNL     1     -10.344  11.527   4.342  0.00  0.00    +0.000 HD
ATOM     13  H   UNL     1     -10.321  13.229   4.823  0.00  0.00    +0.000 HD
ENDROOT
BRANCH   5  14
ATOM     14  C   UNL     1      -8.839   9.924   7.684  0.00  0.00    +0.000 C 
ATOM     15  H   UNL     1      -8.499  10.093   8.712  0.00  0.00    +0.000 HD
ATOM     16  H   UNL     1      -9.903   9.666   7.731  0.00  0.00    +0.000 HD
ATOM     17  H   UNL     1      -8.301   9.060   7.281  0.00  0.00    +0.000 HD
ENDBRANCH   5  14
BRANCH   2  18
ATOM     18  C   UNL     1      -7.743  13.517   5.221  0.00  0.00    +0.000 C 
ATOM     19  H   UNL     1      -8.027  13.752   6.254  0.00  0.00    +0.000 HD
BRANCH  18  20
ATOM     20  C   UNL     1      -6.215  13.458   5.187  0.00  0.00    +0.000 C 
ATOM     21  H   UNL     1      -5.724  14.391   5.487  0.00  0.00    +0.000 HD
ATOM     22  H   UNL     1      -5.877  12.716   5.925  0.00  0.00    +0.000 HD
ATOM     23  H   UNL     1      -5.822  13.073   4.239  0.00  0.00    +0.000 HD
ENDBRANCH  18  20
BRANCH  18  24
ATOM     24  C   UNL     1      -8.247  14.682   4.366  0.00  0.00    +0.000 C 
ATOM     25  H   UNL     1      -7.422  15.318   4.026  0.00  0.00    +0.000 HD
ATOM     26  H   UNL     1      -8.939  15.313   4.935  0.00  0.00    +0.000 HD
ATOM     27  H   UNL     1      -8.810  14.348   3.490  0.00  0.00    +0.000 HD
ENDBRANCH  18  24
ENDBRANCH   2  18
TORSDOF 4
ENDMDL
MODEL 4
REMARK VINA RESULT:    -4.684      7.631      8.661
REMARK INTER + INTRA:          -5.515
REMARK INTER:                  -5.409
REMARK INTRA:                  -0.105
REMARK UNBOUND:                -0.146
REMARK  Name = 249286
REMARK  4 active torsions:
REMARK  status: ('A' for Active; 'I' for Inactive)
REMARK    1  A    between atoms: C_2  and  C_7
REMARK    2  A    between atoms: C_5  and  C_9
REMARK    3  A    between atoms: C_7  and  C_10
REMARK    4  A    between atoms: C_7  and  C_11
REMARK                            x       y       z     vdW  Elec       q    Type
REMARK                         _______ _______ _______ _____ _____    ______ ____
ROOT
ATOM      1  O   UNL     1     -10.595   2.583  -7.993  0.00  0.00    +0.000 OA
ATOM      2  C   UNL     1      -8.262   4.158  -5.921  0.00  0.00    +0.000 C 
ATOM      3  C   UNL     1      -9.246   3.475  -4.906  0.00  0.00    +0.000 C 
ATOM      4  C   UNL     1      -8.099   4.288  -4.448  0.00  0.00    +0.000 C 
ATOM      5  C   UNL     1     -10.506   3.535  -5.719  0.00  0.00    +0.000 C 
ATOM      6  C   UNL     1      -8.416   3.197  -7.054  0.00  0.00    +0.000 C 
ATOM      7  C   UNL     1      -9.943   3.039  -7.067  0.00  0.00    +0.000 C 
ATOM      8  H   UNL     1      -9.089   2.432  -4.618  0.00  0.00    +0.000 HD
ATOM      9  H   UNL     1      -7.245   3.757  -4.025  0.00  0.00    +0.000 HD
ATOM     10  H   UNL     1      -8.421   5.020  -3.721  0.00  0.00    +0.000 HD
ATOM     11  H   UNL     1     -10.894   4.554  -5.816  0.00  0.00    +0.000 HD
ATOM     12  H   UNL     1      -7.961   2.228  -6.818  0.00  0.00    +0.000 HD
ATOM     13  H   UNL     1      -8.070   3.504  -8.039  0.00  0.00    +0.000 HD
ENDROOT
BRANCH   5  14
ATOM     14  C   UNL     1     -11.596   2.622  -5.193  0.00  0.00    +0.000 C 
ATOM     15  H   UNL     1     -11.167   1.821  -4.580  0.00  0.00    +0.000 HD
ATOM     16  H   UNL     1     -12.313   3.164  -4.567  0.00  0.00    +0.000 HD
ATOM     17  H   UNL     1     -12.151   2.164  -6.019  0.00  0.00    +0.000 HD
ENDBRANCH   5  14
BRANCH   2  18
ATOM     18  C   UNL     1      -8.447   5.564  -6.458  0.00  0.00    +0.000 C 
ATOM     19  H   UNL     1      -9.457   5.716  -6.857  0.00  0.00    +0.000 HD
BRANCH  18  20
ATOM     20  C   UNL     1      -8.250   6.603  -5.352  0.00  0.00    +0.000 C 
ATOM     21  H   UNL     1      -8.720   7.571  -5.559  0.00  0.00    +0.000 HD
ATOM     22  H   UNL     1      -8.747   6.241  -4.441  0.00  0.00    +0.000 HD
ATOM     23  H   UNL     1      -7.203   6.710  -5.047  0.00  0.00    +0.000 HD
ENDBRANCH  18  20
BRANCH  18  24
ATOM     24  C   UNL     1      -7.485   5.837  -7.617  0.00  0.00    +0.000 C 
ATOM     25  H   UNL     1      -7.812   5.340  -8.537  0.00  0.00    +0.000 HD
ATOM     26  H   UNL     1      -6.479   5.471  -7.383  0.00  0.00    +0.000 HD
ATOM     27  H   UNL     1      -7.368   6.904  -7.824  0.00  0.00    +0.000 HD
ENDBRANCH  18  24
ENDBRANCH   2  18
TORSDOF 4
ENDMDL
MODEL 5
REMARK VINA RESULT:    -4.462     25.989     27.281
REMARK INTER + INTRA:          -5.260
REMARK INTER:                  -5.113
REMARK INTRA:                  -0.147
REMARK UNBOUND:                -0.146
REMARK  Name = 249286
REMARK  4 active torsions:
REMARK  status: ('A' for Active; 'I' for Inactive)
REMARK    1  A    between atoms: C_2  and  C_7
REMARK    2  A    between atoms: C_5  and  C_9
REMARK    3  A    between atoms: C_7  and  C_10
REMARK    4  A    between atoms: C_7  and  C_11
REMARK                            x       y       z     vdW  Elec       q    Type
REMARK                         _______ _______ _______ _____ _____    ______ ____
ROOT
ATOM      1  O   UNL     1     -23.016  -4.690   4.830  0.00  0.00    +0.000 OA
ATOM      2  C   UNL     1     -21.964  -1.509   5.825  0.00  0.00    +0.000 C 
ATOM      3  C   UNL     1     -20.683  -2.122   5.155  0.00  0.00    +0.000 C 
ATOM      4  C   UNL     1     -20.676  -0.768   5.751  0.00  0.00    +0.000 C 
ATOM      5  C   UNL     1     -20.916  -3.569   5.475  0.00  0.00    +0.000 C 
ATOM      6  C   UNL     1     -22.997  -2.249   5.039  0.00  0.00    +0.000 C 
ATOM      7  C   UNL     1     -22.405  -3.664   5.080  0.00  0.00    +0.000 C 
ATOM      8  H   UNL     1     -20.548  -2.042   4.072  0.00  0.00    +0.000 HD
ATOM      9  H   UNL     1     -20.666   0.081   5.066  0.00  0.00    +0.000 HD
ATOM     10  H   UNL     1     -19.837  -0.657   6.423  0.00  0.00    +0.000 HD
ATOM     11  H   UNL     1     -20.786  -3.789   6.539  0.00  0.00    +0.000 HD
ATOM     12  H   UNL     1     -23.024  -1.906   3.998  0.00  0.00    +0.000 HD
ATOM     13  H   UNL     1     -24.017  -2.266   5.418  0.00  0.00    +0.000 HD
ENDROOT
BRANCH   5  14
ATOM     14  C   UNL     1     -20.054  -4.505   4.652  0.00  0.00    +0.000 C 
ATOM     15  H   UNL     1     -19.944  -5.472   5.154  0.00  0.00    +0.000 HD
ATOM     16  H   UNL     1     -20.490  -4.698   3.666  0.00  0.00    +0.000 HD
ATOM     17  H   UNL     1     -19.056  -4.080   4.500  0.00  0.00    +0.000 HD
ENDBRANCH   5  14
BRANCH   2  18
ATOM     18  C   UNL     1     -22.293  -1.651   7.299  0.00  0.00    +0.000 C 
ATOM     19  H   UNL     1     -22.046  -2.651   7.675  0.00  0.00    +0.000 HD
BRANCH  18  20
ATOM     20  C   UNL     1     -21.490  -0.654   8.137  0.00  0.00    +0.000 C 
ATOM     21  H   UNL     1     -22.076  -0.147   8.912  0.00  0.00    +0.000 HD
ATOM     22  H   UNL     1     -20.716  -1.206   8.689  0.00  0.00    +0.000 HD
ATOM     23  H   UNL     1     -20.915   0.053   7.527  0.00  0.00    +0.000 HD
ENDBRANCH  18  20
BRANCH  18  24
ATOM     24  C   UNL     1     -23.792  -1.461   7.544  0.00  0.00    +0.000 C 
ATOM     25  H   UNL     1     -24.159  -2.129   8.332  0.00  0.00    +0.000 HD
ATOM     26  H   UNL     1     -24.366  -1.676   6.635  0.00  0.00    +0.000 HD
ATOM     27  H   UNL     1     -24.048  -0.433   7.815  0.00  0.00    +0.000 HD
ENDBRANCH  18  24
ENDBRANCH   2  18
TORSDOF 4
ENDMDL
MODEL 6
REMARK VINA RESULT:    -4.413     17.391     18.589
REMARK INTER + INTRA:          -5.203
REMARK INTER:                  -5.070
REMARK INTRA:                  -0.134
REMARK UNBOUND:                -0.146
REMARK  Name = 249286
REMARK  4 active torsions:
REMARK  status: ('A' for Active; 'I' for Inactive)
REMARK    1  A    between atoms: C_2  and  C_7
REMARK    2  A    between atoms: C_5  and  C_9
REMARK    3  A    between atoms: C_7  and  C_10
REMARK    4  A    between atoms: C_7  and  C_11
REMARK                            x       y       z     vdW  Elec       q    Type
REMARK                         _______ _______ _______ _____ _____    ______ ____
ROOT
ATOM      1  O   UNL     1      -8.638  10.887   7.205  0.00  0.00    +0.000 OA
ATOM      2  C   UNL     1      -7.212  13.286   5.100  0.00  0.00    +0.000 C 
ATOM      3  C   UNL     1      -6.409  13.455   6.439  0.00  0.00    +0.000 C 
ATOM      4  C   UNL     1      -6.144  14.309   5.262  0.00  0.00    +0.000 C 
ATOM      5  C   UNL     1      -7.482  13.056   7.410  0.00  0.00    +0.000 C 
ATOM      6  C   UNL     1      -7.544  11.834   5.227  0.00  0.00    +0.000 C 
ATOM      7  C   UNL     1      -7.992  11.789   6.694  0.00  0.00    +0.000 C 
ATOM      8  H   UNL     1      -5.538  12.823   6.632  0.00  0.00    +0.000 HD
ATOM      9  H   UNL     1      -5.228  14.119   4.701  0.00  0.00    +0.000 HD
ATOM     10  H   UNL     1      -6.145  15.353   5.545  0.00  0.00    +0.000 HD
ATOM     11  H   UNL     1      -8.278  13.803   7.486  0.00  0.00    +0.000 HD
ATOM     12  H   UNL     1      -6.651  11.210   5.110  0.00  0.00    +0.000 HD
ATOM     13  H   UNL     1      -8.328  11.430   4.591  0.00  0.00    +0.000 HD
ENDROOT
BRANCH   5  14
ATOM     14  C   UNL     1      -6.943  12.744   8.793  0.00  0.00    +0.000 C 
ATOM     15  H   UNL     1      -5.999  13.272   8.969  0.00  0.00    +0.000 HD
ATOM     16  H   UNL     1      -7.640  13.053   9.580  0.00  0.00    +0.000 HD
ATOM     17  H   UNL     1      -6.764  11.670   8.906  0.00  0.00    +0.000 HD
ENDBRANCH   5  14
BRANCH   2  18
ATOM     18  C   UNL     1      -8.487  14.042   4.780  0.00  0.00    +0.000 C 
ATOM     19  H   UNL     1      -9.069  14.257   5.685  0.00  0.00    +0.000 HD
BRANCH  18  20
ATOM     20  C   UNL     1      -8.174  15.390   4.127  0.00  0.00    +0.000 C 
ATOM     21  H   UNL     1      -7.130  15.707   4.235  0.00  0.00    +0.000 HD
ATOM     22  H   UNL     1      -8.326  15.296   3.043  0.00  0.00    +0.000 HD
ATOM     23  H   UNL     1      -8.877  16.180   4.418  0.00  0.00    +0.000 HD
ENDBRANCH  18  20
BRANCH  18  24
ATOM     24  C   UNL     1      -9.400  13.214   3.873  0.00  0.00    +0.000 C 
ATOM     25  H   UNL     1     -10.125  12.633   4.453  0.00  0.00    +0.000 HD
ATOM     26  H   UNL     1      -8.815  12.508   3.271  0.00  0.00    +0.000 HD
ATOM     27  H   UNL     1      -9.946  13.828   3.152  0.00  0.00    +0.000 HD
ENDBRANCH  18  24
ENDBRANCH   2  18
TORSDOF 4
ENDMDL
MODEL 7
REMARK VINA RESULT:    -4.320     17.105     19.101
REMARK INTER + INTRA:          -5.098
REMARK INTER:                  -4.959
REMARK INTRA:                  -0.138
REMARK UNBOUND:                -0.146
REMARK  Name = 249286
REMARK  4 active torsions:
REMARK  status: ('A' for Active; 'I' for Inactive)
REMARK    1  A    between atoms: C_2  and  C_7
REMARK    2  A    between atoms: C_5  and  C_9
REMARK    3  A    between atoms: C_7  and  C_10
REMARK    4  A    between atoms: C_7  and  C_11
REMARK                            x       y       z     vdW  Elec       q    Type
REMARK                         _______ _______ _______ _____ _____    ______ ____
ROOT
ATOM      1  O   UNL     1     -10.964  10.870   6.336  0.00  0.00    +0.000 OA
ATOM      2  C   UNL     1      -7.723  12.107   6.764  0.00  0.00    +0.000 C 
ATOM      3  C   UNL     1      -8.567  12.933   7.799  0.00  0.00    +0.000 C 
ATOM      4  C   UNL     1      -7.116  13.158   7.624  0.00  0.00    +0.000 C 
ATOM      5  C   UNL     1      -9.878  12.959   7.070  0.00  0.00    +0.000 C 
ATOM      6  C   UNL     1      -8.549  10.862   6.754  0.00  0.00    +0.000 C 
ATOM      7  C   UNL     1      -9.955  11.472   6.665  0.00  0.00    +0.000 C 
ATOM      8  H   UNL     1      -8.752  12.524   8.796  0.00  0.00    +0.000 HD
ATOM      9  H   UNL     1      -6.453  12.793   8.409  0.00  0.00    +0.000 HD
ATOM     10  H   UNL     1      -6.911  14.211   7.486  0.00  0.00    +0.000 HD
ATOM     11  H   UNL     1      -9.852  13.599   6.183  0.00  0.00    +0.000 HD
ATOM     12  H   UNL     1      -8.459  10.317   7.700  0.00  0.00    +0.000 HD
ATOM     13  H   UNL     1      -8.403  10.156   5.940  0.00  0.00    +0.000 HD
ENDROOT
BRANCH   5  14
ATOM     14  C   UNL     1     -11.041  13.363   7.956  0.00  0.00    +0.000 C 
ATOM     15  H   UNL     1     -11.308  12.549   8.639  0.00  0.00    +0.000 HD
ATOM     16  H   UNL     1     -10.800  14.237   8.569  0.00  0.00    +0.000 HD
ATOM     17  H   UNL     1     -11.921  13.608   7.352  0.00  0.00    +0.000 HD
ENDBRANCH   5  14
BRANCH   2  18
ATOM     18  C   UNL     1      -7.492  12.539   5.329  0.00  0.00    +0.000 C 
ATOM     19  H   UNL     1      -8.353  13.087   4.927  0.00  0.00    +0.000 HD
BRANCH  18  20
ATOM     20  C   UNL     1      -6.288  13.478   5.227  0.00  0.00    +0.000 C 
ATOM     21  H   UNL     1      -5.372  13.080   5.681  0.00  0.00    +0.000 HD
ATOM     22  H   UNL     1      -6.037  13.611   4.165  0.00  0.00    +0.000 HD
ATOM     23  H   UNL     1      -6.508  14.496   5.569  0.00  0.00    +0.000 HD
ENDBRANCH  18  20
BRANCH  18  24
ATOM     24  C   UNL     1      -7.296  11.325   4.418  0.00  0.00    +0.000 C 
ATOM     25  H   UNL     1      -8.126  10.616   4.507  0.00  0.00    +0.000 HD
ATOM     26  H   UNL     1      -6.374  10.790   4.675  0.00  0.00    +0.000 HD
ATOM     27  H   UNL     1      -7.189  11.602   3.365  0.00  0.00    +0.000 HD
ENDBRANCH  18  24
ENDBRANCH   2  18
TORSDOF 4
ENDMDL
MODEL 8
REMARK VINA RESULT:    -4.244     10.664     11.798
REMARK INTER + INTRA:          -5.010
REMARK INTER:                  -4.864
REMARK INTRA:                  -0.146
REMARK UNBOUND:                -0.146
REMARK  Name = 249286
REMARK  4 active torsions:
REMARK  status: ('A' for Active; 'I' for Inactive)
REMARK    1  A    between atoms: C_2  and  C_7
REMARK    2  A    between atoms: C_5  and  C_9
REMARK    3  A    between atoms: C_7  and  C_10
REMARK    4  A    between atoms: C_7  and  C_11
REMARK                            x       y       z     vdW  Elec       q    Type
REMARK                         _______ _______ _______ _____ _____    ______ ____
ROOT
ATOM      1  O   UNL     1       4.362  -3.931 -14.538  0.00  0.00    +0.000 OA
ATOM      2  C   UNL     1       3.193  -0.773 -13.602  0.00  0.00    +0.000 C 
ATOM      3  C   UNL     1       1.998  -1.725 -13.239  0.00  0.00    +0.000 C 
ATOM      4  C   UNL     1       1.919  -0.263 -13.028  0.00  0.00    +0.000 C 
ATOM      5  C   UNL     1       2.199  -2.772 -14.296  0.00  0.00    +0.000 C 
ATOM      6  C   UNL     1       4.310  -1.750 -13.424  0.00  0.00    +0.000 C 
ATOM      7  C   UNL     1       3.722  -2.967 -14.151  0.00  0.00    +0.000 C 
ATOM      8  H   UNL     1       1.984  -2.233 -12.271  0.00  0.00    +0.000 HD
ATOM      9  H   UNL     1       1.982   0.099 -12.001  0.00  0.00    +0.000 HD
ATOM     10  H   UNL     1       1.009   0.132 -13.459  0.00  0.00    +0.000 HD
ATOM     11  H   UNL     1       1.951  -2.409 -15.298  0.00  0.00    +0.000 HD
ATOM     12  H   UNL     1       4.453  -2.003 -12.367  0.00  0.00    +0.000 HD
ATOM     13  H   UNL     1       5.281  -1.502 -13.848  0.00  0.00    +0.000 HD
ENDROOT
BRANCH   5  14
ATOM     14  C   UNL     1       1.437  -4.052 -14.014  0.00  0.00    +0.000 C 
ATOM     15  H   UNL     1       1.989  -4.684 -13.310  0.00  0.00    +0.000 HD
ATOM     16  H   UNL     1       0.455  -3.852 -13.572  0.00  0.00    +0.000 HD
ATOM     17  H   UNL     1       1.280  -4.621 -14.937  0.00  0.00    +0.000 HD
ENDBRANCH   5  14
BRANCH   2  18
ATOM     18  C   UNL     1       3.356  -0.101 -14.952  0.00  0.00    +0.000 C 
ATOM     19  H   UNL     1       3.034  -0.754 -15.771  0.00  0.00    +0.000 HD
BRANCH  18  20
ATOM     20  C   UNL     1       2.503   1.166 -15.037  0.00  0.00    +0.000 C 
ATOM     21  H   UNL     1       2.433   1.591 -16.046  0.00  0.00    +0.000 HD
ATOM     22  H   UNL     1       1.468   0.909 -14.771  0.00  0.00    +0.000 HD
ATOM     23  H   UNL     1       2.780   1.920 -14.292  0.00  0.00    +0.000 HD
ENDBRANCH  18  20
BRANCH  18  24
ATOM     24  C   UNL     1       4.825   0.231 -15.223  0.00  0.00    +0.000 C 
ATOM     25  H   UNL     1       4.994   1.313 -15.255  0.00  0.00    +0.000 HD
ATOM     26  H   UNL     1       5.147  -0.184 -16.185  0.00  0.00    +0.000 HD
ATOM     27  H   UNL     1       5.499  -0.202 -14.478  0.00  0.00    +0.000 HD
ENDBRANCH  18  24
ENDBRANCH   2  18
TORSDOF 4
ENDMDL
MODEL 9
REMARK VINA RESULT:    -4.223     26.940     28.101
REMARK INTER + INTRA:          -4.986
REMARK INTER:                  -4.841
REMARK INTRA:                  -0.145
REMARK UNBOUND:                -0.146
REMARK  Name = 249286
REMARK  4 active torsions:
REMARK  status: ('A' for Active; 'I' for Inactive)
REMARK    1  A    between atoms: C_2  and  C_7
REMARK    2  A    between atoms: C_5  and  C_9
REMARK    3  A    between atoms: C_7  and  C_10
REMARK    4  A    between atoms: C_7  and  C_11
REMARK                            x       y       z     vdW  Elec       q    Type
REMARK                         _______ _______ _______ _____ _____    ______ ____
ROOT
ATOM      1  O   UNL     1      13.091  -5.951  10.189  0.00  0.00    +0.000 OA
ATOM      2  C   UNL     1      13.571  -4.047   7.297  0.00  0.00    +0.000 C 
ATOM      3  C   UNL     1      12.096  -4.565   7.150  0.00  0.00    +0.000 C 
ATOM      4  C   UNL     1      12.731  -3.725   6.112  0.00  0.00    +0.000 C 
ATOM      5  C   UNL     1      12.229  -5.870   7.880  0.00  0.00    +0.000 C 
ATOM      6  C   UNL     1      13.643  -4.017   8.790  0.00  0.00    +0.000 C 
ATOM      7  C   UNL     1      13.004  -5.373   9.117  0.00  0.00    +0.000 C 
ATOM      8  H   UNL     1      11.277  -4.009   7.616  0.00  0.00    +0.000 HD
ATOM      9  H   UNL     1      12.406  -2.686   6.039  0.00  0.00    +0.000 HD
ATOM     10  H   UNL     1      12.610  -4.175   5.136  0.00  0.00    +0.000 HD
ATOM     11  H   UNL     1      12.821  -6.603   7.324  0.00  0.00    +0.000 HD
ATOM     12  H   UNL     1      13.014  -3.219   9.202  0.00  0.00    +0.000 HD
ATOM     13  H   UNL     1      14.625  -3.951   9.255  0.00  0.00    +0.000 HD
ENDROOT
BRANCH   5  14
ATOM     14  C   UNL     1      10.892  -6.477   8.258  0.00  0.00    +0.000 C 
ATOM     15  H   UNL     1      10.127  -6.222   7.516  0.00  0.00    +0.000 HD
ATOM     16  H   UNL     1      10.943  -7.570   8.312  0.00  0.00    +0.000 HD
ATOM     17  H   UNL     1      10.561  -6.107   9.235  0.00  0.00    +0.000 HD
ENDBRANCH   5  14
BRANCH   2  18
ATOM     18  C   UNL     1      14.783  -4.794   6.775  0.00  0.00    +0.000 C 
ATOM     19  H   UNL     1      14.660  -5.880   6.865  0.00  0.00    +0.000 HD
BRANCH  18  20
ATOM     20  C   UNL     1      15.010  -4.499   5.291  0.00  0.00    +0.000 C 
ATOM     21  H   UNL     1      16.066  -4.415   5.008  0.00  0.00    +0.000 HD
ATOM     22  H   UNL     1      14.630  -5.347   4.704  0.00  0.00    +0.000 HD
ATOM     23  H   UNL     1      14.418  -3.650   4.928  0.00  0.00    +0.000 HD
ENDBRANCH  18  20
BRANCH  18  24
ATOM     24  C   UNL     1      16.034  -4.438   7.583  0.00  0.00    +0.000 C 
ATOM     25  H   UNL     1      15.793  -3.793   8.435  0.00  0.00    +0.000 HD
ATOM     26  H   UNL     1      16.761  -3.905   6.959  0.00  0.00    +0.000 HD
ATOM     27  H   UNL     1      16.560  -5.322   7.955  0.00  0.00    +0.000 HD
ENDBRANCH  18  24
ENDBRANCH   2  18
TORSDOF 4
ENDMDL
MODEL 10
REMARK VINA RESULT:    -4.174     26.646     27.815
REMARK INTER + INTRA:          -4.930
REMARK INTER:                  -4.838
REMARK INTRA:                  -0.092
REMARK UNBOUND:                -0.146
REMARK  Name = 249286
REMARK  4 active torsions:
REMARK  status: ('A' for Active; 'I' for Inactive)
REMARK    1  A    between atoms: C_2  and  C_7
REMARK    2  A    between atoms: C_5  and  C_9
REMARK    3  A    between atoms: C_7  and  C_10
REMARK    4  A    between atoms: C_7  and  C_11
REMARK                            x       y       z     vdW  Elec       q    Type
REMARK                         _______ _______ _______ _____ _____    ______ ____
ROOT
ATOM      1  O   UNL     1      15.215  -6.529   7.001  0.00  0.00    +0.000 OA
ATOM      2  C   UNL     1      12.675  -4.172   7.461  0.00  0.00    +0.000 C 
ATOM      3  C   UNL     1      13.430  -3.649   6.186  0.00  0.00    +0.000 C 
ATOM      4  C   UNL     1      12.277  -2.921   6.760  0.00  0.00    +0.000 C 
ATOM      5  C   UNL     1      14.809  -4.147   6.506  0.00  0.00    +0.000 C 
ATOM      6  C   UNL     1      12.954  -5.630   7.296  0.00  0.00    +0.000 C 
ATOM      7  C   UNL     1      14.448  -5.581   6.946  0.00  0.00    +0.000 C 
ATOM      8  H   UNL     1      13.160  -4.036   5.200  0.00  0.00    +0.000 HD
ATOM      9  H   UNL     1      11.332  -2.971   6.217  0.00  0.00    +0.000 HD
ATOM     10  H   UNL     1      12.521  -1.877   6.897  0.00  0.00    +0.000 HD
ATOM     11  H   UNL     1      15.273  -3.597   7.330  0.00  0.00    +0.000 HD
ATOM     12  H   UNL     1      12.405  -6.046   6.443  0.00  0.00    +0.000 HD
ATOM     13  H   UNL     1      12.798  -6.283   8.152  0.00  0.00    +0.000 HD
ENDROOT
BRANCH   5  14
ATOM     14  C   UNL     1      15.734  -4.142   5.304  0.00  0.00    +0.000 C 
ATOM     15  H   UNL     1      15.470  -4.947   4.610  0.00  0.00    +0.000 HD
ATOM     16  H   UNL     1      15.674  -3.200   4.750  0.00  0.00    +0.000 HD
ATOM     17  H   UNL     1      16.775  -4.283   5.616  0.00  0.00    +0.000 HD
ENDBRANCH   5  14
BRANCH   2  18
ATOM     18  C   UNL     1      13.039  -3.773   8.878  0.00  0.00    +0.000 C 
ATOM     19  H   UNL     1      14.086  -3.457   8.955  0.00  0.00    +0.000 HD
BRANCH  18  20
ATOM     20  C   UNL     1      12.187  -2.592   9.349  0.00  0.00    +0.000 C 
ATOM     21  H   UNL     1      12.095  -2.514  10.439  0.00  0.00    +0.000 HD
ATOM     22  H   UNL     1      12.682  -1.660   9.043  0.00  0.00    +0.000 HD
ATOM     23  H   UNL     1      11.212  -2.542   8.850  0.00  0.00    +0.000 HD
ENDBRANCH  18  20
BRANCH  18  24
ATOM     24  C   UNL     1      12.880  -4.956   9.836  0.00  0.00    +0.000 C 
ATOM     25  H   UNL     1      12.241  -4.700  10.689  0.00  0.00    +0.000 HD
ATOM     26  H   UNL     1      13.852  -5.270  10.233  0.00  0.00    +0.000 HD
ATOM     27  H   UNL     1      12.465  -5.841   9.346  0.00  0.00    +0.000 HD
ENDBRANCH  18  24
ENDBRANCH   2  18
TORSDOF 4
ENDMDL
