MODEL 1
REMARK VINA RESULT:    -5.602      0.000      0.000
REMARK INTER + INTRA:          -7.011
REMARK INTER:                  -6.895
REMARK INTRA:                  -0.116
REMARK UNBOUND:                -0.100
REMARK  Name = 638014
REMARK  6 active torsions:
REMARK  status: ('A' for Active; 'I' for Inactive)
REMARK    1  A    between atoms: C_2  and  C_8
REMARK    2  A    between atoms: C_2  and  C_9
REMARK    3  A    between atoms: C_5  and  C_10
REMARK    4  A    between atoms: C_7  and  C_11
REMARK    5  A    between atoms: C_12  and  C_13
REMARK    6  A    between atoms: C_13  and  C_14
REMARK                            x       y       z     vdW  Elec       q    Type
REMARK                         _______ _______ _______ _____ _____    ______ ____
ROOT
ATOM      1  C   UNL     1      -8.024  12.291   5.129  0.00  0.00    +0.000 C 
ATOM      2  C   UNL     1      -7.451  13.693   4.780  0.00  0.00    +0.000 C 
ATOM      3  C   UNL     1      -6.117  13.953   5.456  0.00  0.00    +0.000 C 
ATOM      4  C   UNL     1      -7.890  11.982   6.638  0.00  0.00    +0.000 C 
ATOM      5  C   UNL     1      -6.277  13.888   6.967  0.00  0.00    +0.000 C 
ATOM      6  C   UNL     1      -7.116  12.729   7.465  0.00  0.00    +0.000 C 
ATOM      7  H   UNL     1      -8.158  14.475   5.092  0.00  0.00    +0.000 HD
ATOM      8  H   UNL     1      -7.336  13.800   3.694  0.00  0.00    +0.000 HD
ATOM      9  H   UNL     1      -5.737  14.939   5.169  0.00  0.00    +0.000 HD
ATOM     10  H   UNL     1      -5.369  13.223   5.125  0.00  0.00    +0.000 HD
ATOM     11  H   UNL     1      -6.736  14.820   7.320  0.00  0.00    +0.000 HD
ATOM     12  H   UNL     1      -5.275  13.838   7.413  0.00  0.00    +0.000 HD
ENDROOT
BRANCH   1  13
ATOM     13  C   UNL     1      -7.265  11.220   4.312  0.00  0.00    +0.000 C 
ATOM     14  H   UNL     1      -7.403  11.356   3.234  0.00  0.00    +0.000 HD
ATOM     15  H   UNL     1      -6.187  11.256   4.509  0.00  0.00    +0.000 HD
ATOM     16  H   UNL     1      -7.606  10.211   4.569  0.00  0.00    +0.000 HD
ENDBRANCH   1  13
BRANCH   1  17
ATOM     17  C   UNL     1      -9.501  12.308   4.667  0.00  0.00    +0.000 C 
ATOM     18  H   UNL     1      -9.741  11.402   4.094  0.00  0.00    +0.000 HD
ATOM     19  H   UNL     1     -10.201  12.334   5.509  0.00  0.00    +0.000 HD
ATOM     20  H   UNL     1      -9.709  13.171   4.024  0.00  0.00    +0.000 HD
ENDBRANCH   1  17
BRANCH   4  21
ATOM     21  C   UNL     1      -8.628  10.821   7.111  0.00  0.00    +0.000 C 
ATOM     22  C   UNL     1      -9.829  10.921   7.671  0.00  0.00    +0.000 C 
ATOM     23  H   UNL     1      -8.175   9.848   6.957  0.00  0.00    +0.000 HD
ATOM     24  H   UNL     1     -10.317  11.865   7.881  0.00  0.00    +0.000 HD
BRANCH  22  26
ATOM     25  O   UNL     1     -11.184   8.984   7.369  0.00  0.00    +0.000 OA
ATOM     26  C   UNL     1     -10.534   9.693   8.134  0.00  0.00    +0.000 C 
BRANCH  26  27
ATOM     27  C   UNL     1     -10.430   9.362   9.600  0.00  0.00    +0.000 C 
ATOM     28  H   UNL     1     -10.103   8.324   9.710  0.00  0.00    +0.000 HD
ATOM     29  H   UNL     1      -9.698   9.999  10.103  0.00  0.00    +0.000 HD
ATOM     30  H   UNL     1     -11.407   9.498  10.070  0.00  0.00    +0.000 HD
ENDBRANCH  26  27
ENDBRANCH  22  26
ENDBRANCH   4  21
BRANCH   6  31
ATOM     31  C   UNL     1      -6.969  12.531   8.957  0.00  0.00    +0.000 C 
ATOM     32  H   UNL     1      -6.238  11.747   9.173  0.00  0.00    +0.000 HD
ATOM     33  H   UNL     1      -7.913  12.314   9.464  0.00  0.00    +0.000 HD
ATOM     34  H   UNL     1      -6.607  13.457   9.420  0.00  0.00    +0.000 HD
ENDBRANCH   6  31
TORSDOF 6
ENDMDL
MODEL 2
REMARK VINA RESULT:    -5.399      1.210      2.912
REMARK INTER + INTRA:          -6.762
REMARK INTER:                  -6.579
REMARK INTRA:                  -0.182
REMARK UNBOUND:                -0.100
REMARK  Name = 638014
REMARK  6 active torsions:
REMARK  status: ('A' for Active; 'I' for Inactive)
REMARK    1  A    between atoms: C_2  and  C_8
REMARK    2  A    between atoms: C_2  and  C_9
REMARK    3  A    between atoms: C_5  and  C_10
REMARK    4  A    between atoms: C_7  and  C_11
REMARK    5  A    between atoms: C_12  and  C_13
REMARK    6  A    between atoms: C_13  and  C_14
REMARK                            x       y       z     vdW  Elec       q    Type
REMARK                         _______ _______ _______ _____ _____    ______ ____
ROOT
ATOM      1  C   UNL     1      -7.480  12.935   7.882  0.00  0.00    +0.000 C 
ATOM      2  C   UNL     1      -6.189  13.736   7.557  0.00  0.00    +0.000 C 
ATOM      3  C   UNL     1      -6.218  14.331   6.162  0.00  0.00    +0.000 C 
ATOM      4  C   UNL     1      -7.897  12.026   6.702  0.00  0.00    +0.000 C 
ATOM      5  C   UNL     1      -6.340  13.225   5.126  0.00  0.00    +0.000 C 
ATOM      6  C   UNL     1      -7.353  12.151   5.464  0.00  0.00    +0.000 C 
ATOM      7  H   UNL     1      -5.311  13.080   7.639  0.00  0.00    +0.000 HD
ATOM      8  H   UNL     1      -6.041  14.538   8.292  0.00  0.00    +0.000 HD
ATOM      9  H   UNL     1      -5.302  14.905   5.980  0.00  0.00    +0.000 HD
ATOM     10  H   UNL     1      -7.051  15.037   6.061  0.00  0.00    +0.000 HD
ATOM     11  H   UNL     1      -5.362  12.744   4.995  0.00  0.00    +0.000 HD
ATOM     12  H   UNL     1      -6.598  13.687   4.164  0.00  0.00    +0.000 HD
ENDROOT
BRANCH   1  13
ATOM     13  C   UNL     1      -8.622  13.928   8.198  0.00  0.00    +0.000 C 
ATOM     14  H   UNL     1      -9.608  13.497   7.991  0.00  0.00    +0.000 HD
ATOM     15  H   UNL     1      -8.613  14.226   9.253  0.00  0.00    +0.000 HD
ATOM     16  H   UNL     1      -8.526  14.844   7.604  0.00  0.00    +0.000 HD
ENDBRANCH   1  13
BRANCH   1  17
ATOM     17  C   UNL     1      -7.167  12.121   9.161  0.00  0.00    +0.000 C 
ATOM     18  H   UNL     1      -6.596  11.215   8.918  0.00  0.00    +0.000 HD
ATOM     19  H   UNL     1      -6.560  12.687   9.876  0.00  0.00    +0.000 HD
ATOM     20  H   UNL     1      -8.087  11.806   9.669  0.00  0.00    +0.000 HD
ENDBRANCH   1  17
BRANCH   4  21
ATOM     21  C   UNL     1      -8.929  11.045   6.997  0.00  0.00    +0.000 C 
ATOM     22  C   UNL     1     -10.189  11.197   6.601  0.00  0.00    +0.000 C 
ATOM     23  H   UNL     1      -8.627  10.151   7.530  0.00  0.00    +0.000 HD
ATOM     24  H   UNL     1     -10.557  12.081   6.096  0.00  0.00    +0.000 HD
BRANCH  22  26
ATOM     25  O   UNL     1     -10.881   9.049   7.366  0.00  0.00    +0.000 OA
ATOM     26  C   UNL     1     -11.200  10.155   6.934  0.00  0.00    +0.000 C 
BRANCH  26  27
ATOM     27  C   UNL     1     -12.645  10.511   6.703  0.00  0.00    +0.000 C 
ATOM     28  H   UNL     1     -12.963  10.106   5.738  0.00  0.00    +0.000 HD
ATOM     29  H   UNL     1     -13.291  10.085   7.474  0.00  0.00    +0.000 HD
ATOM     30  H   UNL     1     -12.753  11.599   6.705  0.00  0.00    +0.000 HD
ENDBRANCH  26  27
ENDBRANCH  22  26
ENDBRANCH   4  21
BRANCH   6  31
ATOM     31  C   UNL     1      -7.662  11.275   4.272  0.00  0.00    +0.000 C 
ATOM     32  H   UNL     1      -6.923  10.475   4.177  0.00  0.00    +0.000 HD
ATOM     33  H   UNL     1      -7.741  11.828   3.332  0.00  0.00    +0.000 HD
ATOM     34  H   UNL     1      -8.644  10.803   4.403  0.00  0.00    +0.000 HD
ENDBRANCH   6  31
TORSDOF 6
ENDMDL
MODEL 3
REMARK VINA RESULT:    -5.393     25.514     26.324
REMARK INTER + INTRA:          -6.753
REMARK INTER:                  -6.517
REMARK INTRA:                  -0.236
REMARK UNBOUND:                -0.100
REMARK  Name = 638014
REMARK  6 active torsions:
REMARK  status: ('A' for Active; 'I' for Inactive)
REMARK    1  A    between atoms: C_2  and  C_8
REMARK    2  A    between atoms: C_2  and  C_9
REMARK    3  A    between atoms: C_5  and  C_10
REMARK    4  A    between atoms: C_7  and  C_11
REMARK    5  A    between atoms: C_12  and  C_13
REMARK    6  A    between atoms: C_13  and  C_14
REMARK                            x       y       z     vdW  Elec       q    Type
REMARK                         _______ _______ _______ _____ _____    ______ ____
ROOT
ATOM      1  C   UNL     1      12.992  -3.591   7.216  0.00  0.00    +0.000 C 
ATOM      2  C   UNL     1      14.278  -3.810   6.373  0.00  0.00    +0.000 C 
ATOM      3  C   UNL     1      15.229  -4.800   7.021  0.00  0.00    +0.000 C 
ATOM      4  C   UNL     1      13.318  -3.424   8.718  0.00  0.00    +0.000 C 
ATOM      5  C   UNL     1      15.660  -4.290   8.387  0.00  0.00    +0.000 C 
ATOM      6  C   UNL     1      14.540  -3.719   9.231  0.00  0.00    +0.000 C 
ATOM      7  H   UNL     1      14.806  -2.855   6.240  0.00  0.00    +0.000 HD
ATOM      8  H   UNL     1      14.021  -4.159   5.364  0.00  0.00    +0.000 HD
ATOM      9  H   UNL     1      16.111  -4.943   6.386  0.00  0.00    +0.000 HD
ATOM     10  H   UNL     1      14.754  -5.784   7.118  0.00  0.00    +0.000 HD
ATOM     11  H   UNL     1      16.422  -3.511   8.256  0.00  0.00    +0.000 HD
ATOM     12  H   UNL     1      16.141  -5.119   8.922  0.00  0.00    +0.000 HD
ENDROOT
BRANCH   1  13
ATOM     13  C   UNL     1      12.052  -4.805   7.023  0.00  0.00    +0.000 C 
ATOM     14  H   UNL     1      12.606  -5.750   7.001  0.00  0.00    +0.000 HD
ATOM     15  H   UNL     1      11.319  -4.877   7.836  0.00  0.00    +0.000 HD
ATOM     16  H   UNL     1      11.489  -4.724   6.087  0.00  0.00    +0.000 HD
ENDBRANCH   1  13
BRANCH   1  17
ATOM     17  C   UNL     1      12.303  -2.337   6.627  0.00  0.00    +0.000 C 
ATOM     18  H   UNL     1      11.362  -2.605   6.129  0.00  0.00    +0.000 HD
ATOM     19  H   UNL     1      12.046  -1.602   7.397  0.00  0.00    +0.000 HD
ATOM     20  H   UNL     1      12.941  -1.843   5.884  0.00  0.00    +0.000 HD
ENDBRANCH   1  17
BRANCH   4  21
ATOM     21  C   UNL     1      12.223  -2.954   9.552  0.00  0.00    +0.000 C 
ATOM     22  C   UNL     1      11.444  -3.783  10.237  0.00  0.00    +0.000 C 
ATOM     23  H   UNL     1      12.082  -1.881   9.628  0.00  0.00    +0.000 HD
ATOM     24  H   UNL     1      11.514  -4.863  10.175  0.00  0.00    +0.000 HD
BRANCH  22  26
ATOM     25  O   UNL     1       9.157  -3.357  10.755  0.00  0.00    +0.000 OA
ATOM     26  C   UNL     1      10.338  -3.239  11.074  0.00  0.00    +0.000 C 
BRANCH  26  27
ATOM     27  C   UNL     1      10.733  -2.515  12.334  0.00  0.00    +0.000 C 
ATOM     28  H   UNL     1      10.382  -1.481  12.277  0.00  0.00    +0.000 HD
ATOM     29  H   UNL     1      10.281  -2.974  13.217  0.00  0.00    +0.000 HD
ATOM     30  H   UNL     1      11.820  -2.535  12.436  0.00  0.00    +0.000 HD
ENDBRANCH  26  27
ENDBRANCH  22  26
ENDBRANCH   4  21
BRANCH   6  31
ATOM     31  C   UNL     1      14.960  -3.537  10.672  0.00  0.00    +0.000 C 
ATOM     32  H   UNL     1      15.024  -4.502  11.182  0.00  0.00    +0.000 HD
ATOM     33  H   UNL     1      14.314  -2.857  11.234  0.00  0.00    +0.000 HD
ATOM     34  H   UNL     1      15.955  -3.076  10.712  0.00  0.00    +0.000 HD
ENDBRANCH   6  31
TORSDOF 6
ENDMDL
MODEL 4
REMARK VINA RESULT:    -5.234     17.459     19.742
REMARK INTER + INTRA:          -6.558
REMARK INTER:                  -6.305
REMARK INTRA:                  -0.253
REMARK UNBOUND:                -0.100
REMARK  Name = 638014
REMARK  6 active torsions:
REMARK  status: ('A' for Active; 'I' for Inactive)
REMARK    1  A    between atoms: C_2  and  C_8
REMARK    2  A    between atoms: C_2  and  C_9
REMARK    3  A    between atoms: C_5  and  C_10
REMARK    4  A    between atoms: C_7  and  C_11
REMARK    5  A    between atoms: C_12  and  C_13
REMARK    6  A    between atoms: C_13  and  C_14
REMARK                            x       y       z     vdW  Elec       q    Type
REMARK                         _______ _______ _______ _____ _____    ______ ____
ROOT
ATOM      1  C   UNL     1      -5.001   6.987 -12.582  0.00  0.00    +0.000 C 
ATOM      2  C   UNL     1      -6.243   6.076 -12.379  0.00  0.00    +0.000 C 
ATOM      3  C   UNL     1      -6.936   6.336 -11.054  0.00  0.00    +0.000 C 
ATOM      4  C   UNL     1      -4.137   7.065 -11.302  0.00  0.00    +0.000 C 
ATOM      5  C   UNL     1      -5.979   6.066  -9.904  0.00  0.00    +0.000 C 
ATOM      6  C   UNL     1      -4.583   6.620 -10.099  0.00  0.00    +0.000 C 
ATOM      7  H   UNL     1      -5.941   5.019 -12.413  0.00  0.00    +0.000 HD
ATOM      8  H   UNL     1      -6.959   6.216 -13.199  0.00  0.00    +0.000 HD
ATOM      9  H   UNL     1      -7.816   5.690 -10.959  0.00  0.00    +0.000 HD
ATOM     10  H   UNL     1      -7.301   7.369 -11.007  0.00  0.00    +0.000 HD
ATOM     11  H   UNL     1      -5.899   4.983  -9.748  0.00  0.00    +0.000 HD
ATOM     12  H   UNL     1      -6.419   6.487  -8.990  0.00  0.00    +0.000 HD
ENDROOT
BRANCH   1  13
ATOM     13  C   UNL     1      -5.477   8.406 -12.972  0.00  0.00    +0.000 C 
ATOM     14  H   UNL     1      -5.165   9.157 -12.238  0.00  0.00    +0.000 HD
ATOM     15  H   UNL     1      -5.070   8.712 -13.943  0.00  0.00    +0.000 HD
ATOM     16  H   UNL     1      -6.569   8.448 -13.052  0.00  0.00    +0.000 HD
ENDBRANCH   1  13
BRANCH   1  17
ATOM     17  C   UNL     1      -4.220   6.385 -13.775  0.00  0.00    +0.000 C 
ATOM     18  H   UNL     1      -3.400   7.047 -14.081  0.00  0.00    +0.000 HD
ATOM     19  H   UNL     1      -3.762   5.420 -13.529  0.00  0.00    +0.000 HD
ATOM     20  H   UNL     1      -4.870   6.240 -14.646  0.00  0.00    +0.000 HD
ENDBRANCH   1  17
BRANCH   4  21
ATOM     21  C   UNL     1      -2.825   7.671 -11.464  0.00  0.00    +0.000 C 
ATOM     22  C   UNL     1      -2.588   8.945 -11.168  0.00  0.00    +0.000 C 
ATOM     23  H   UNL     1      -2.020   7.029 -11.806  0.00  0.00    +0.000 HD
ATOM     24  H   UNL     1      -3.356   9.642 -10.856  0.00  0.00    +0.000 HD
BRANCH  22  26
ATOM     25  O   UNL     1      -0.838  10.508 -10.755  0.00  0.00    +0.000 OA
ATOM     26  C   UNL     1      -1.221   9.506 -11.356  0.00  0.00    +0.000 C 
BRANCH  26  27
ATOM     27  C   UNL     1      -0.323   8.797 -12.335  0.00  0.00    +0.000 C 
ATOM     28  H   UNL     1      -0.900   8.542 -13.229  0.00  0.00    +0.000 HD
ATOM     29  H   UNL     1       0.511   9.432 -12.645  0.00  0.00    +0.000 HD
ATOM     30  H   UNL     1       0.069   7.889 -11.872  0.00  0.00    +0.000 HD
ENDBRANCH  26  27
ENDBRANCH  22  26
ENDBRANCH   4  21
BRANCH   6  31
ATOM     31  C   UNL     1      -3.789   6.610  -8.813  0.00  0.00    +0.000 C 
ATOM     32  H   UNL     1      -4.223   7.302  -8.085  0.00  0.00    +0.000 HD
ATOM     33  H   UNL     1      -2.727   6.827  -8.951  0.00  0.00    +0.000 HD
ATOM     34  H   UNL     1      -3.815   5.606  -8.369  0.00  0.00    +0.000 HD
ENDBRANCH   6  31
TORSDOF 6
ENDMDL
MODEL 5
REMARK VINA RESULT:    -5.110     13.732     14.963
REMARK INTER + INTRA:          -6.404
REMARK INTER:                  -6.253
REMARK INTRA:                  -0.151
REMARK UNBOUND:                -0.100
REMARK  Name = 638014
REMARK  6 active torsions:
REMARK  status: ('A' for Active; 'I' for Inactive)
REMARK    1  A    between atoms: C_2  and  C_8
REMARK    2  A    between atoms: C_2  and  C_9
REMARK    3  A    between atoms: C_5  and  C_10
REMARK    4  A    between atoms: C_7  and  C_11
REMARK    5  A    between atoms: C_12  and  C_13
REMARK    6  A    between atoms: C_13  and  C_14
REMARK                            x       y       z     vdW  Elec       q    Type
REMARK                         _______ _______ _______ _____ _____    ______ ____
ROOT
ATOM      1  C   UNL     1      -8.805   4.239  -5.762  0.00  0.00    +0.000 C 
ATOM      2  C   UNL     1      -8.203   5.569  -6.295  0.00  0.00    +0.000 C 
ATOM      3  C   UNL     1      -8.682   6.774  -5.506  0.00  0.00    +0.000 C 
ATOM      4  C   UNL     1     -10.318   4.376  -5.472  0.00  0.00    +0.000 C 
ATOM      5  C   UNL     1     -10.195   6.889  -5.598  0.00  0.00    +0.000 C 
ATOM      6  C   UNL     1     -10.941   5.581  -5.427  0.00  0.00    +0.000 C 
ATOM      7  H   UNL     1      -8.481   5.709  -7.349  0.00  0.00    +0.000 HD
ATOM      8  H   UNL     1      -7.106   5.530  -6.271  0.00  0.00    +0.000 HD
ATOM      9  H   UNL     1      -8.219   7.686  -5.898  0.00  0.00    +0.000 HD
ATOM     10  H   UNL     1      -8.373   6.694  -4.457  0.00  0.00    +0.000 HD
ATOM     11  H   UNL     1     -10.465   7.312  -6.574  0.00  0.00    +0.000 HD
ATOM     12  H   UNL     1     -10.528   7.607  -4.838  0.00  0.00    +0.000 HD
ENDROOT
BRANCH   1  13
ATOM     13  C   UNL     1      -8.065   3.836  -4.466  0.00  0.00    +0.000 C 
ATOM     14  H   UNL     1      -8.384   2.853  -4.103  0.00  0.00    +0.000 HD
ATOM     15  H   UNL     1      -6.980   3.788  -4.623  0.00  0.00    +0.000 HD
ATOM     16  H   UNL     1      -8.243   4.563  -3.666  0.00  0.00    +0.000 HD
ENDBRANCH   1  13
BRANCH   1  17
ATOM     17  C   UNL     1      -8.514   3.174  -6.847  0.00  0.00    +0.000 C 
ATOM     18  H   UNL     1      -7.686   2.521  -6.542  0.00  0.00    +0.000 HD
ATOM     19  H   UNL     1      -9.373   2.518  -7.028  0.00  0.00    +0.000 HD
ATOM     20  H   UNL     1      -8.235   3.640  -7.800  0.00  0.00    +0.000 HD
ENDBRANCH   1  17
BRANCH   4  21
ATOM     21  C   UNL     1     -11.027   3.131  -5.225  0.00  0.00    +0.000 C 
ATOM     22  C   UNL     1     -11.814   2.568  -6.136  0.00  0.00    +0.000 C 
ATOM     23  H   UNL     1     -10.863   2.647  -4.269  0.00  0.00    +0.000 HD
ATOM     24  H   UNL     1     -12.044   3.019  -7.093  0.00  0.00    +0.000 HD
BRANCH  22  26
ATOM     25  O   UNL     1     -12.841   0.492  -6.697  0.00  0.00    +0.000 OA
ATOM     26  C   UNL     1     -12.513   1.290  -5.822  0.00  0.00    +0.000 C 
BRANCH  26  27
ATOM     27  C   UNL     1     -12.821   1.022  -4.372  0.00  0.00    +0.000 C 
ATOM     28  H   UNL     1     -13.307   0.046  -4.284  0.00  0.00    +0.000 HD
ATOM     29  H   UNL     1     -11.910   0.999  -3.767  0.00  0.00    +0.000 HD
ATOM     30  H   UNL     1     -13.483   1.804  -3.993  0.00  0.00    +0.000 HD
ENDBRANCH  26  27
ENDBRANCH  22  26
ENDBRANCH   4  21
BRANCH   6  31
ATOM     31  C   UNL     1     -12.419   5.804  -5.203  0.00  0.00    +0.000 C 
ATOM     32  H   UNL     1     -12.592   6.339  -4.265  0.00  0.00    +0.000 HD
ATOM     33  H   UNL     1     -13.008   4.883  -5.224  0.00  0.00    +0.000 HD
ATOM     34  H   UNL     1     -12.829   6.419  -6.014  0.00  0.00    +0.000 HD
ENDBRANCH   6  31
TORSDOF 6
ENDMDL
MODEL 6
REMARK VINA RESULT:    -5.109     16.992     19.422
REMARK INTER + INTRA:          -6.404
REMARK INTER:                  -6.375
REMARK INTRA:                  -0.029
REMARK UNBOUND:                -0.100
REMARK  Name = 638014
REMARK  6 active torsions:
REMARK  status: ('A' for Active; 'I' for Inactive)
REMARK    1  A    between atoms: C_2  and  C_8
REMARK    2  A    between atoms: C_2  and  C_9
REMARK    3  A    between atoms: C_5  and  C_10
REMARK    4  A    between atoms: C_7  and  C_11
REMARK    5  A    between atoms: C_12  and  C_13
REMARK    6  A    between atoms: C_13  and  C_14
REMARK                            x       y       z     vdW  Elec       q    Type
REMARK                         _______ _______ _______ _____ _____    ______ ____
ROOT
ATOM      1  C   UNL     1     -21.472  -3.007   5.326  0.00  0.00    +0.000 C 
ATOM      2  C   UNL     1     -20.794  -2.969   6.724  0.00  0.00    +0.000 C 
ATOM      3  C   UNL     1     -20.979  -1.631   7.416  0.00  0.00    +0.000 C 
ATOM      4  C   UNL     1     -21.191  -1.716   4.523  0.00  0.00    +0.000 C 
ATOM      5  C   UNL     1     -20.362  -0.521   6.579  0.00  0.00    +0.000 C 
ATOM      6  C   UNL     1     -20.663  -0.605   5.097  0.00  0.00    +0.000 C 
ATOM      7  H   UNL     1     -19.717  -3.163   6.623  0.00  0.00    +0.000 HD
ATOM      8  H   UNL     1     -21.190  -3.768   7.364  0.00  0.00    +0.000 HD
ATOM      9  H   UNL     1     -20.506  -1.652   8.405  0.00  0.00    +0.000 HD
ATOM     10  H   UNL     1     -22.044  -1.429   7.585  0.00  0.00    +0.000 HD
ATOM     11  H   UNL     1     -19.272  -0.536   6.709  0.00  0.00    +0.000 HD
ATOM     12  H   UNL     1     -20.716   0.439   6.974  0.00  0.00    +0.000 HD
ENDROOT
BRANCH   1  13
ATOM     13  C   UNL     1     -22.998  -3.178   5.513  0.00  0.00    +0.000 C 
ATOM     14  H   UNL     1     -23.557  -2.828   4.638  0.00  0.00    +0.000 HD
ATOM     15  H   UNL     1     -23.267  -4.229   5.672  0.00  0.00    +0.000 HD
ATOM     16  H   UNL     1     -23.355  -2.618   6.384  0.00  0.00    +0.000 HD
ENDBRANCH   1  13
BRANCH   1  17
ATOM     17  C   UNL     1     -20.919  -4.267   4.618  0.00  0.00    +0.000 C 
ATOM     18  H   UNL     1     -21.728  -4.969   4.381  0.00  0.00    +0.000 HD
ATOM     19  H   UNL     1     -20.429  -4.029   3.667  0.00  0.00    +0.000 HD
ATOM     20  H   UNL     1     -20.196  -4.796   5.251  0.00  0.00    +0.000 HD
ENDBRANCH   1  17
BRANCH   4  21
ATOM     21  C   UNL     1     -21.553  -1.760   3.115  0.00  0.00    +0.000 C 
ATOM     22  C   UNL     1     -20.740  -2.253   2.186  0.00  0.00    +0.000 C 
ATOM     23  H   UNL     1     -22.540  -1.404   2.844  0.00  0.00    +0.000 HD
ATOM     24  H   UNL     1     -19.731  -2.591   2.389  0.00  0.00    +0.000 HD
BRANCH  22  26
ATOM     25  O   UNL     1     -21.793  -3.211   0.276  0.00  0.00    +0.000 OA
ATOM     26  C   UNL     1     -21.169  -2.270   0.760  0.00  0.00    +0.000 C 
BRANCH  26  27
ATOM     27  C   UNL     1     -20.788  -1.078  -0.079  0.00  0.00    +0.000 C 
ATOM     28  H   UNL     1     -20.142  -1.409  -0.897  0.00  0.00    +0.000 HD
ATOM     29  H   UNL     1     -21.667  -0.601  -0.519  0.00  0.00    +0.000 HD
ATOM     30  H   UNL     1     -20.259  -0.353   0.544  0.00  0.00    +0.000 HD
ENDBRANCH  26  27
ENDBRANCH  22  26
ENDBRANCH   4  21
BRANCH   6  31
ATOM     31  C   UNL     1     -20.308   0.677   4.379  0.00  0.00    +0.000 C 
ATOM     32  H   UNL     1     -19.476   0.516   3.688  0.00  0.00    +0.000 HD
ATOM     33  H   UNL     1     -20.081   1.507   5.053  0.00  0.00    +0.000 HD
ATOM     34  H   UNL     1     -21.166   1.020   3.788  0.00  0.00    +0.000 HD
ENDBRANCH   6  31
TORSDOF 6
ENDMDL
MODEL 7
REMARK VINA RESULT:    -5.094      1.821      3.310
REMARK INTER + INTRA:          -6.384
REMARK INTER:                  -6.204
REMARK INTRA:                  -0.181
REMARK UNBOUND:                -0.100
REMARK  Name = 638014
REMARK  6 active torsions:
REMARK  status: ('A' for Active; 'I' for Inactive)
REMARK    1  A    between atoms: C_2  and  C_8
REMARK    2  A    between atoms: C_2  and  C_9
REMARK    3  A    between atoms: C_5  and  C_10
REMARK    4  A    between atoms: C_7  and  C_11
REMARK    5  A    between atoms: C_12  and  C_13
REMARK    6  A    between atoms: C_13  and  C_14
REMARK                            x       y       z     vdW  Elec       q    Type
REMARK                         _______ _______ _______ _____ _____    ______ ____
ROOT
ATOM      1  C   UNL     1      -8.307  12.132   5.151  0.00  0.00    +0.000 C 
ATOM      2  C   UNL     1      -9.104  12.868   4.038  0.00  0.00    +0.000 C 
ATOM      3  C   UNL     1     -10.381  13.497   4.566  0.00  0.00    +0.000 C 
ATOM      4  C   UNL     1      -9.236  11.276   6.043  0.00  0.00    +0.000 C 
ATOM      5  C   UNL     1     -11.290  12.423   5.144  0.00  0.00    +0.000 C 
ATOM      6  C   UNL     1     -10.587  11.400   6.011  0.00  0.00    +0.000 C 
ATOM      7  H   UNL     1      -9.367  12.163   3.238  0.00  0.00    +0.000 HD
ATOM      8  H   UNL     1      -8.483  13.643   3.571  0.00  0.00    +0.000 HD
ATOM      9  H   UNL     1     -10.901  14.023   3.758  0.00  0.00    +0.000 HD
ATOM     10  H   UNL     1     -10.152  14.249   5.330  0.00  0.00    +0.000 HD
ATOM     11  H   UNL     1     -11.787  11.893   4.322  0.00  0.00    +0.000 HD
ATOM     12  H   UNL     1     -12.077  12.922   5.724  0.00  0.00    +0.000 HD
ENDROOT
BRANCH   1  13
ATOM     13  C   UNL     1      -7.575  13.179   6.021  0.00  0.00    +0.000 C 
ATOM     14  H   UNL     1      -8.057  13.309   6.997  0.00  0.00    +0.000 HD
ATOM     15  H   UNL     1      -6.535  12.887   6.210  0.00  0.00    +0.000 HD
ATOM     16  H   UNL     1      -7.551  14.157   5.527  0.00  0.00    +0.000 HD
ENDBRANCH   1  13
BRANCH   1  17
ATOM     17  C   UNL     1      -7.248  11.272   4.420  0.00  0.00    +0.000 C 
ATOM     18  H   UNL     1      -6.672  11.881   3.710  0.00  0.00    +0.000 HD
ATOM     19  H   UNL     1      -6.520  10.832   5.110  0.00  0.00    +0.000 HD
ATOM     20  H   UNL     1      -7.716  10.458   3.853  0.00  0.00    +0.000 HD
ENDBRANCH   1  17
BRANCH   4  21
ATOM     21  C   UNL     1      -8.566  10.347   6.940  0.00  0.00    +0.000 C 
ATOM     22  C   UNL     1      -8.493  10.551   8.251  0.00  0.00    +0.000 C 
ATOM     23  H   UNL     1      -8.151   9.446   6.502  0.00  0.00    +0.000 HD
ATOM     24  H   UNL     1      -8.857  11.446   8.741  0.00  0.00    +0.000 HD
BRANCH  22  26
ATOM     25  O   UNL     1      -8.014   8.354   9.040  0.00  0.00    +0.000 OA
ATOM     26  C   UNL     1      -7.793   9.561   9.116  0.00  0.00    +0.000 C 
BRANCH  26  27
ATOM     27  C   UNL     1      -6.804  10.107  10.112  0.00  0.00    +0.000 C 
ATOM     28  H   UNL     1      -7.348  10.562  10.944  0.00  0.00    +0.000 HD
ATOM     29  H   UNL     1      -6.168   9.317  10.519  0.00  0.00    +0.000 HD
ATOM     30  H   UNL     1      -6.176  10.856   9.623  0.00  0.00    +0.000 HD
ENDBRANCH  26  27
ENDBRANCH  22  26
ENDBRANCH   4  21
BRANCH   6  31
ATOM     31  C   UNL     1     -11.569  10.571   6.808  0.00  0.00    +0.000 C 
ATOM     32  H   UNL     1     -11.061  10.045   7.621  0.00  0.00    +0.000 HD
ATOM     33  H   UNL     1     -12.137   9.861   6.200  0.00  0.00    +0.000 HD
ATOM     34  H   UNL     1     -12.326  11.224   7.258  0.00  0.00    +0.000 HD
ENDBRANCH   6  31
TORSDOF 6
ENDMDL
MODEL 8
REMARK VINA RESULT:    -4.903     19.831     22.053
REMARK INTER + INTRA:          -6.149
REMARK INTER:                  -5.956
REMARK INTRA:                  -0.193
REMARK UNBOUND:                -0.100
REMARK  Name = 638014
REMARK  6 active torsions:
REMARK  status: ('A' for Active; 'I' for Inactive)
REMARK    1  A    between atoms: C_2  and  C_8
REMARK    2  A    between atoms: C_2  and  C_9
REMARK    3  A    between atoms: C_5  and  C_10
REMARK    4  A    between atoms: C_7  and  C_11
REMARK    5  A    between atoms: C_12  and  C_13
REMARK    6  A    between atoms: C_13  and  C_14
REMARK                            x       y       z     vdW  Elec       q    Type
REMARK                         _______ _______ _______ _____ _____    ______ ____
ROOT
ATOM      1  C   UNL     1     -14.738  -5.537  16.058  0.00  0.00    +0.000 C 
ATOM      2  C   UNL     1     -15.973  -4.609  15.887  0.00  0.00    +0.000 C 
ATOM      3  C   UNL     1     -17.269  -5.391  15.779  0.00  0.00    +0.000 C 
ATOM      4  C   UNL     1     -14.794  -6.741  15.089  0.00  0.00    +0.000 C 
ATOM      5  C   UNL     1     -17.222  -6.313  14.571  0.00  0.00    +0.000 C 
ATOM      6  C   UNL     1     -15.918  -7.066  14.401  0.00  0.00    +0.000 C 
ATOM      7  H   UNL     1     -15.858  -3.996  14.982  0.00  0.00    +0.000 HD
ATOM      8  H   UNL     1     -16.041  -3.904  16.726  0.00  0.00    +0.000 HD
ATOM      9  H   UNL     1     -18.115  -4.701  15.682  0.00  0.00    +0.000 HD
ATOM     10  H   UNL     1     -17.445  -5.972  16.692  0.00  0.00    +0.000 HD
ATOM     11  H   UNL     1     -17.399  -5.725  13.662  0.00  0.00    +0.000 HD
ATOM     12  H   UNL     1     -18.052  -7.026  14.656  0.00  0.00    +0.000 HD
ENDROOT
BRANCH   1  13
ATOM     13  C   UNL     1     -14.692  -6.049  17.516  0.00  0.00    +0.000 C 
ATOM     14  H   UNL     1     -15.134  -5.331  18.215  0.00  0.00    +0.000 HD
ATOM     15  H   UNL     1     -15.242  -6.991  17.628  0.00  0.00    +0.000 HD
ATOM     16  H   UNL     1     -13.661  -6.237  17.837  0.00  0.00    +0.000 HD
ENDBRANCH   1  13
BRANCH   1  17
ATOM     17  C   UNL     1     -13.497  -4.647  15.809  0.00  0.00    +0.000 C 
ATOM     18  H   UNL     1     -13.090  -4.815  14.804  0.00  0.00    +0.000 HD
ATOM     19  H   UNL     1     -13.731  -3.579  15.873  0.00  0.00    +0.000 HD
ATOM     20  H   UNL     1     -12.699  -4.864  16.529  0.00  0.00    +0.000 HD
ENDBRANCH   1  17
BRANCH   4  21
ATOM     21  C   UNL     1     -13.570  -7.520  14.980  0.00  0.00    +0.000 C 
ATOM     22  C   UNL     1     -13.399  -8.669  15.625  0.00  0.00    +0.000 C 
ATOM     23  H   UNL     1     -12.800  -7.144  14.316  0.00  0.00    +0.000 HD
ATOM     24  H   UNL     1     -14.116  -9.077  16.327  0.00  0.00    +0.000 HD
BRANCH  22  26
ATOM     25  O   UNL     1     -11.304  -9.149  14.596  0.00  0.00    +0.000 OA
ATOM     26  C   UNL     1     -12.122  -9.420  15.473  0.00  0.00    +0.000 C 
BRANCH  26  27
ATOM     27  C   UNL     1     -11.878 -10.550  16.438  0.00  0.00    +0.000 C 
ATOM     28  H   UNL     1     -11.378 -10.158  17.329  0.00  0.00    +0.000 HD
ATOM     29  H   UNL     1     -12.815 -11.013  16.757  0.00  0.00    +0.000 HD
ATOM     30  H   UNL     1     -11.249 -11.304  15.959  0.00  0.00    +0.000 HD
ENDBRANCH  26  27
ENDBRANCH  22  26
ENDBRANCH   4  21
BRANCH   6  31
ATOM     31  C   UNL     1     -16.046  -8.189  13.397  0.00  0.00    +0.000 C 
ATOM     32  H   UNL     1     -15.526  -9.084  13.750  0.00  0.00    +0.000 HD
ATOM     33  H   UNL     1     -15.698  -7.923  12.396  0.00  0.00    +0.000 HD
ATOM     34  H   UNL     1     -17.103  -8.452  13.267  0.00  0.00    +0.000 HD
ENDBRANCH   6  31
TORSDOF 6
ENDMDL
MODEL 9
REMARK VINA RESULT:    -4.726     23.796     26.228
REMARK INTER + INTRA:          -5.931
REMARK INTER:                  -5.696
REMARK INTRA:                  -0.235
REMARK UNBOUND:                -0.100
REMARK  Name = 638014
REMARK  6 active torsions:
REMARK  status: ('A' for Active; 'I' for Inactive)
REMARK    1  A    between atoms: C_2  and  C_8
REMARK    2  A    between atoms: C_2  and  C_9
REMARK    3  A    between atoms: C_5  and  C_10
REMARK    4  A    between atoms: C_7  and  C_11
REMARK    5  A    between atoms: C_12  and  C_13
REMARK    6  A    between atoms: C_13  and  C_14
REMARK                            x       y       z     vdW  Elec       q    Type
REMARK                         _______ _______ _______ _____ _____    ______ ____
ROOT
ATOM      1  C   UNL     1     -11.352 -12.709  18.137  0.00  0.00    +0.000 C 
ATOM      2  C   UNL     1     -12.719 -12.710  18.876  0.00  0.00    +0.000 C 
ATOM      3  C   UNL     1     -13.885 -12.490  17.929  0.00  0.00    +0.000 C 
ATOM      4  C   UNL     1     -11.261 -11.555  17.112  0.00  0.00    +0.000 C 
ATOM      5  C   UNL     1     -13.744 -11.146  17.233  0.00  0.00    +0.000 C 
ATOM      6  C   UNL     1     -12.348 -10.837  16.731  0.00  0.00    +0.000 C 
ATOM      7  H   UNL     1     -12.734 -11.917  19.637  0.00  0.00    +0.000 HD
ATOM      8  H   UNL     1     -12.862 -13.655  19.416  0.00  0.00    +0.000 HD
ATOM      9  H   UNL     1     -14.829 -12.519  18.484  0.00  0.00    +0.000 HD
ATOM     10  H   UNL     1     -13.935 -13.296  17.187  0.00  0.00    +0.000 HD
ATOM     11  H   UNL     1     -14.043 -10.349  17.925  0.00  0.00    +0.000 HD
ATOM     12  H   UNL     1     -14.452 -11.121  16.395  0.00  0.00    +0.000 HD
ENDROOT
BRANCH   1  13
ATOM     13  C   UNL     1     -11.173 -14.062  17.410  0.00  0.00    +0.000 C 
ATOM     14  H   UNL     1     -10.708 -14.815  18.056  0.00  0.00    +0.000 HD
ATOM     15  H   UNL     1     -12.136 -14.469  17.078  0.00  0.00    +0.000 HD
ATOM     16  H   UNL     1     -10.545 -13.952  16.519  0.00  0.00    +0.000 HD
ENDBRANCH   1  13
BRANCH   1  17
ATOM     17  C   UNL     1     -10.271 -12.596  19.239  0.00  0.00    +0.000 C 
ATOM     18  H   UNL     1      -9.415 -13.246  19.015  0.00  0.00    +0.000 HD
ATOM     19  H   UNL     1      -9.872 -11.580  19.328  0.00  0.00    +0.000 HD
ATOM     20  H   UNL     1     -10.666 -12.894  20.218  0.00  0.00    +0.000 HD
ENDBRANCH   1  17
BRANCH   4  21
ATOM     21  C   UNL     1      -9.938 -11.304  16.562  0.00  0.00    +0.000 C 
ATOM     22  C   UNL     1      -9.500 -11.905  15.461  0.00  0.00    +0.000 C 
ATOM     23  H   UNL     1      -9.320 -10.571  17.068  0.00  0.00    +0.000 HD
ATOM     24  H   UNL     1     -10.056 -12.670  14.932  0.00  0.00    +0.000 HD
BRANCH  22  26
ATOM     25  O   UNL     1      -7.935 -11.245  13.789  0.00  0.00    +0.000 OA
ATOM     26  C   UNL     1      -8.134 -11.605  14.947  0.00  0.00    +0.000 C 
BRANCH  26  27
ATOM     27  C   UNL     1      -6.992 -11.780  15.913  0.00  0.00    +0.000 C 
ATOM     28  H   UNL     1      -6.102 -11.291  15.506  0.00  0.00    +0.000 HD
ATOM     29  H   UNL     1      -7.212 -11.323  16.881  0.00  0.00    +0.000 HD
ATOM     30  H   UNL     1      -6.799 -12.846  16.055  0.00  0.00    +0.000 HD
ENDBRANCH  26  27
ENDBRANCH  22  26
ENDBRANCH   4  21
BRANCH   6  31
ATOM     31  C   UNL     1     -12.342  -9.663  15.778  0.00  0.00    +0.000 C 
ATOM     32  H   UNL     1     -11.590  -9.803  14.996  0.00  0.00    +0.000 HD
ATOM     33  H   UNL     1     -12.194  -8.699  16.272  0.00  0.00    +0.000 HD
ATOM     34  H   UNL     1     -13.318  -9.580  15.286  0.00  0.00    +0.000 HD
ENDBRANCH   6  31
TORSDOF 6
ENDMDL
MODEL 10
REMARK VINA RESULT:    -4.646     16.244     17.508
REMARK INTER + INTRA:          -5.833
REMARK INTER:                  -5.733
REMARK INTRA:                  -0.100
REMARK UNBOUND:                -0.100
REMARK  Name = 638014
REMARK  6 active torsions:
REMARK  status: ('A' for Active; 'I' for Inactive)
REMARK    1  A    between atoms: C_2  and  C_8
REMARK    2  A    between atoms: C_2  and  C_9
REMARK    3  A    between atoms: C_5  and  C_10
REMARK    4  A    between atoms: C_7  and  C_11
REMARK    5  A    between atoms: C_12  and  C_13
REMARK    6  A    between atoms: C_13  and  C_14
REMARK                            x       y       z     vdW  Elec       q    Type
REMARK                         _______ _______ _______ _____ _____    ______ ____
ROOT
ATOM      1  C   UNL     1       9.901  12.545   6.187  0.00  0.00    +0.000 C 
ATOM      2  C   UNL     1      10.772  11.965   5.038  0.00  0.00    +0.000 C 
ATOM      3  C   UNL     1       9.937  11.275   3.975  0.00  0.00    +0.000 C 
ATOM      4  C   UNL     1       8.815  11.542   6.639  0.00  0.00    +0.000 C 
ATOM      5  C   UNL     1       9.164  10.119   4.590  0.00  0.00    +0.000 C 
ATOM      6  C   UNL     1       8.509  10.432   5.919  0.00  0.00    +0.000 C 
ATOM      7  H   UNL     1      11.490  11.239   5.444  0.00  0.00    +0.000 HD
ATOM      8  H   UNL     1      11.371  12.759   4.573  0.00  0.00    +0.000 HD
ATOM      9  H   UNL     1      10.585  10.900   3.175  0.00  0.00    +0.000 HD
ATOM     10  H   UNL     1       9.246  11.986   3.508  0.00  0.00    +0.000 HD
ATOM     11  H   UNL     1       9.842   9.268   4.733  0.00  0.00    +0.000 HD
ATOM     12  H   UNL     1       8.401   9.800   3.868  0.00  0.00    +0.000 HD
ENDROOT
BRANCH   1  13
ATOM     13  C   UNL     1       9.228  13.849   5.697  0.00  0.00    +0.000 C 
ATOM     14  H   UNL     1       9.288  13.955   4.609  0.00  0.00    +0.000 HD
ATOM     15  H   UNL     1       8.166  13.878   5.969  0.00  0.00    +0.000 HD
ATOM     16  H   UNL     1       9.700  14.730   6.146  0.00  0.00    +0.000 HD
ENDBRANCH   1  13
BRANCH   1  17
ATOM     17  C   UNL     1      10.882  12.898   7.331  0.00  0.00    +0.000 C 
ATOM     18  H   UNL     1      11.082  12.019   7.958  0.00  0.00    +0.000 HD
ATOM     19  H   UNL     1      11.853  13.238   6.957  0.00  0.00    +0.000 HD
ATOM     20  H   UNL     1      10.473  13.681   7.980  0.00  0.00    +0.000 HD
ENDBRANCH   1  17
BRANCH   4  21
ATOM     21  C   UNL     1       8.124  11.876   7.874  0.00  0.00    +0.000 C 
ATOM     22  C   UNL     1       8.400  11.279   9.028  0.00  0.00    +0.000 C 
ATOM     23  H   UNL     1       7.385  12.669   7.831  0.00  0.00    +0.000 HD
ATOM     24  H   UNL     1       9.100  10.458   9.128  0.00  0.00    +0.000 HD
BRANCH  22  26
ATOM     25  O   UNL     1       6.703  12.443  10.230  0.00  0.00    +0.000 OA
ATOM     26  C   UNL     1       7.656  11.667  10.259  0.00  0.00    +0.000 C 
BRANCH  26  27
ATOM     27  C   UNL     1       8.135  11.074  11.558  0.00  0.00    +0.000 C 
ATOM     28  H   UNL     1       8.476  11.880  12.215  0.00  0.00    +0.000 HD
ATOM     29  H   UNL     1       7.333  10.539  12.073  0.00  0.00    +0.000 HD
ATOM     30  H   UNL     1       8.957  10.383  11.358  0.00  0.00    +0.000 HD
ENDBRANCH  26  27
ENDBRANCH  22  26
ENDBRANCH   4  21
BRANCH   6  31
ATOM     31  C   UNL     1       7.503   9.374   6.312  0.00  0.00    +0.000 C 
ATOM     32  H   UNL     1       6.484   9.764   6.241  0.00  0.00    +0.000 HD
ATOM     33  H   UNL     1       7.676   8.954   7.306  0.00  0.00    +0.000 HD
ATOM     34  H   UNL     1       7.578   8.519   5.629  0.00  0.00    +0.000 HD
ENDBRANCH   6  31
TORSDOF 6
ENDMDL
