MODEL 1
REMARK VINA RESULT:    -5.568      0.000      0.000
REMARK INTER + INTRA:          -7.962
REMARK INTER:                  -7.153
REMARK INTRA:                  -0.809
REMARK UNBOUND:                -0.440
REMARK  Name = 24433
REMARK  7 active torsions:
REMARK  status: ('A' for Active; 'I' for Inactive)
REMARK    1  A    between atoms: O_1  and  C_6
REMARK    2  A    between atoms: O_1  and  C_9
REMARK    3  A    between atoms: N_3  and  C_10
REMARK    4  A    between atoms: C_4  and  C_5
REMARK    5  A    between atoms: C_4  and  C_6
REMARK    6  A    between atoms: C_5  and  C_7
REMARK    7  A    between atoms: C_8  and  C_9
REMARK                            x       y       z     vdW  Elec       q    Type
REMARK                         _______ _______ _______ _____ _____    ______ ____
ROOT
ATOM      1  O   UNL     1      -7.991  13.771   9.180  0.00  0.00    +0.000 OA
ATOM      2  C   UNL     1      -7.310  12.912   8.641  0.00  0.00    +0.000 C 
ENDROOT
BRANCH   2   3
ATOM      3  C   UNL     1      -7.498  11.458   8.875  0.00  0.00    +0.000 A 
ATOM      4  C   UNL     1      -6.804  10.817   9.882  0.00  0.00    +0.000 A 
ATOM      5  C   UNL     1      -8.383  10.786   8.054  0.00  0.00    +0.000 A 
ATOM      6  C   UNL     1      -7.002   9.450  10.077  0.00  0.00    +0.000 A 
ATOM      7  C   UNL     1      -8.581   9.419   8.249  0.00  0.00    +0.000 A 
ATOM      8  C   UNL     1      -7.891   8.751   9.261  0.00  0.00    +0.000 A 
ATOM      9  H   UNL     1      -8.947  11.281   7.269  0.00  0.00    +0.000 HD
ATOM     10  H   UNL     1      -6.470   8.918  10.862  0.00  0.00    +0.000 HD
ATOM     11  H   UNL     1      -9.276   8.874   7.616  0.00  0.00    +0.000 HD
ATOM     12  H   UNL     1      -8.045   7.687   9.413  0.00  0.00    +0.000 HD
BRANCH   4  13
ATOM     13  N   UNL     1      -5.900  11.507  10.720  0.00  0.00    +0.000 N 
ATOM     14  H   UNL     1      -6.182  11.831  11.634  0.00  0.00    +0.000 HD
ATOM     15  H   UNL     1      -4.960  11.696  10.396  0.00  0.00    +0.000 HD
ENDBRANCH   4  13
ENDBRANCH   2   3
BRANCH   2  16
ATOM     16  O   UNL     1      -6.293  13.134   7.762  0.00  0.00    +0.000 OA
BRANCH  16  17
ATOM     17  C   UNL     1      -6.546  14.089   6.742  0.00  0.00    +0.000 C 
ATOM     18  H   UNL     1      -5.858  14.936   6.858  0.00  0.00    +0.000 HD
ATOM     19  H   UNL     1      -7.577  14.451   6.826  0.00  0.00    +0.000 HD
BRANCH  17  20
ATOM     20  C   UNL     1      -6.335  13.429   5.387  0.00  0.00    +0.000 C 
ATOM     21  H   UNL     1      -5.505  12.713   5.456  0.00  0.00    +0.000 HD
ATOM     22  H   UNL     1      -6.016  14.187   4.661  0.00  0.00    +0.000 HD
BRANCH  20  23
ATOM     23  C   UNL     1      -7.599  12.728   4.898  0.00  0.00    +0.000 C 
ATOM     24  H   UNL     1      -8.014  13.267   4.038  0.00  0.00    +0.000 HD
ATOM     25  H   UNL     1      -8.360  12.742   5.687  0.00  0.00    +0.000 HD
BRANCH  23  26
ATOM     26  C   UNL     1      -7.318  11.290   4.496  0.00  0.00    +0.000 C 
ATOM     27  H   UNL     1      -7.982  10.598   5.025  0.00  0.00    +0.000 HD
ATOM     28  H   UNL     1      -7.459  11.148   3.420  0.00  0.00    +0.000 HD
ATOM     29  H   UNL     1      -6.286  11.022   4.743  0.00  0.00    +0.000 HD
ENDBRANCH  23  26
ENDBRANCH  20  23
ENDBRANCH  17  20
ENDBRANCH  16  17
ENDBRANCH   2  16
TORSDOF 7
ENDMDL
MODEL 2
REMARK VINA RESULT:    -5.232     19.052     20.717
REMARK INTER + INTRA:          -7.507
REMARK INTER:                  -6.831
REMARK INTRA:                  -0.676
REMARK UNBOUND:                -0.440
REMARK  Name = 24433
REMARK  7 active torsions:
REMARK  status: ('A' for Active; 'I' for Inactive)
REMARK    1  A    between atoms: O_1  and  C_6
REMARK    2  A    between atoms: O_1  and  C_9
REMARK    3  A    between atoms: N_3  and  C_10
REMARK    4  A    between atoms: C_4  and  C_5
REMARK    5  A    between atoms: C_4  and  C_6
REMARK    6  A    between atoms: C_5  and  C_7
REMARK    7  A    between atoms: C_8  and  C_9
REMARK                            x       y       z     vdW  Elec       q    Type
REMARK                         _______ _______ _______ _____ _____    ______ ____
ROOT
ATOM      1  O   UNL     1     -22.404  -2.754   3.128  0.00  0.00    +0.000 OA
ATOM      2  C   UNL     1     -21.918  -3.183   4.163  0.00  0.00    +0.000 C 
ENDROOT
BRANCH   2   3
ATOM      3  C   UNL     1     -21.583  -2.321   5.324  0.00  0.00    +0.000 A 
ATOM      4  C   UNL     1     -22.139  -2.571   6.564  0.00  0.00    +0.000 A 
ATOM      5  C   UNL     1     -20.707  -1.274   5.113  0.00  0.00    +0.000 A 
ATOM      6  C   UNL     1     -21.805  -1.742   7.635  0.00  0.00    +0.000 A 
ATOM      7  C   UNL     1     -20.373  -0.445   6.185  0.00  0.00    +0.000 A 
ATOM      8  C   UNL     1     -20.922  -0.679   7.445  0.00  0.00    +0.000 A 
ATOM      9  H   UNL     1     -20.250  -1.076   4.148  0.00  0.00    +0.000 HD
ATOM     10  H   UNL     1     -22.226  -1.914   8.622  0.00  0.00    +0.000 HD
ATOM     11  H   UNL     1     -19.682   0.381   6.039  0.00  0.00    +0.000 HD
ATOM     12  H   UNL     1     -20.661  -0.035   8.279  0.00  0.00    +0.000 HD
BRANCH   4  13
ATOM     13  N   UNL     1     -23.035  -3.642   6.776  0.00  0.00    +0.000 N 
ATOM     14  H   UNL     1     -23.608  -3.996   6.024  0.00  0.00    +0.000 HD
ATOM     15  H   UNL     1     -23.117  -4.051   7.698  0.00  0.00    +0.000 HD
ENDBRANCH   4  13
ENDBRANCH   2   3
BRANCH   2  16
ATOM     16  O   UNL     1     -21.609  -4.485   4.422  0.00  0.00    +0.000 OA
BRANCH  16  17
ATOM     17  C   UNL     1     -20.766  -5.127   3.476  0.00  0.00    +0.000 C 
ATOM     18  H   UNL     1     -20.870  -4.634   2.502  0.00  0.00    +0.000 HD
ATOM     19  H   UNL     1     -21.060  -6.179   3.378  0.00  0.00    +0.000 HD
BRANCH  17  20
ATOM     20  C   UNL     1     -19.325  -5.031   3.957  0.00  0.00    +0.000 C 
ATOM     21  H   UNL     1     -19.096  -5.893   4.596  0.00  0.00    +0.000 HD
ATOM     22  H   UNL     1     -19.215  -4.147   4.597  0.00  0.00    +0.000 HD
BRANCH  20  23
ATOM     23  C   UNL     1     -18.344  -4.963   2.790  0.00  0.00    +0.000 C 
ATOM     24  H   UNL     1     -17.942  -5.962   2.583  0.00  0.00    +0.000 HD
ATOM     25  H   UNL     1     -17.496  -4.321   3.053  0.00  0.00    +0.000 HD
BRANCH  23  26
ATOM     26  C   UNL     1     -19.009  -4.425   1.534  0.00  0.00    +0.000 C 
ATOM     27  H   UNL     1     -18.333  -4.486   0.675  0.00  0.00    +0.000 HD
ATOM     28  H   UNL     1     -19.918  -4.989   1.298  0.00  0.00    +0.000 HD
ATOM     29  H   UNL     1     -19.286  -3.375   1.672  0.00  0.00    +0.000 HD
ENDBRANCH  23  26
ENDBRANCH  20  23
ENDBRANCH  17  20
ENDBRANCH  16  17
ENDBRANCH   2  16
TORSDOF 7
ENDMDL
MODEL 3
REMARK VINA RESULT:    -5.161     19.148     20.907
REMARK INTER + INTRA:          -7.412
REMARK INTER:                  -6.466
REMARK INTRA:                  -0.946
REMARK UNBOUND:                -0.440
REMARK  Name = 24433
REMARK  7 active torsions:
REMARK  status: ('A' for Active; 'I' for Inactive)
REMARK    1  A    between atoms: O_1  and  C_6
REMARK    2  A    between atoms: O_1  and  C_9
REMARK    3  A    between atoms: N_3  and  C_10
REMARK    4  A    between atoms: C_4  and  C_5
REMARK    5  A    between atoms: C_4  and  C_6
REMARK    6  A    between atoms: C_5  and  C_7
REMARK    7  A    between atoms: C_8  and  C_9
REMARK                            x       y       z     vdW  Elec       q    Type
REMARK                         _______ _______ _______ _____ _____    ______ ____
ROOT
ATOM      1  O   UNL     1     -23.641  -3.643   3.965  0.00  0.00    +0.000 OA
ATOM      2  C   UNL     1     -22.449  -3.397   3.862  0.00  0.00    +0.000 C 
ENDROOT
BRANCH   2   3
ATOM      3  C   UNL     1     -21.712  -2.529   4.815  0.00  0.00    +0.000 A 
ATOM      4  C   UNL     1     -21.140  -1.348   4.386  0.00  0.00    +0.000 A 
ATOM      5  C   UNL     1     -21.625  -2.949   6.129  0.00  0.00    +0.000 A 
ATOM      6  C   UNL     1     -20.453  -0.554   5.305  0.00  0.00    +0.000 A 
ATOM      7  C   UNL     1     -20.938  -2.155   7.048  0.00  0.00    +0.000 A 
ATOM      8  C   UNL     1     -20.353  -0.958   6.636  0.00  0.00    +0.000 A 
ATOM      9  H   UNL     1     -22.083  -3.867   6.483  0.00  0.00    +0.000 HD
ATOM     10  H   UNL     1     -19.993   0.381   4.997  0.00  0.00    +0.000 HD
ATOM     11  H   UNL     1     -20.862  -2.467   8.086  0.00  0.00    +0.000 HD
ATOM     12  H   UNL     1     -19.819  -0.340   7.352  0.00  0.00    +0.000 HD
BRANCH   4  13
ATOM     13  N   UNL     1     -21.231  -0.921   3.042  0.00  0.00    +0.000 N 
ATOM     14  H   UNL     1     -22.077  -0.499   2.687  0.00  0.00    +0.000 HD
ATOM     15  H   UNL     1     -20.444  -1.055   2.419  0.00  0.00    +0.000 HD
ENDBRANCH   4  13
ENDBRANCH   2   3
BRANCH   2  16
ATOM     16  O   UNL     1     -21.618  -3.860   2.887  0.00  0.00    +0.000 OA
BRANCH  16  17
ATOM     17  C   UNL     1     -21.405  -5.265   2.863  0.00  0.00    +0.000 C 
ATOM     18  H   UNL     1     -22.089  -5.724   2.139  0.00  0.00    +0.000 HD
ATOM     19  H   UNL     1     -21.602  -5.682   3.858  0.00  0.00    +0.000 HD
BRANCH  17  20
ATOM     20  C   UNL     1     -19.962  -5.536   2.461  0.00  0.00    +0.000 C 
ATOM     21  H   UNL     1     -19.815  -5.242   1.413  0.00  0.00    +0.000 HD
ATOM     22  H   UNL     1     -19.774  -6.616   2.498  0.00  0.00    +0.000 HD
BRANCH  20  23
ATOM     23  C   UNL     1     -18.977  -4.797   3.361  0.00  0.00    +0.000 C 
ATOM     24  H   UNL     1     -19.194  -3.722   3.346  0.00  0.00    +0.000 HD
ATOM     25  H   UNL     1     -17.957  -4.925   2.980  0.00  0.00    +0.000 HD
BRANCH  23  26
ATOM     26  C   UNL     1     -19.045  -5.299   4.793  0.00  0.00    +0.000 C 
ATOM     27  H   UNL     1     -18.688  -6.332   4.864  0.00  0.00    +0.000 HD
ATOM     28  H   UNL     1     -18.437  -4.677   5.457  0.00  0.00    +0.000 HD
ATOM     29  H   UNL     1     -20.078  -5.273   5.154  0.00  0.00    +0.000 HD
ENDBRANCH  23  26
ENDBRANCH  20  23
ENDBRANCH  17  20
ENDBRANCH  16  17
ENDBRANCH   2  16
TORSDOF 7
ENDMDL
MODEL 4
REMARK VINA RESULT:    -5.157      2.405      5.178
REMARK INTER + INTRA:          -7.407
REMARK INTER:                  -6.925
REMARK INTRA:                  -0.482
REMARK UNBOUND:                -0.440
REMARK  Name = 24433
REMARK  7 active torsions:
REMARK  status: ('A' for Active; 'I' for Inactive)
REMARK    1  A    between atoms: O_1  and  C_6
REMARK    2  A    between atoms: O_1  and  C_9
REMARK    3  A    between atoms: N_3  and  C_10
REMARK    4  A    between atoms: C_4  and  C_5
REMARK    5  A    between atoms: C_4  and  C_6
REMARK    6  A    between atoms: C_5  and  C_7
REMARK    7  A    between atoms: C_8  and  C_9
REMARK                            x       y       z     vdW  Elec       q    Type
REMARK                         _______ _______ _______ _____ _____    ______ ____
ROOT
ATOM      1  O   UNL     1     -10.544  10.909   7.778  0.00  0.00    +0.000 OA
ATOM      2  C   UNL     1      -9.419  10.532   7.487  0.00  0.00    +0.000 C 
ENDROOT
BRANCH   2   3
ATOM      3  C   UNL     1      -8.482  11.330   6.657  0.00  0.00    +0.000 A 
ATOM      4  C   UNL     1      -7.936  12.500   7.149  0.00  0.00    +0.000 A 
ATOM      5  C   UNL     1      -8.186  10.860   5.392  0.00  0.00    +0.000 A 
ATOM      6  C   UNL     1      -7.059  13.228   6.344  0.00  0.00    +0.000 A 
ATOM      7  C   UNL     1      -7.309  11.588   4.588  0.00  0.00    +0.000 A 
ATOM      8  C   UNL     1      -6.746  12.772   5.064  0.00  0.00    +0.000 A 
ATOM      9  H   UNL     1      -8.595   9.934   5.000  0.00  0.00    +0.000 HD
ATOM     10  H   UNL     1      -6.613  14.152   6.703  0.00  0.00    +0.000 HD
ATOM     11  H   UNL     1      -7.061  11.232   3.592  0.00  0.00    +0.000 HD
ATOM     12  H   UNL     1      -6.062  13.338   4.439  0.00  0.00    +0.000 HD
BRANCH   4  13
ATOM     13  N   UNL     1      -8.241  12.978   8.442  0.00  0.00    +0.000 N 
ATOM     14  H   UNL     1      -8.866  13.761   8.572  0.00  0.00    +0.000 HD
ATOM     15  H   UNL     1      -7.816  12.543   9.251  0.00  0.00    +0.000 HD
ENDBRANCH   4  13
ENDBRANCH   2   3
BRANCH   2  16
ATOM     16  O   UNL     1      -8.849   9.353   7.862  0.00  0.00    +0.000 OA
BRANCH  16  17
ATOM     17  C   UNL     1      -8.046   9.391   9.034  0.00  0.00    +0.000 C 
ATOM     18  H   UNL     1      -7.383  10.264   8.992  0.00  0.00    +0.000 HD
ATOM     19  H   UNL     1      -7.437   8.481   9.091  0.00  0.00    +0.000 HD
BRANCH  17  20
ATOM     20  C   UNL     1      -8.956   9.487  10.250  0.00  0.00    +0.000 C 
ATOM     21  H   UNL     1      -9.934   9.878   9.943  0.00  0.00    +0.000 HD
ATOM     22  H   UNL     1      -8.546  10.224  10.951  0.00  0.00    +0.000 HD
BRANCH  20  23
ATOM     23  C   UNL     1      -9.119   8.136  10.940  0.00  0.00    +0.000 C 
ATOM     24  H   UNL     1      -8.391   8.043  11.755  0.00  0.00    +0.000 HD
ATOM     25  H   UNL     1      -8.912   7.327  10.229  0.00  0.00    +0.000 HD
BRANCH  23  26
ATOM     26  C   UNL     1     -10.520   7.962  11.502  0.00  0.00    +0.000 C 
ATOM     27  H   UNL     1     -11.250   8.535  10.920  0.00  0.00    +0.000 HD
ATOM     28  H   UNL     1     -10.820   6.910  11.491  0.00  0.00    +0.000 HD
ATOM     29  H   UNL     1     -10.560   8.317  12.536  0.00  0.00    +0.000 HD
ENDBRANCH  23  26
ENDBRANCH  20  23
ENDBRANCH  17  20
ENDBRANCH  16  17
ENDBRANCH   2  16
TORSDOF 7
ENDMDL
MODEL 5
REMARK VINA RESULT:    -5.155      7.674      9.291
REMARK INTER + INTRA:          -7.404
REMARK INTER:                  -6.905
REMARK INTRA:                  -0.499
REMARK UNBOUND:                -0.440
REMARK  Name = 24433
REMARK  7 active torsions:
REMARK  status: ('A' for Active; 'I' for Inactive)
REMARK    1  A    between atoms: O_1  and  C_6
REMARK    2  A    between atoms: O_1  and  C_9
REMARK    3  A    between atoms: N_3  and  C_10
REMARK    4  A    between atoms: C_4  and  C_5
REMARK    5  A    between atoms: C_4  and  C_6
REMARK    6  A    between atoms: C_5  and  C_7
REMARK    7  A    between atoms: C_8  and  C_9
REMARK                            x       y       z     vdW  Elec       q    Type
REMARK                         _______ _______ _______ _____ _____    ______ ____
ROOT
ATOM      1  O   UNL     1      -9.563  11.765  16.189  0.00  0.00    +0.000 OA
ATOM      2  C   UNL     1      -9.817  10.572  16.265  0.00  0.00    +0.000 C 
ENDROOT
BRANCH   2   3
ATOM      3  C   UNL     1     -10.027   9.866  17.554  0.00  0.00    +0.000 A 
ATOM      4  C   UNL     1      -9.165   8.861  17.948  0.00  0.00    +0.000 A 
ATOM      5  C   UNL     1     -11.105  10.250  18.328  0.00  0.00    +0.000 A 
ATOM      6  C   UNL     1      -9.389   8.216  19.165  0.00  0.00    +0.000 A 
ATOM      7  C   UNL     1     -11.328   9.605  19.544  0.00  0.00    +0.000 A 
ATOM      8  C   UNL     1     -10.470   8.588  19.962  0.00  0.00    +0.000 A 
ATOM      9  H   UNL     1     -11.781  11.049  18.037  0.00  0.00    +0.000 HD
ATOM     10  H   UNL     1      -8.728   7.422  19.502  0.00  0.00    +0.000 HD
ATOM     11  H   UNL     1     -12.169   9.896  20.168  0.00  0.00    +0.000 HD
ATOM     12  H   UNL     1     -10.644   8.085  20.909  0.00  0.00    +0.000 HD
BRANCH   4  13
ATOM     13  N   UNL     1      -8.064   8.470  17.154  0.00  0.00    +0.000 N 
ATOM     14  H   UNL     1      -7.335   7.880  17.531  0.00  0.00    +0.000 HD
ATOM     15  H   UNL     1      -7.993   8.797  16.199  0.00  0.00    +0.000 HD
ENDBRANCH   4  13
ENDBRANCH   2   3
BRANCH   2  16
ATOM     16  O   UNL     1      -9.946   9.714  15.215  0.00  0.00    +0.000 OA
BRANCH  16  17
ATOM     17  C   UNL     1     -10.993  10.000  14.299  0.00  0.00    +0.000 C 
ATOM     18  H   UNL     1     -11.389  11.003  14.501  0.00  0.00    +0.000 HD
ATOM     19  H   UNL     1     -11.798   9.266  14.421  0.00  0.00    +0.000 HD
BRANCH  17  20
ATOM     20  C   UNL     1     -10.438   9.934  12.883  0.00  0.00    +0.000 C 
ATOM     21  H   UNL     1      -9.346   9.841  12.924  0.00  0.00    +0.000 HD
ATOM     22  H   UNL     1     -10.638  10.884  12.372  0.00  0.00    +0.000 HD
BRANCH  20  23
ATOM     23  C   UNL     1     -11.039   8.774  12.095  0.00  0.00    +0.000 C 
ATOM     24  H   UNL     1     -11.554   9.155  11.205  0.00  0.00    +0.000 HD
ATOM     25  H   UNL     1     -11.789   8.258  12.706  0.00  0.00    +0.000 HD
BRANCH  23  26
ATOM     26  C   UNL     1      -9.972   7.781  11.665  0.00  0.00    +0.000 C 
ATOM     27  H   UNL     1      -9.991   7.630  10.581  0.00  0.00    +0.000 HD
ATOM     28  H   UNL     1      -8.974   8.130  11.948  0.00  0.00    +0.000 HD
ATOM     29  H   UNL     1     -10.142   6.812  12.145  0.00  0.00    +0.000 HD
ENDBRANCH  23  26
ENDBRANCH  20  23
ENDBRANCH  17  20
ENDBRANCH  16  17
ENDBRANCH   2  16
TORSDOF 7
ENDMDL
MODEL 6
REMARK VINA RESULT:    -5.139      2.964      3.693
REMARK INTER + INTRA:          -7.382
REMARK INTER:                  -6.861
REMARK INTRA:                  -0.521
REMARK UNBOUND:                -0.440
REMARK  Name = 24433
REMARK  7 active torsions:
REMARK  status: ('A' for Active; 'I' for Inactive)
REMARK    1  A    between atoms: O_1  and  C_6
REMARK    2  A    between atoms: O_1  and  C_9
REMARK    3  A    between atoms: N_3  and  C_10
REMARK    4  A    between atoms: C_4  and  C_5
REMARK    5  A    between atoms: C_4  and  C_6
REMARK    6  A    between atoms: C_5  and  C_7
REMARK    7  A    between atoms: C_8  and  C_9
REMARK                            x       y       z     vdW  Elec       q    Type
REMARK                         _______ _______ _______ _____ _____    ______ ____
ROOT
ATOM      1  O   UNL     1      -6.558   9.466  10.224  0.00  0.00    +0.000 OA
ATOM      2  C   UNL     1      -7.750   9.415   9.960  0.00  0.00    +0.000 C 
ENDROOT
BRANCH   2   3
ATOM      3  C   UNL     1      -8.814   9.408  10.996  0.00  0.00    +0.000 A 
ATOM      4  C   UNL     1      -8.891  10.427  11.925  0.00  0.00    +0.000 A 
ATOM      5  C   UNL     1      -9.707   8.355  10.989  0.00  0.00    +0.000 A 
ATOM      6  C   UNL     1      -9.902  10.392  12.886  0.00  0.00    +0.000 A 
ATOM      7  C   UNL     1     -10.718   8.320  11.950  0.00  0.00    +0.000 A 
ATOM      8  C   UNL     1     -10.815   9.338  12.898  0.00  0.00    +0.000 A 
ATOM      9  H   UNL     1      -9.668   7.556  10.255  0.00  0.00    +0.000 HD
ATOM     10  H   UNL     1      -9.988  11.180  13.630  0.00  0.00    +0.000 HD
ATOM     11  H   UNL     1     -11.432   7.502  11.959  0.00  0.00    +0.000 HD
ATOM     12  H   UNL     1     -11.602   9.312  13.646  0.00  0.00    +0.000 HD
BRANCH   4  13
ATOM     13  N   UNL     1      -7.975  11.503  11.928  0.00  0.00    +0.000 N 
ATOM     14  H   UNL     1      -7.650  11.905  12.796  0.00  0.00    +0.000 HD
ATOM     15  H   UNL     1      -7.652  11.889  11.051  0.00  0.00    +0.000 HD
ENDBRANCH   4  13
ENDBRANCH   2   3
BRANCH   2  16
ATOM     16  O   UNL     1      -8.290   9.358   8.711  0.00  0.00    +0.000 OA
BRANCH  16  17
ATOM     17  C   UNL     1      -8.633  10.604   8.120  0.00  0.00    +0.000 C 
ATOM     18  H   UNL     1      -7.930  11.374   8.462  0.00  0.00    +0.000 HD
ATOM     19  H   UNL     1      -9.649  10.886   8.423  0.00  0.00    +0.000 HD
BRANCH  17  20
ATOM     20  C   UNL     1      -8.561  10.468   6.606  0.00  0.00    +0.000 C 
ATOM     21  H   UNL     1      -9.574  10.349   6.202  0.00  0.00    +0.000 HD
ATOM     22  H   UNL     1      -8.028   9.544   6.352  0.00  0.00    +0.000 HD
BRANCH  20  23
ATOM     23  C   UNL     1      -7.873  11.668   5.964  0.00  0.00    +0.000 C 
ATOM     24  H   UNL     1      -6.995  11.955   6.556  0.00  0.00    +0.000 HD
ATOM     25  H   UNL     1      -8.554  12.528   5.957  0.00  0.00    +0.000 HD
BRANCH  23  26
ATOM     26  C   UNL     1      -7.436  11.364   4.541  0.00  0.00    +0.000 C 
ATOM     27  H   UNL     1      -7.772  10.369   4.231  0.00  0.00    +0.000 HD
ATOM     28  H   UNL     1      -7.843  12.100   3.839  0.00  0.00    +0.000 HD
ATOM     29  H   UNL     1      -6.344  11.391   4.466  0.00  0.00    +0.000 HD
ENDBRANCH  23  26
ENDBRANCH  20  23
ENDBRANCH  17  20
ENDBRANCH  16  17
ENDBRANCH   2  16
TORSDOF 7
ENDMDL
MODEL 7
REMARK VINA RESULT:    -5.106     18.675     21.071
REMARK INTER + INTRA:          -7.338
REMARK INTER:                  -6.606
REMARK INTRA:                  -0.732
REMARK UNBOUND:                -0.440
REMARK  Name = 24433
REMARK  7 active torsions:
REMARK  status: ('A' for Active; 'I' for Inactive)
REMARK    1  A    between atoms: O_1  and  C_6
REMARK    2  A    between atoms: O_1  and  C_9
REMARK    3  A    between atoms: N_3  and  C_10
REMARK    4  A    between atoms: C_4  and  C_5
REMARK    5  A    between atoms: C_4  and  C_6
REMARK    6  A    between atoms: C_5  and  C_7
REMARK    7  A    between atoms: C_8  and  C_9
REMARK                            x       y       z     vdW  Elec       q    Type
REMARK                         _______ _______ _______ _____ _____    ______ ____
ROOT
ATOM      1  O   UNL     1      -1.327   6.614 -12.721  0.00  0.00    +0.000 OA
ATOM      2  C   UNL     1      -2.121   7.482 -12.392  0.00  0.00    +0.000 C 
ENDROOT
BRANCH   2   3
ATOM      3  C   UNL     1      -2.456   7.786 -10.978  0.00  0.00    +0.000 A 
ATOM      4  C   UNL     1      -2.114   9.005 -10.426  0.00  0.00    +0.000 A 
ATOM      5  C   UNL     1      -3.113   6.813 -10.251  0.00  0.00    +0.000 A 
ATOM      6  C   UNL     1      -2.442   9.262  -9.094  0.00  0.00    +0.000 A 
ATOM      7  C   UNL     1      -3.441   7.069  -8.919  0.00  0.00    +0.000 A 
ATOM      8  C   UNL     1      -3.105   8.293  -8.341  0.00  0.00    +0.000 A 
ATOM      9  H   UNL     1      -3.401   5.856 -10.677  0.00  0.00    +0.000 HD
ATOM     10  H   UNL     1      -2.187  10.212  -8.632  0.00  0.00    +0.000 HD
ATOM     11  H   UNL     1      -3.960   6.317  -8.333  0.00  0.00    +0.000 HD
ATOM     12  H   UNL     1      -3.361   8.493  -7.305  0.00  0.00    +0.000 HD
BRANCH   4  13
ATOM     13  N   UNL     1      -1.443   9.999 -11.172  0.00  0.00    +0.000 N 
ATOM     14  H   UNL     1      -1.831  10.927 -11.270  0.00  0.00    +0.000 HD
ATOM     15  H   UNL     1      -0.568   9.777 -11.630  0.00  0.00    +0.000 HD
ENDBRANCH   4  13
ENDBRANCH   2   3
BRANCH   2  16
ATOM     16  O   UNL     1      -2.815   8.293 -13.239  0.00  0.00    +0.000 OA
BRANCH  16  17
ATOM     17  C   UNL     1      -2.580   8.095 -14.626  0.00  0.00    +0.000 C 
ATOM     18  H   UNL     1      -3.541   8.018 -15.150  0.00  0.00    +0.000 HD
ATOM     19  H   UNL     1      -2.016   7.167 -14.773  0.00  0.00    +0.000 HD
BRANCH  17  20
ATOM     20  C   UNL     1      -1.788   9.278 -15.164  0.00  0.00    +0.000 C 
ATOM     21  H   UNL     1      -1.846  10.110 -14.451  0.00  0.00    +0.000 HD
ATOM     22  H   UNL     1      -2.259   9.640 -16.086  0.00  0.00    +0.000 HD
BRANCH  20  23
ATOM     23  C   UNL     1      -0.331   8.908 -15.426  0.00  0.00    +0.000 C 
ATOM     24  H   UNL     1       0.028   9.421 -16.326  0.00  0.00    +0.000 HD
ATOM     25  H   UNL     1      -0.248   7.831 -15.614  0.00  0.00    +0.000 HD
BRANCH  23  26
ATOM     26  C   UNL     1       0.559   9.282 -14.252  0.00  0.00    +0.000 C 
ATOM     27  H   UNL     1       1.572   8.889 -14.387  0.00  0.00    +0.000 HD
ATOM     28  H   UNL     1       0.623  10.369 -14.139  0.00  0.00    +0.000 HD
ATOM     29  H   UNL     1       0.155   8.867 -13.324  0.00  0.00    +0.000 HD
ENDBRANCH  23  26
ENDBRANCH  20  23
ENDBRANCH  17  20
ENDBRANCH  16  17
ENDBRANCH   2  16
TORSDOF 7
ENDMDL
MODEL 8
REMARK VINA RESULT:    -5.079     20.158     21.716
REMARK INTER + INTRA:          -7.300
REMARK INTER:                  -6.860
REMARK INTRA:                  -0.440
REMARK UNBOUND:                -0.440
REMARK  Name = 24433
REMARK  7 active torsions:
REMARK  status: ('A' for Active; 'I' for Inactive)
REMARK    1  A    between atoms: O_1  and  C_6
REMARK    2  A    between atoms: O_1  and  C_9
REMARK    3  A    between atoms: N_3  and  C_10
REMARK    4  A    between atoms: C_4  and  C_5
REMARK    5  A    between atoms: C_4  and  C_6
REMARK    6  A    between atoms: C_5  and  C_7
REMARK    7  A    between atoms: C_8  and  C_9
REMARK                            x       y       z     vdW  Elec       q    Type
REMARK                         _______ _______ _______ _____ _____    ______ ____
ROOT
ATOM      1  O   UNL     1     -14.755  -5.282  -5.133  0.00  0.00    +0.000 OA
ATOM      2  C   UNL     1     -13.642  -4.864  -4.850  0.00  0.00    +0.000 C 
ENDROOT
BRANCH   2   3
ATOM      3  C   UNL     1     -13.402  -3.521  -4.266  0.00  0.00    +0.000 A 
ATOM      4  C   UNL     1     -13.176  -3.378  -2.911  0.00  0.00    +0.000 A 
ATOM      5  C   UNL     1     -13.415  -2.437  -5.123  0.00  0.00    +0.000 A 
ATOM      6  C   UNL     1     -12.953  -2.103  -2.392  0.00  0.00    +0.000 A 
ATOM      7  C   UNL     1     -13.192  -1.161  -4.604  0.00  0.00    +0.000 A 
ATOM      8  C   UNL     1     -12.961  -0.995  -3.239  0.00  0.00    +0.000 A 
ATOM      9  H   UNL     1     -13.576  -2.536  -6.193  0.00  0.00    +0.000 HD
ATOM     10  H   UNL     1     -12.772  -1.959  -1.330  0.00  0.00    +0.000 HD
ATOM     11  H   UNL     1     -13.195  -0.298  -5.263  0.00  0.00    +0.000 HD
ATOM     12  H   UNL     1     -12.787  -0.002  -2.834  0.00  0.00    +0.000 HD
BRANCH   4  13
ATOM     13  N   UNL     1     -13.163  -4.489  -2.037  0.00  0.00    +0.000 N 
ATOM     14  H   UNL     1     -13.780  -4.527  -1.238  0.00  0.00    +0.000 HD
ATOM     15  H   UNL     1     -12.517  -5.250  -2.203  0.00  0.00    +0.000 HD
ENDBRANCH   4  13
ENDBRANCH   2   3
BRANCH   2  16
ATOM     16  O   UNL     1     -12.469  -5.536  -5.019  0.00  0.00    +0.000 OA
BRANCH  16  17
ATOM     17  C   UNL     1     -12.514  -6.666  -5.878  0.00  0.00    +0.000 C 
ATOM     18  H   UNL     1     -13.242  -6.486  -6.679  0.00  0.00    +0.000 HD
ATOM     19  H   UNL     1     -12.821  -7.549  -5.306  0.00  0.00    +0.000 HD
BRANCH  17  20
ATOM     20  C   UNL     1     -11.130  -6.886  -6.473  0.00  0.00    +0.000 C 
ATOM     21  H   UNL     1     -10.446  -6.115  -6.098  0.00  0.00    +0.000 HD
ATOM     22  H   UNL     1     -11.177  -6.742  -7.559  0.00  0.00    +0.000 HD
BRANCH  20  23
ATOM     23  C   UNL     1     -10.591  -8.276  -6.148  0.00  0.00    +0.000 C 
ATOM     24  H   UNL     1      -9.842  -8.207  -5.350  0.00  0.00    +0.000 HD
ATOM     25  H   UNL     1     -10.088  -8.695  -7.027  0.00  0.00    +0.000 HD
BRANCH  23  26
ATOM     26  C   UNL     1     -11.701  -9.216  -5.708  0.00  0.00    +0.000 C 
ATOM     27  H   UNL     1     -12.610  -9.051  -6.296  0.00  0.00    +0.000 HD
ATOM     28  H   UNL     1     -11.400 -10.262  -5.825  0.00  0.00    +0.000 HD
ATOM     29  H   UNL     1     -11.945  -9.047  -4.655  0.00  0.00    +0.000 HD
ENDBRANCH  23  26
ENDBRANCH  20  23
ENDBRANCH  17  20
ENDBRANCH  16  17
ENDBRANCH   2  16
TORSDOF 7
ENDMDL
MODEL 9
REMARK VINA RESULT:    -5.050     24.128     26.461
REMARK INTER + INTRA:          -7.262
REMARK INTER:                  -6.814
REMARK INTRA:                  -0.448
REMARK UNBOUND:                -0.440
REMARK  Name = 24433
REMARK  7 active torsions:
REMARK  status: ('A' for Active; 'I' for Inactive)
REMARK    1  A    between atoms: O_1  and  C_6
REMARK    2  A    between atoms: O_1  and  C_9
REMARK    3  A    between atoms: N_3  and  C_10
REMARK    4  A    between atoms: C_4  and  C_5
REMARK    5  A    between atoms: C_4  and  C_6
REMARK    6  A    between atoms: C_5  and  C_7
REMARK    7  A    between atoms: C_8  and  C_9
REMARK                            x       y       z     vdW  Elec       q    Type
REMARK                         _______ _______ _______ _____ _____    ______ ____
ROOT
ATOM      1  O   UNL     1      -0.095  -0.839 -14.667  0.00  0.00    +0.000 OA
ATOM      2  C   UNL     1       0.778  -0.845 -13.813  0.00  0.00    +0.000 C 
ENDROOT
BRANCH   2   3
ATOM      3  C   UNL     1       2.226  -0.748 -14.127  0.00  0.00    +0.000 A 
ATOM      4  C   UNL     1       3.111  -1.691 -13.642  0.00  0.00    +0.000 A 
ATOM      5  C   UNL     1       2.641   0.310 -14.912  0.00  0.00    +0.000 A 
ATOM      6  C   UNL     1       4.465  -1.572 -13.955  0.00  0.00    +0.000 A 
ATOM      7  C   UNL     1       3.996   0.429 -15.225  0.00  0.00    +0.000 A 
ATOM      8  C   UNL     1       4.907  -0.512 -14.746  0.00  0.00    +0.000 A 
ATOM      9  H   UNL     1       1.954   1.049 -15.313  0.00  0.00    +0.000 HD
ATOM     10  H   UNL     1       5.186  -2.298 -13.588  0.00  0.00    +0.000 HD
ATOM     11  H   UNL     1       4.341   1.252 -15.844  0.00  0.00    +0.000 HD
ATOM     12  H   UNL     1       5.961  -0.420 -14.990  0.00  0.00    +0.000 HD
BRANCH   4  13
ATOM     13  N   UNL     1       2.682  -2.771 -12.840  0.00  0.00    +0.000 N 
ATOM     14  H   UNL     1       2.223  -3.572 -13.249  0.00  0.00    +0.000 HD
ATOM     15  H   UNL     1       2.822  -2.738 -11.838  0.00  0.00    +0.000 HD
ENDBRANCH   4  13
ENDBRANCH   2   3
BRANCH   2  16
ATOM     16  O   UNL     1       0.580  -0.940 -12.468  0.00  0.00    +0.000 OA
BRANCH  16  17
ATOM     17  C   UNL     1      -0.707  -1.380 -12.056  0.00  0.00    +0.000 C 
ATOM     18  H   UNL     1      -0.613  -2.342 -11.535  0.00  0.00    +0.000 HD
ATOM     19  H   UNL     1      -1.349  -1.510 -12.935  0.00  0.00    +0.000 HD
BRANCH  17  20
ATOM     20  C   UNL     1      -1.306  -0.339 -11.122  0.00  0.00    +0.000 C 
ATOM     21  H   UNL     1      -0.951   0.658 -11.412  0.00  0.00    +0.000 HD
ATOM     22  H   UNL     1      -0.930  -0.506 -10.105  0.00  0.00    +0.000 HD
BRANCH  20  23
ATOM     23  C   UNL     1      -2.831  -0.382 -11.134  0.00  0.00    +0.000 C 
ATOM     24  H   UNL     1      -3.176  -1.179 -11.803  0.00  0.00    +0.000 HD
ATOM     25  H   UNL     1      -3.227   0.563 -11.525  0.00  0.00    +0.000 HD
BRANCH  23  26
ATOM     26  C   UNL     1      -3.393  -0.622  -9.742  0.00  0.00    +0.000 C 
ATOM     27  H   UNL     1      -3.511  -1.693  -9.547  0.00  0.00    +0.000 HD
ATOM     28  H   UNL     1      -2.735  -0.202  -8.975  0.00  0.00    +0.000 HD
ATOM     29  H   UNL     1      -4.376  -0.151  -9.644  0.00  0.00    +0.000 HD
ENDBRANCH  23  26
ENDBRANCH  20  23
ENDBRANCH  17  20
ENDBRANCH  16  17
ENDBRANCH   2  16
TORSDOF 7
ENDMDL
MODEL 10
REMARK VINA RESULT:    -4.937     18.987     21.322
REMARK INTER + INTRA:          -7.109
REMARK INTER:                  -6.578
REMARK INTRA:                  -0.531
REMARK UNBOUND:                -0.440
REMARK  Name = 24433
REMARK  7 active torsions:
REMARK  status: ('A' for Active; 'I' for Inactive)
REMARK    1  A    between atoms: O_1  and  C_6
REMARK    2  A    between atoms: O_1  and  C_9
REMARK    3  A    between atoms: N_3  and  C_10
REMARK    4  A    between atoms: C_4  and  C_5
REMARK    5  A    between atoms: C_4  and  C_6
REMARK    6  A    between atoms: C_5  and  C_7
REMARK    7  A    between atoms: C_8  and  C_9
REMARK                            x       y       z     vdW  Elec       q    Type
REMARK                         _______ _______ _______ _____ _____    ______ ____
ROOT
ATOM      1  O   UNL     1      -2.870   9.459 -13.488  0.00  0.00    +0.000 OA
ATOM      2  C   UNL     1      -2.112   9.470 -12.529  0.00  0.00    +0.000 C 
ENDROOT
BRANCH   2   3
ATOM      3  C   UNL     1      -2.469   8.905 -11.204  0.00  0.00    +0.000 A 
ATOM      4  C   UNL     1      -2.853   7.583 -11.088  0.00  0.00    +0.000 A 
ATOM      5  C   UNL     1      -2.400   9.744 -10.109  0.00  0.00    +0.000 A 
ATOM      6  C   UNL     1      -3.182   7.081  -9.829  0.00  0.00    +0.000 A 
ATOM      7  C   UNL     1      -2.729   9.242  -8.849  0.00  0.00    +0.000 A 
ATOM      8  C   UNL     1      -3.120   7.911  -8.710  0.00  0.00    +0.000 A 
ATOM      9  H   UNL     1      -2.084  10.781 -10.183  0.00  0.00    +0.000 HD
ATOM     10  H   UNL     1      -3.488   6.045  -9.707  0.00  0.00    +0.000 HD
ATOM     11  H   UNL     1      -2.677   9.886  -7.976  0.00  0.00    +0.000 HD
ATOM     12  H   UNL     1      -3.375   7.519  -7.730  0.00  0.00    +0.000 HD
BRANCH   4  13
ATOM     13  N   UNL     1      -2.923   6.727 -12.210  0.00  0.00    +0.000 N 
ATOM     14  H   UNL     1      -3.370   7.026 -13.065  0.00  0.00    +0.000 HD
ATOM     15  H   UNL     1      -2.534   5.794 -12.154  0.00  0.00    +0.000 HD
ENDBRANCH   4  13
ENDBRANCH   2   3
BRANCH   2  16
ATOM     16  O   UNL     1      -0.852   9.988 -12.512  0.00  0.00    +0.000 OA
BRANCH  16  17
ATOM     17  C   UNL     1      -0.367  10.493 -13.748  0.00  0.00    +0.000 C 
ATOM     18  H   UNL     1       0.174  11.431 -13.571  0.00  0.00    +0.000 HD
ATOM     19  H   UNL     1      -1.211  10.687 -14.421  0.00  0.00    +0.000 HD
BRANCH  17  20
ATOM     20  C   UNL     1       0.566   9.462 -14.368  0.00  0.00    +0.000 C 
ATOM     21  H   UNL     1       0.636   8.590 -13.706  0.00  0.00    +0.000 HD
ATOM     22  H   UNL     1       1.579   9.879 -14.422  0.00  0.00    +0.000 HD
BRANCH  20  23
ATOM     23  C   UNL     1       0.095   9.038 -15.756  0.00  0.00    +0.000 C 
ATOM     24  H   UNL     1      -0.810   9.593 -16.028  0.00  0.00    +0.000 HD
ATOM     25  H   UNL     1      -0.168   7.973 -15.750  0.00  0.00    +0.000 HD
BRANCH  23  26
ATOM     26  C   UNL     1       1.165   9.284 -16.806  0.00  0.00    +0.000 C 
ATOM     27  H   UNL     1       0.754   9.823 -17.666  0.00  0.00    +0.000 HD
ATOM     28  H   UNL     1       1.993   9.870 -16.395  0.00  0.00    +0.000 HD
ATOM     29  H   UNL     1       1.568   8.332 -17.166  0.00  0.00    +0.000 HD
ENDBRANCH  23  26
ENDBRANCH  20  23
ENDBRANCH  17  20
ENDBRANCH  16  17
ENDBRANCH   2  16
TORSDOF 7
ENDMDL
