MODEL 1
REMARK VINA RESULT:    -5.134      0.000      0.000
REMARK INTER + INTRA:          -6.081
REMARK INTER:                  -5.908
REMARK INTRA:                  -0.173
REMARK UNBOUND:                -0.197
REMARK  Name = 10106
REMARK  4 active torsions:
REMARK  status: ('A' for Active; 'I' for Inactive)
REMARK    1  A    between atoms: C_2  and  C_8
REMARK    2  A    between atoms: C_3  and  C_9
REMARK    3  A    between atoms: C_8  and  C_10
REMARK    4  A    between atoms: C_8  and  C_11
REMARK                            x       y       z     vdW  Elec       q    Type
REMARK                         _______ _______ _______ _____ _____    ______ ____
ROOT
ATOM      1  O   UNL     1       6.762   7.453   1.201  0.00  0.00    +0.000 OA
ATOM      2  C   UNL     1       6.441   8.088   2.462  0.00  0.00    +0.000 C 
ATOM      3  C   UNL     1       6.882   8.667   0.420  0.00  0.00    +0.000 C 
ATOM      4  C   UNL     1       5.194   8.898   2.084  0.00  0.00    +0.000 C 
ATOM      5  C   UNL     1       7.643   9.020   2.648  0.00  0.00    +0.000 C 
ATOM      6  C   UNL     1       5.507   9.307   0.643  0.00  0.00    +0.000 C 
ATOM      7  C   UNL     1       7.956   9.428   1.207  0.00  0.00    +0.000 C 
ATOM      8  H   UNL     1       5.038   9.766   2.733  0.00  0.00    +0.000 HD
ATOM      9  H   UNL     1       4.272   8.311   2.082  0.00  0.00    +0.000 HD
ATOM     10  H   UNL     1       8.505   8.488   3.067  0.00  0.00    +0.000 HD
ATOM     11  H   UNL     1       7.427   9.881   3.288  0.00  0.00    +0.000 HD
ATOM     12  H   UNL     1       4.754   8.877  -0.028  0.00  0.00    +0.000 HD
ATOM     13  H   UNL     1       5.512  10.392   0.499  0.00  0.00    +0.000 HD
ATOM     14  H   UNL     1       7.910  10.510   1.052  0.00  0.00    +0.000 HD
ATOM     15  H   UNL     1       8.963   9.087   0.943  0.00  0.00    +0.000 HD
ENDROOT
BRANCH   3  16
ATOM     16  C   UNL     1       7.229   8.395  -1.025  0.00  0.00    +0.000 C 
ATOM     17  H   UNL     1       7.107   9.291  -1.640  0.00  0.00    +0.000 HD
ATOM     18  H   UNL     1       8.261   8.043  -1.118  0.00  0.00    +0.000 HD
ATOM     19  H   UNL     1       6.595   7.600  -1.434  0.00  0.00    +0.000 HD
ENDBRANCH   3  16
BRANCH   2  20
ATOM     20  C   UNL     1       6.233   7.091   3.577  0.00  0.00    +0.000 C 
ATOM     21  H   UNL     1       6.824   6.190   3.365  0.00  0.00    +0.000 HD
BRANCH  20  22
ATOM     22  C   UNL     1       6.681   7.666   4.926  0.00  0.00    +0.000 C 
ATOM     23  H   UNL     1       7.596   8.260   4.835  0.00  0.00    +0.000 HD
ATOM     24  H   UNL     1       5.903   8.320   5.336  0.00  0.00    +0.000 HD
ATOM     25  H   UNL     1       6.859   6.872   5.658  0.00  0.00    +0.000 HD
ENDBRANCH  20  22
BRANCH  20  26
ATOM     26  C   UNL     1       4.768   6.647   3.658  0.00  0.00    +0.000 C 
ATOM     27  H   UNL     1       4.616   5.817   4.354  0.00  0.00    +0.000 HD
ATOM     28  H   UNL     1       4.431   6.300   2.675  0.00  0.00    +0.000 HD
ATOM     29  H   UNL     1       4.109   7.471   3.951  0.00  0.00    +0.000 HD
ENDBRANCH  20  26
ENDBRANCH   2  20
TORSDOF 4
ENDMDL
MODEL 2
REMARK VINA RESULT:    -4.993      1.515      2.632
REMARK INTER + INTRA:          -5.920
REMARK INTER:                  -5.726
REMARK INTRA:                  -0.194
REMARK UNBOUND:                -0.197
REMARK  Name = 10106
REMARK  4 active torsions:
REMARK  status: ('A' for Active; 'I' for Inactive)
REMARK    1  A    between atoms: C_2  and  C_8
REMARK    2  A    between atoms: C_3  and  C_9
REMARK    3  A    between atoms: C_8  and  C_10
REMARK    4  A    between atoms: C_8  and  C_11
REMARK                            x       y       z     vdW  Elec       q    Type
REMARK                         _______ _______ _______ _____ _____    ______ ____
ROOT
ATOM      1  O   UNL     1       8.119   9.199   0.558  0.00  0.00    +0.000 OA
ATOM      2  C   UNL     1       6.744   8.747   0.550  0.00  0.00    +0.000 C 
ATOM      3  C   UNL     1       8.172   9.617  -0.829  0.00  0.00    +0.000 C 
ATOM      4  C   UNL     1       6.772   7.707  -0.577  0.00  0.00    +0.000 C 
ATOM      5  C   UNL     1       6.011  10.012   0.088  0.00  0.00    +0.000 C 
ATOM      6  C   UNL     1       7.781   8.322  -1.550  0.00  0.00    +0.000 C 
ATOM      7  C   UNL     1       7.020  10.626  -0.884  0.00  0.00    +0.000 C 
ATOM      8  H   UNL     1       5.792   7.557  -1.041  0.00  0.00    +0.000 HD
ATOM      9  H   UNL     1       7.149   6.730  -0.264  0.00  0.00    +0.000 HD
ATOM     10  H   UNL     1       5.841  10.706   0.918  0.00  0.00    +0.000 HD
ATOM     11  H   UNL     1       5.047   9.803  -0.387  0.00  0.00    +0.000 HD
ATOM     12  H   UNL     1       8.639   7.650  -1.655  0.00  0.00    +0.000 HD
ATOM     13  H   UNL     1       7.360   8.498  -2.545  0.00  0.00    +0.000 HD
ATOM     14  H   UNL     1       6.614  10.755  -1.893  0.00  0.00    +0.000 HD
ATOM     15  H   UNL     1       7.330  11.609  -0.513  0.00  0.00    +0.000 HD
ENDROOT
BRANCH   3  16
ATOM     16  C   UNL     1       9.523  10.175  -1.214  0.00  0.00    +0.000 C 
ATOM     17  H   UNL     1       9.429  11.160  -1.680  0.00  0.00    +0.000 HD
ATOM     18  H   UNL     1      10.173  10.262  -0.337  0.00  0.00    +0.000 HD
ATOM     19  H   UNL     1      10.036   9.505  -1.912  0.00  0.00    +0.000 HD
ENDBRANCH   3  16
BRANCH   2  20
ATOM     20  C   UNL     1       6.302   8.214   1.893  0.00  0.00    +0.000 C 
ATOM     21  H   UNL     1       6.256   7.118   1.844  0.00  0.00    +0.000 HD
BRANCH  20  22
ATOM     22  C   UNL     1       7.283   8.617   3.000  0.00  0.00    +0.000 C 
ATOM     23  H   UNL     1       8.182   9.093   2.597  0.00  0.00    +0.000 HD
ATOM     24  H   UNL     1       6.811   9.331   3.684  0.00  0.00    +0.000 HD
ATOM     25  H   UNL     1       7.590   7.750   3.594  0.00  0.00    +0.000 HD
ENDBRANCH  20  22
BRANCH  20  26
ATOM     26  C   UNL     1       4.889   8.698   2.244  0.00  0.00    +0.000 C 
ATOM     27  H   UNL     1       4.878   9.385   3.095  0.00  0.00    +0.000 HD
ATOM     28  H   UNL     1       4.263   7.842   2.520  0.00  0.00    +0.000 HD
ATOM     29  H   UNL     1       4.405   9.189   1.394  0.00  0.00    +0.000 HD
ENDBRANCH  20  26
ENDBRANCH   2  20
TORSDOF 4
ENDMDL
MODEL 3
REMARK VINA RESULT:    -4.946     14.853     15.935
REMARK INTER + INTRA:          -5.865
REMARK INTER:                  -5.694
REMARK INTRA:                  -0.172
REMARK UNBOUND:                -0.197
REMARK  Name = 10106
REMARK  4 active torsions:
REMARK  status: ('A' for Active; 'I' for Inactive)
REMARK    1  A    between atoms: C_2  and  C_8
REMARK    2  A    between atoms: C_3  and  C_9
REMARK    3  A    between atoms: C_8  and  C_10
REMARK    4  A    between atoms: C_8  and  C_11
REMARK                            x       y       z     vdW  Elec       q    Type
REMARK                         _______ _______ _______ _____ _____    ______ ____
ROOT
ATOM      1  O   UNL     1      -1.704   7.906 -11.576  0.00  0.00    +0.000 OA
ATOM      2  C   UNL     1      -2.922   8.121 -10.823  0.00  0.00    +0.000 C 
ATOM      3  C   UNL     1      -1.416   9.301 -11.842  0.00  0.00    +0.000 C 
ATOM      4  C   UNL     1      -3.765   8.912 -11.830  0.00  0.00    +0.000 C 
ATOM      5  C   UNL     1      -2.429   9.043  -9.703  0.00  0.00    +0.000 C 
ATOM      6  C   UNL     1      -2.702   9.745 -12.549  0.00  0.00    +0.000 C 
ATOM      7  C   UNL     1      -1.365   9.875 -10.422  0.00  0.00    +0.000 C 
ATOM      8  H   UNL     1      -4.524   9.539 -11.350  0.00  0.00    +0.000 HD
ATOM      9  H   UNL     1      -4.269   8.285 -12.571  0.00  0.00    +0.000 HD
ATOM     10  H   UNL     1      -1.957   8.477  -8.892  0.00  0.00    +0.000 HD
ATOM     11  H   UNL     1      -3.222   9.661  -9.272  0.00  0.00    +0.000 HD
ATOM     12  H   UNL     1      -2.686   9.475 -13.611  0.00  0.00    +0.000 HD
ATOM     13  H   UNL     1      -2.881  10.822 -12.473  0.00  0.00    +0.000 HD
ATOM     14  H   UNL     1      -1.572  10.949 -10.389  0.00  0.00    +0.000 HD
ATOM     15  H   UNL     1      -0.389   9.700  -9.954  0.00  0.00    +0.000 HD
ENDROOT
BRANCH   3  16
ATOM     16  C   UNL     1      -0.152   9.487 -12.648  0.00  0.00    +0.000 C 
ATOM     17  H   UNL     1       0.259  10.493 -12.517  0.00  0.00    +0.000 HD
ATOM     18  H   UNL     1       0.609   8.757 -12.354  0.00  0.00    +0.000 HD
ATOM     19  H   UNL     1      -0.341   9.322 -13.714  0.00  0.00    +0.000 HD
ENDBRANCH   3  16
BRANCH   2  20
ATOM     20  C   UNL     1      -3.547   6.829 -10.351  0.00  0.00    +0.000 C 
ATOM     21  H   UNL     1      -2.954   5.986 -10.730  0.00  0.00    +0.000 HD
BRANCH  20  22
ATOM     22  C   UNL     1      -3.581   6.757  -8.820  0.00  0.00    +0.000 C 
ATOM     23  H   UNL     1      -4.089   5.855  -8.464  0.00  0.00    +0.000 HD
ATOM     24  H   UNL     1      -2.562   6.742  -8.418  0.00  0.00    +0.000 HD
ATOM     25  H   UNL     1      -4.088   7.627  -8.392  0.00  0.00    +0.000 HD
ENDBRANCH  20  22
BRANCH  20  26
ATOM     26  C   UNL     1      -4.963   6.660 -10.915  0.00  0.00    +0.000 C 
ATOM     27  H   UNL     1      -5.607   6.058 -10.266  0.00  0.00    +0.000 HD
ATOM     28  H   UNL     1      -4.918   6.145 -11.881  0.00  0.00    +0.000 HD
ATOM     29  H   UNL     1      -5.450   7.625 -11.087  0.00  0.00    +0.000 HD
ENDBRANCH  20  26
ENDBRANCH   2  20
TORSDOF 4
ENDMDL
MODEL 4
REMARK VINA RESULT:    -4.933      1.811      3.413
REMARK INTER + INTRA:          -5.851
REMARK INTER:                  -5.649
REMARK INTRA:                  -0.202
REMARK UNBOUND:                -0.197
REMARK  Name = 10106
REMARK  4 active torsions:
REMARK  status: ('A' for Active; 'I' for Inactive)
REMARK    1  A    between atoms: C_2  and  C_8
REMARK    2  A    between atoms: C_3  and  C_9
REMARK    3  A    between atoms: C_8  and  C_10
REMARK    4  A    between atoms: C_8  and  C_11
REMARK                            x       y       z     vdW  Elec       q    Type
REMARK                         _______ _______ _______ _____ _____    ______ ____
ROOT
ATOM      1  O   UNL     1       5.400  10.406   1.055  0.00  0.00    +0.000 OA
ATOM      2  C   UNL     1       5.591   9.015   1.408  0.00  0.00    +0.000 C 
ATOM      3  C   UNL     1       3.966  10.339   0.857  0.00  0.00    +0.000 C 
ATOM      4  C   UNL     1       5.006   8.307   0.179  0.00  0.00    +0.000 C 
ATOM      5  C   UNL     1       4.643   8.871   2.604  0.00  0.00    +0.000 C 
ATOM      6  C   UNL     1       3.859   9.243  -0.209  0.00  0.00    +0.000 C 
ATOM      7  C   UNL     1       3.497   9.807   2.216  0.00  0.00    +0.000 C 
ATOM      8  H   UNL     1       4.654   7.294   0.399  0.00  0.00    +0.000 HD
ATOM      9  H   UNL     1       5.699   8.245  -0.664  0.00  0.00    +0.000 HD
ATOM     10  H   UNL     1       5.105   9.231   3.530  0.00  0.00    +0.000 HD
ATOM     11  H   UNL     1       4.306   7.843   2.767  0.00  0.00    +0.000 HD
ATOM     12  H   UNL     1       4.042   9.644  -1.213  0.00  0.00    +0.000 HD
ATOM     13  H   UNL     1       2.885   8.744  -0.213  0.00  0.00    +0.000 HD
ATOM     14  H   UNL     1       2.531   9.296   2.163  0.00  0.00    +0.000 HD
ATOM     15  H   UNL     1       3.418  10.612   2.956  0.00  0.00    +0.000 HD
ENDROOT
BRANCH   3  16
ATOM     16  C   UNL     1       3.374  11.671   0.459  0.00  0.00    +0.000 C 
ATOM     17  H   UNL     1       3.894  12.501   0.949  0.00  0.00    +0.000 HD
ATOM     18  H   UNL     1       3.430  11.814  -0.625  0.00  0.00    +0.000 HD
ATOM     19  H   UNL     1       2.312  11.720   0.721  0.00  0.00    +0.000 HD
ENDBRANCH   3  16
BRANCH   2  20
ATOM     20  C   UNL     1       7.036   8.684   1.700  0.00  0.00    +0.000 C 
ATOM     21  H   UNL     1       7.262   7.688   1.299  0.00  0.00    +0.000 HD
BRANCH  20  22
ATOM     22  C   UNL     1       7.980   9.703   1.051  0.00  0.00    +0.000 C 
ATOM     23  H   UNL     1       7.519  10.692   0.967  0.00  0.00    +0.000 HD
ATOM     24  H   UNL     1       8.890   9.813   1.652  0.00  0.00    +0.000 HD
ATOM     25  H   UNL     1       8.286   9.381   0.051  0.00  0.00    +0.000 HD
ENDBRANCH  20  22
BRANCH  20  26
ATOM     26  C   UNL     1       7.294   8.619   3.211  0.00  0.00    +0.000 C 
ATOM     27  H   UNL     1       8.090   7.915   3.473  0.00  0.00    +0.000 HD
ATOM     28  H   UNL     1       6.389   8.279   3.727  0.00  0.00    +0.000 HD
ATOM     29  H   UNL     1       7.549   9.601   3.622  0.00  0.00    +0.000 HD
ENDBRANCH  20  26
ENDBRANCH   2  20
TORSDOF 4
ENDMDL
MODEL 5
REMARK VINA RESULT:    -4.875     14.723     16.033
REMARK INTER + INTRA:          -5.785
REMARK INTER:                  -5.613
REMARK INTRA:                  -0.172
REMARK UNBOUND:                -0.197
REMARK  Name = 10106
REMARK  4 active torsions:
REMARK  status: ('A' for Active; 'I' for Inactive)
REMARK    1  A    between atoms: C_2  and  C_8
REMARK    2  A    between atoms: C_3  and  C_9
REMARK    3  A    between atoms: C_8  and  C_10
REMARK    4  A    between atoms: C_8  and  C_11
REMARK                            x       y       z     vdW  Elec       q    Type
REMARK                         _______ _______ _______ _____ _____    ______ ____
ROOT
ATOM      1  O   UNL     1      -1.107   8.725 -11.371  0.00  0.00    +0.000 OA
ATOM      2  C   UNL     1      -2.400   8.241 -10.933  0.00  0.00    +0.000 C 
ATOM      3  C   UNL     1      -1.330   8.555 -12.792  0.00  0.00    +0.000 C 
ATOM      4  C   UNL     1      -2.426   6.840 -11.556  0.00  0.00    +0.000 C 
ATOM      5  C   UNL     1      -3.347   9.177 -11.692  0.00  0.00    +0.000 C 
ATOM      6  C   UNL     1      -1.671   7.063 -12.869  0.00  0.00    +0.000 C 
ATOM      7  C   UNL     1      -2.592   9.400 -13.003  0.00  0.00    +0.000 C 
ATOM      8  H   UNL     1      -3.442   6.468 -11.724  0.00  0.00    +0.000 HD
ATOM      9  H   UNL     1      -1.887   6.089 -10.973  0.00  0.00    +0.000 HD
ATOM     10  H   UNL     1      -3.465  10.137 -11.176  0.00  0.00    +0.000 HD
ATOM     11  H   UNL     1      -4.342   8.750 -11.850  0.00  0.00    +0.000 HD
ATOM     12  H   UNL     1      -0.764   6.447 -12.874  0.00  0.00    +0.000 HD
ATOM     13  H   UNL     1      -2.265   6.805 -13.751  0.00  0.00    +0.000 HD
ATOM     14  H   UNL     1      -3.167   9.094 -13.882  0.00  0.00    +0.000 HD
ATOM     15  H   UNL     1      -2.349  10.464 -13.106  0.00  0.00    +0.000 HD
ENDROOT
BRANCH   3  16
ATOM     16  C   UNL     1      -0.139   8.978 -13.619  0.00  0.00    +0.000 C 
ATOM     17  H   UNL     1      -0.098   8.433 -14.567  0.00  0.00    +0.000 HD
ATOM     18  H   UNL     1      -0.173  10.051 -13.833  0.00  0.00    +0.000 HD
ATOM     19  H   UNL     1       0.795   8.803 -13.075  0.00  0.00    +0.000 HD
ENDBRANCH   3  16
BRANCH   2  20
ATOM     20  C   UNL     1      -2.551   8.269  -9.430  0.00  0.00    +0.000 C 
ATOM     21  H   UNL     1      -1.585   8.023  -8.970  0.00  0.00    +0.000 HD
BRANCH  20  22
ATOM     22  C   UNL     1      -2.990   9.654  -8.942  0.00  0.00    +0.000 C 
ATOM     23  H   UNL     1      -2.297  10.439  -9.261  0.00  0.00    +0.000 HD
ATOM     24  H   UNL     1      -3.978   9.903  -9.346  0.00  0.00    +0.000 HD
ATOM     25  H   UNL     1      -3.066   9.686  -7.851  0.00  0.00    +0.000 HD
ENDBRANCH  20  22
BRANCH  20  26
ATOM     26  C   UNL     1      -3.549   7.206  -8.954  0.00  0.00    +0.000 C 
ATOM     27  H   UNL     1      -4.279   7.601  -8.241  0.00  0.00    +0.000 HD
ATOM     28  H   UNL     1      -3.014   6.398  -8.442  0.00  0.00    +0.000 HD
ATOM     29  H   UNL     1      -4.090   6.753  -9.791  0.00  0.00    +0.000 HD
ENDBRANCH  20  26
ENDBRANCH   2  20
TORSDOF 4
ENDMDL
MODEL 6
REMARK VINA RESULT:    -4.792      2.195      3.409
REMARK INTER + INTRA:          -5.690
REMARK INTER:                  -5.493
REMARK INTRA:                  -0.197
REMARK UNBOUND:                -0.197
REMARK  Name = 10106
REMARK  4 active torsions:
REMARK  status: ('A' for Active; 'I' for Inactive)
REMARK    1  A    between atoms: C_2  and  C_8
REMARK    2  A    between atoms: C_3  and  C_9
REMARK    3  A    between atoms: C_8  and  C_10
REMARK    4  A    between atoms: C_8  and  C_11
REMARK                            x       y       z     vdW  Elec       q    Type
REMARK                         _______ _______ _______ _____ _____    ______ ____
ROOT
ATOM      1  O   UNL     1       6.473  10.073  -0.671  0.00  0.00    +0.000 OA
ATOM      2  C   UNL     1       5.877   9.023   0.128  0.00  0.00    +0.000 C 
ATOM      3  C   UNL     1       7.834   9.580  -0.618  0.00  0.00    +0.000 C 
ATOM      4  C   UNL     1       6.694   9.128   1.422  0.00  0.00    +0.000 C 
ATOM      5  C   UNL     1       6.286   7.773  -0.658  0.00  0.00    +0.000 C 
ATOM      6  C   UNL     1       8.076   9.520   0.895  0.00  0.00    +0.000 C 
ATOM      7  C   UNL     1       7.667   8.167  -1.186  0.00  0.00    +0.000 C 
ATOM      8  H   UNL     1       6.720   8.189   1.985  0.00  0.00    +0.000 HD
ATOM      9  H   UNL     1       6.348   9.913   2.099  0.00  0.00    +0.000 HD
ATOM     10  H   UNL     1       5.614   7.591  -1.505  0.00  0.00    +0.000 HD
ATOM     11  H   UNL     1       6.316   6.868  -0.045  0.00  0.00    +0.000 HD
ATOM     12  H   UNL     1       8.350  10.503   1.294  0.00  0.00    +0.000 HD
ATOM     13  H   UNL     1       8.857   8.807   1.175  0.00  0.00    +0.000 HD
ATOM     14  H   UNL     1       8.456   7.481  -0.863  0.00  0.00    +0.000 HD
ATOM     15  H   UNL     1       7.648   8.174  -2.282  0.00  0.00    +0.000 HD
ENDROOT
BRANCH   3  16
ATOM     16  C   UNL     1       8.798  10.460  -1.380  0.00  0.00    +0.000 C 
ATOM     17  H   UNL     1       8.557  10.484  -2.447  0.00  0.00    +0.000 HD
ATOM     18  H   UNL     1       8.781  11.484  -0.993  0.00  0.00    +0.000 HD
ATOM     19  H   UNL     1       9.827  10.104  -1.261  0.00  0.00    +0.000 HD
ENDBRANCH   3  16
BRANCH   2  20
ATOM     20  C   UNL     1       4.388   9.203   0.304  0.00  0.00    +0.000 C 
ATOM     21  H   UNL     1       3.868   8.362  -0.173  0.00  0.00    +0.000 HD
BRANCH  20  22
ATOM     22  C   UNL     1       4.005   9.239   1.788  0.00  0.00    +0.000 C 
ATOM     23  H   UNL     1       4.877   9.121   2.439  0.00  0.00    +0.000 HD
ATOM     24  H   UNL     1       3.536  10.198   2.036  0.00  0.00    +0.000 HD
ATOM     25  H   UNL     1       3.285   8.452   2.033  0.00  0.00    +0.000 HD
ENDBRANCH  20  22
BRANCH  20  26
ATOM     26  C   UNL     1       3.897  10.477  -0.394  0.00  0.00    +0.000 C 
ATOM     27  H   UNL     1       2.866  10.394  -0.750  0.00  0.00    +0.000 HD
ATOM     28  H   UNL     1       4.519  10.680  -1.273  0.00  0.00    +0.000 HD
ATOM     29  H   UNL     1       3.969  11.352   0.260  0.00  0.00    +0.000 HD
ENDBRANCH  20  26
ENDBRANCH   2  20
TORSDOF 4
ENDMDL
MODEL 7
REMARK VINA RESULT:    -4.744     17.146     18.455
REMARK INTER + INTRA:          -5.635
REMARK INTER:                  -5.440
REMARK INTRA:                  -0.195
REMARK UNBOUND:                -0.197
REMARK  Name = 10106
REMARK  4 active torsions:
REMARK  status: ('A' for Active; 'I' for Inactive)
REMARK    1  A    between atoms: C_2  and  C_8
REMARK    2  A    between atoms: C_3  and  C_9
REMARK    3  A    between atoms: C_8  and  C_10
REMARK    4  A    between atoms: C_8  and  C_11
REMARK                            x       y       z     vdW  Elec       q    Type
REMARK                         _______ _______ _______ _____ _____    ______ ____
ROOT
ATOM      1  O   UNL     1     -10.514   5.649  -5.221  0.00  0.00    +0.000 OA
ATOM      2  C   UNL     1      -9.692   6.706  -5.771  0.00  0.00    +0.000 C 
ATOM      3  C   UNL     1      -9.651   4.547  -5.593  0.00  0.00    +0.000 C 
ATOM      4  C   UNL     1      -9.575   6.268  -7.236  0.00  0.00    +0.000 C 
ATOM      5  C   UNL     1      -8.366   6.472  -5.039  0.00  0.00    +0.000 C 
ATOM      6  C   UNL     1      -9.545   4.743  -7.110  0.00  0.00    +0.000 C 
ATOM      7  C   UNL     1      -8.338   4.948  -4.912  0.00  0.00    +0.000 C 
ATOM      8  H   UNL     1      -8.676   6.658  -7.725  0.00  0.00    +0.000 HD
ATOM      9  H   UNL     1     -10.436   6.546  -7.849  0.00  0.00    +0.000 HD
ATOM     10  H   UNL     1      -8.374   6.917  -4.037  0.00  0.00    +0.000 HD
ATOM     11  H   UNL     1      -7.499   6.862  -5.580  0.00  0.00    +0.000 HD
ATOM     12  H   UNL     1     -10.413   4.320  -7.628  0.00  0.00    +0.000 HD
ATOM     13  H   UNL     1      -8.641   4.298  -7.536  0.00  0.00    +0.000 HD
ATOM     14  H   UNL     1      -7.459   4.498  -5.383  0.00  0.00    +0.000 HD
ATOM     15  H   UNL     1      -8.336   4.671  -3.851  0.00  0.00    +0.000 HD
ENDROOT
BRANCH   3  16
ATOM     16  C   UNL     1     -10.205   3.208  -5.164  0.00  0.00    +0.000 C 
ATOM     17  H   UNL     1     -11.299   3.220  -5.134  0.00  0.00    +0.000 HD
ATOM     18  H   UNL     1      -9.882   2.415  -5.847  0.00  0.00    +0.000 HD
ATOM     19  H   UNL     1      -9.830   2.931  -4.173  0.00  0.00    +0.000 HD
ENDBRANCH   3  16
BRANCH   2  20
ATOM     20  C   UNL     1     -10.296   8.076  -5.566  0.00  0.00    +0.000 C 
ATOM     21  H   UNL     1      -9.732   8.601  -4.785  0.00  0.00    +0.000 HD
BRANCH  20  22
ATOM     22  C   UNL     1     -10.240   8.904  -6.855  0.00  0.00    +0.000 C 
ATOM     23  H   UNL     1      -9.797   8.343  -7.684  0.00  0.00    +0.000 HD
ATOM     24  H   UNL     1     -11.250   9.200  -7.160  0.00  0.00    +0.000 HD
ATOM     25  H   UNL     1      -9.660   9.822  -6.714  0.00  0.00    +0.000 HD
ENDBRANCH  20  22
BRANCH  20  26
ATOM     26  C   UNL     1     -11.744   7.975  -5.072  0.00  0.00    +0.000 C 
ATOM     27  H   UNL     1     -11.921   7.084  -4.463  0.00  0.00    +0.000 HD
ATOM     28  H   UNL     1     -12.424   7.910  -5.930  0.00  0.00    +0.000 HD
ATOM     29  H   UNL     1     -12.039   8.856  -4.494  0.00  0.00    +0.000 HD
ENDBRANCH  20  26
ENDBRANCH   2  20
TORSDOF 4
ENDMDL
MODEL 8
REMARK VINA RESULT:    -4.716     14.637     16.363
REMARK INTER + INTRA:          -5.602
REMARK INTER:                  -5.422
REMARK INTRA:                  -0.180
REMARK UNBOUND:                -0.197
REMARK  Name = 10106
REMARK  4 active torsions:
REMARK  status: ('A' for Active; 'I' for Inactive)
REMARK    1  A    between atoms: C_2  and  C_8
REMARK    2  A    between atoms: C_3  and  C_9
REMARK    3  A    between atoms: C_8  and  C_10
REMARK    4  A    between atoms: C_8  and  C_11
REMARK                            x       y       z     vdW  Elec       q    Type
REMARK                         _______ _______ _______ _____ _____    ______ ____
ROOT
ATOM      1  O   UNL     1      -1.561   8.009 -11.372  0.00  0.00    +0.000 OA
ATOM      2  C   UNL     1      -1.498   9.398 -11.779  0.00  0.00    +0.000 C 
ATOM      3  C   UNL     1      -2.674   8.147 -10.456  0.00  0.00    +0.000 C 
ATOM      4  C   UNL     1      -1.314  10.101 -10.429  0.00  0.00    +0.000 C 
ATOM      5  C   UNL     1      -2.920   9.624 -12.306  0.00  0.00    +0.000 C 
ATOM      6  C   UNL     1      -2.145   9.218  -9.495  0.00  0.00    +0.000 C 
ATOM      7  C   UNL     1      -3.749   8.740 -11.373  0.00  0.00    +0.000 C 
ATOM      8  H   UNL     1      -1.668  11.137 -10.438  0.00  0.00    +0.000 HD
ATOM      9  H   UNL     1      -0.281  10.103 -10.072  0.00  0.00    +0.000 HD
ATOM     10  H   UNL     1      -3.030   9.265 -13.336  0.00  0.00    +0.000 HD
ATOM     11  H   UNL     1      -3.230  10.673 -12.274  0.00  0.00    +0.000 HD
ATOM     12  H   UNL     1      -1.490   8.781  -8.732  0.00  0.00    +0.000 HD
ATOM     13  H   UNL     1      -2.942   9.768  -8.987  0.00  0.00    +0.000 HD
ATOM     14  H   UNL     1      -4.514   9.300 -10.826  0.00  0.00    +0.000 HD
ATOM     15  H   UNL     1      -4.250   7.962 -11.960  0.00  0.00    +0.000 HD
ENDROOT
BRANCH   3  16
ATOM     16  C   UNL     1      -3.050   6.838  -9.802  0.00  0.00    +0.000 C 
ATOM     17  H   UNL     1      -2.177   6.192  -9.670  0.00  0.00    +0.000 HD
ATOM     18  H   UNL     1      -3.510   7.009  -8.823  0.00  0.00    +0.000 HD
ATOM     19  H   UNL     1      -3.795   6.303 -10.401  0.00  0.00    +0.000 HD
ENDBRANCH   3  16
BRANCH   2  20
ATOM     20  C   UNL     1      -0.401   9.658 -12.784  0.00  0.00    +0.000 C 
ATOM     21  H   UNL     1       0.569   9.625 -12.270  0.00  0.00    +0.000 HD
BRANCH  20  22
ATOM     22  C   UNL     1      -0.405   8.603 -13.896  0.00  0.00    +0.000 C 
ATOM     23  H   UNL     1      -1.398   8.477 -14.338  0.00  0.00    +0.000 HD
ATOM     24  H   UNL     1       0.279   8.896 -14.700  0.00  0.00    +0.000 HD
ATOM     25  H   UNL     1      -0.070   7.630 -13.522  0.00  0.00    +0.000 HD
ENDBRANCH  20  22
BRANCH  20  26
ATOM     26  C   UNL     1      -0.529  11.060 -13.393  0.00  0.00    +0.000 C 
ATOM     27  H   UNL     1       0.440  11.546 -13.541  0.00  0.00    +0.000 HD
ATOM     28  H   UNL     1      -1.105  11.705 -12.720  0.00  0.00    +0.000 HD
ATOM     29  H   UNL     1      -1.057  11.040 -14.351  0.00  0.00    +0.000 HD
ENDBRANCH  20  26
ENDBRANCH   2  20
TORSDOF 4
ENDMDL
MODEL 9
REMARK VINA RESULT:    -4.640     29.117     29.901
REMARK INTER + INTRA:          -5.515
REMARK INTER:                  -5.316
REMARK INTRA:                  -0.199
REMARK UNBOUND:                -0.197
REMARK  Name = 10106
REMARK  4 active torsions:
REMARK  status: ('A' for Active; 'I' for Inactive)
REMARK    1  A    between atoms: C_2  and  C_8
REMARK    2  A    between atoms: C_3  and  C_9
REMARK    3  A    between atoms: C_8  and  C_10
REMARK    4  A    between atoms: C_8  and  C_11
REMARK                            x       y       z     vdW  Elec       q    Type
REMARK                         _______ _______ _______ _____ _____    ______ ____
ROOT
ATOM      1  O   UNL     1     -20.125  -3.167   5.799  0.00  0.00    +0.000 OA
ATOM      2  C   UNL     1     -20.895  -3.685   4.688  0.00  0.00    +0.000 C 
ATOM      3  C   UNL     1     -20.995  -2.050   6.107  0.00  0.00    +0.000 C 
ATOM      4  C   UNL     1     -20.952  -2.463   3.763  0.00  0.00    +0.000 C 
ATOM      5  C   UNL     1     -22.260  -3.917   5.345  0.00  0.00    +0.000 C 
ATOM      6  C   UNL     1     -21.023  -1.309   4.766  0.00  0.00    +0.000 C 
ATOM      7  C   UNL     1     -22.330  -2.764   6.348  0.00  0.00    +0.000 C 
ATOM      8  H   UNL     1     -21.816  -2.478   3.091  0.00  0.00    +0.000 HD
ATOM      9  H   UNL     1     -20.055  -2.332   3.152  0.00  0.00    +0.000 HD
ATOM     10  H   UNL     1     -22.290  -4.870   5.887  0.00  0.00    +0.000 HD
ATOM     11  H   UNL     1     -23.090  -3.903   4.633  0.00  0.00    +0.000 HD
ATOM     12  H   UNL     1     -20.141  -0.670   4.646  0.00  0.00    +0.000 HD
ATOM     13  H   UNL     1     -21.915  -0.689   4.639  0.00  0.00    +0.000 HD
ATOM     14  H   UNL     1     -23.196  -2.114   6.189  0.00  0.00    +0.000 HD
ATOM     15  H   UNL     1     -22.390  -3.170   7.364  0.00  0.00    +0.000 HD
ENDROOT
BRANCH   3  16
ATOM     16  C   UNL     1     -20.494  -1.232   7.274  0.00  0.00    +0.000 C 
ATOM     17  H   UNL     1     -19.482  -0.858   7.094  0.00  0.00    +0.000 HD
ATOM     18  H   UNL     1     -21.154  -0.379   7.464  0.00  0.00    +0.000 HD
ATOM     19  H   UNL     1     -20.490  -1.827   8.194  0.00  0.00    +0.000 HD
ENDBRANCH   3  16
BRANCH   2  20
ATOM     20  C   UNL     1     -20.270  -4.916   4.073  0.00  0.00    +0.000 C 
ATOM     21  H   UNL     1     -20.993  -5.741   4.112  0.00  0.00    +0.000 HD
BRANCH  20  22
ATOM     22  C   UNL     1     -19.884  -4.669   2.610  0.00  0.00    +0.000 C 
ATOM     23  H   UNL     1     -19.821  -5.601   2.040  0.00  0.00    +0.000 HD
ATOM     24  H   UNL     1     -20.633  -4.034   2.122  0.00  0.00    +0.000 HD
ATOM     25  H   UNL     1     -18.921  -4.154   2.534  0.00  0.00    +0.000 HD
ENDBRANCH  20  22
BRANCH  20  26
ATOM     26  C   UNL     1     -19.040  -5.369   4.869  0.00  0.00    +0.000 C 
ATOM     27  H   UNL     1     -18.891  -4.787   5.784  0.00  0.00    +0.000 HD
ATOM     28  H   UNL     1     -18.137  -5.239   4.261  0.00  0.00    +0.000 HD
ATOM     29  H   UNL     1     -19.097  -6.428   5.137  0.00  0.00    +0.000 HD
ENDBRANCH  20  26
ENDBRANCH   2  20
TORSDOF 4
ENDMDL
MODEL 10
REMARK VINA RESULT:    -4.595     28.742     30.309
REMARK INTER + INTRA:          -5.463
REMARK INTER:                  -5.266
REMARK INTRA:                  -0.197
REMARK UNBOUND:                -0.197
REMARK  Name = 10106
REMARK  4 active torsions:
REMARK  status: ('A' for Active; 'I' for Inactive)
REMARK    1  A    between atoms: C_2  and  C_8
REMARK    2  A    between atoms: C_3  and  C_9
REMARK    3  A    between atoms: C_8  and  C_10
REMARK    4  A    between atoms: C_8  and  C_11
REMARK                            x       y       z     vdW  Elec       q    Type
REMARK                         _______ _______ _______ _____ _____    ______ ____
ROOT
ATOM      1  O   UNL     1     -22.397  -1.491   5.652  0.00  0.00    +0.000 OA
ATOM      2  C   UNL     1     -21.921  -1.684   7.006  0.00  0.00    +0.000 C 
ATOM      3  C   UNL     1     -21.100  -1.515   5.007  0.00  0.00    +0.000 C 
ATOM      4  C   UNL     1     -20.953  -0.505   7.158  0.00  0.00    +0.000 C 
ATOM      5  C   UNL     1     -21.142  -2.997   6.870  0.00  0.00    +0.000 C 
ATOM      6  C   UNL     1     -20.373  -0.387   5.747  0.00  0.00    +0.000 C 
ATOM      7  C   UNL     1     -20.563  -2.879   5.459  0.00  0.00    +0.000 C 
ATOM      8  H   UNL     1     -20.176  -0.686   7.908  0.00  0.00    +0.000 HD
ATOM      9  H   UNL     1     -21.445   0.439   7.407  0.00  0.00    +0.000 HD
ATOM     10  H   UNL     1     -21.807  -3.867   6.916  0.00  0.00    +0.000 HD
ATOM     11  H   UNL     1     -20.366  -3.119   7.631  0.00  0.00    +0.000 HD
ATOM     12  H   UNL     1     -20.630   0.594   5.330  0.00  0.00    +0.000 HD
ATOM     13  H   UNL     1     -19.284  -0.492   5.724  0.00  0.00    +0.000 HD
ATOM     14  H   UNL     1     -19.470  -2.933   5.442  0.00  0.00    +0.000 HD
ATOM     15  H   UNL     1     -20.956  -3.690   4.836  0.00  0.00    +0.000 HD
ENDROOT
BRANCH   3  16
ATOM     16  C   UNL     1     -21.194  -1.336   3.510  0.00  0.00    +0.000 C 
ATOM     17  H   UNL     1     -20.287  -0.876   3.106  0.00  0.00    +0.000 HD
ATOM     18  H   UNL     1     -21.352  -2.297   3.011  0.00  0.00    +0.000 HD
ATOM     19  H   UNL     1     -22.052  -0.708   3.246  0.00  0.00    +0.000 HD
ENDBRANCH   3  16
BRANCH   2  20
ATOM     20  C   UNL     1     -23.045  -1.715   8.016  0.00  0.00    +0.000 C 
ATOM     21  H   UNL     1     -23.089  -2.714   8.469  0.00  0.00    +0.000 HD
BRANCH  20  22
ATOM     22  C   UNL     1     -22.821  -0.680   9.125  0.00  0.00    +0.000 C 
ATOM     23  H   UNL     1     -22.901  -1.125  10.122  0.00  0.00    +0.000 HD
ATOM     24  H   UNL     1     -21.820  -0.242   9.039  0.00  0.00    +0.000 HD
ATOM     25  H   UNL     1     -23.543   0.139   9.056  0.00  0.00    +0.000 HD
ENDBRANCH  20  22
BRANCH  20  26
ATOM     26  C   UNL     1     -24.402  -1.475   7.343  0.00  0.00    +0.000 C 
ATOM     27  H   UNL     1     -24.875  -2.402   7.006  0.00  0.00    +0.000 HD
ATOM     28  H   UNL     1     -24.268  -0.848   6.454  0.00  0.00    +0.000 HD
ATOM     29  H   UNL     1     -25.097  -0.950   8.005  0.00  0.00    +0.000 HD
ENDBRANCH  20  26
ENDBRANCH   2  20
TORSDOF 4
ENDMDL
