MODEL 1
REMARK VINA RESULT:    -4.698      0.000      0.000
REMARK INTER + INTRA:          -6.773
REMARK INTER:                  -6.258
REMARK INTRA:                  -0.515
REMARK UNBOUND:                -0.564
REMARK  Name = 638011
REMARK  7 active torsions:
REMARK  status: ('A' for Active; 'I' for Inactive)
REMARK    1  A    between atoms: C_2  and  C_3
REMARK    2  A    between atoms: C_2  and  C_4
REMARK    3  A    between atoms: C_3  and  C_5
REMARK    4  A    between atoms: C_4  and  C_7
REMARK    5  A    between atoms: C_6  and  C_9
REMARK    6  A    between atoms: C_6  and  C_10
REMARK    7  A    between atoms: C_8  and  C_11
REMARK                            x       y       z     vdW  Elec       q    Type
REMARK                         _______ _______ _______ _____ _____    ______ ____
ROOT
ATOM      1  C   UNL     1      -2.577   9.905 -10.304  0.00  0.00    +0.000 C 
ATOM      2  H   UNL     1      -2.945  10.839  -9.872  0.00  0.00    +0.000 HD
ATOM      3  H   UNL     1      -3.128   9.771 -11.243  0.00  0.00    +0.000 HD
ENDROOT
BRANCH   1   4
ATOM      4  C   UNL     1      -1.086  10.051 -10.642  0.00  0.00    +0.000 C 
ATOM      5  H   UNL     1      -0.493   9.491  -9.907  0.00  0.00    +0.000 HD
ATOM      6  H   UNL     1      -0.794  11.103 -10.527  0.00  0.00    +0.000 HD
BRANCH   4   7
ATOM      7  C   UNL     1      -0.725   9.573 -12.034  0.00  0.00    +0.000 C 
ATOM      8  C   UNL     1      -0.570  10.351 -13.120  0.00  0.00    +0.000 C 
ATOM      9  H   UNL     1      -0.674  11.429 -13.027  0.00  0.00    +0.000 HD
BRANCH   7  10
ATOM     10  C   UNL     1      -0.496   8.086 -12.152  0.00  0.00    +0.000 C 
ATOM     11  H   UNL     1      -1.195   7.491 -11.557  0.00  0.00    +0.000 HD
ATOM     12  H   UNL     1       0.527   7.831 -11.858  0.00  0.00    +0.000 HD
ATOM     13  H   UNL     1      -0.642   7.759 -13.187  0.00  0.00    +0.000 HD
ENDBRANCH   7  10
BRANCH   8  15
ATOM     14  O   UNL     1       0.993   9.757 -14.792  0.00  0.00    +0.000 OA
ATOM     15  C   UNL     1      -0.182   9.869 -14.462  0.00  0.00    +0.000 C 
ATOM     16  H   UNL     1      -1.003   9.590 -15.142  0.00  0.00    +0.000 HD
ENDBRANCH   8  15
ENDBRANCH   4   7
ENDBRANCH   1   4
BRANCH   1  17
ATOM     17  C   UNL     1      -2.860   8.711  -9.433  0.00  0.00    +0.000 C 
ATOM     18  C   UNL     1      -3.417   7.538  -9.788  0.00  0.00    +0.000 C 
ATOM     19  H   UNL     1      -2.543   8.832  -8.398  0.00  0.00    +0.000 HD
BRANCH  18  20
ATOM     20  C   UNL     1      -3.612   6.450  -8.766  0.00  0.00    +0.000 C 
ATOM     21  H   UNL     1      -3.505   6.857  -7.755  0.00  0.00    +0.000 HD
ATOM     22  H   UNL     1      -2.864   5.662  -8.904  0.00  0.00    +0.000 HD
ATOM     23  H   UNL     1      -4.600   5.984  -8.833  0.00  0.00    +0.000 HD
ENDBRANCH  18  20
BRANCH  18  24
ATOM     24  C   UNL     1      -3.906   7.189 -11.165  0.00  0.00    +0.000 C 
ATOM     25  H   UNL     1      -3.054   7.013 -11.830  0.00  0.00    +0.000 HD
ATOM     26  H   UNL     1      -4.522   7.961 -11.627  0.00  0.00    +0.000 HD
ATOM     27  H   UNL     1      -4.506   6.273 -11.127  0.00  0.00    +0.000 HD
ENDBRANCH  18  24
ENDBRANCH   1  17
TORSDOF 7
ENDMDL
MODEL 2
REMARK VINA RESULT:    -4.647     24.677     26.928
REMARK INTER + INTRA:          -6.705
REMARK INTER:                  -6.211
REMARK INTRA:                  -0.495
REMARK UNBOUND:                -0.564
REMARK  Name = 638011
REMARK  7 active torsions:
REMARK  status: ('A' for Active; 'I' for Inactive)
REMARK    1  A    between atoms: C_2  and  C_3
REMARK    2  A    between atoms: C_2  and  C_4
REMARK    3  A    between atoms: C_3  and  C_5
REMARK    4  A    between atoms: C_4  and  C_7
REMARK    5  A    between atoms: C_6  and  C_9
REMARK    6  A    between atoms: C_6  and  C_10
REMARK    7  A    between atoms: C_8  and  C_11
REMARK                            x       y       z     vdW  Elec       q    Type
REMARK                         _______ _______ _______ _____ _____    ______ ____
ROOT
ATOM      1  C   UNL     1     -20.960  -4.116   5.144  0.00  0.00    +0.000 C 
ATOM      2  H   UNL     1     -21.417  -3.690   4.247  0.00  0.00    +0.000 HD
ATOM      3  H   UNL     1     -21.666  -4.874   5.509  0.00  0.00    +0.000 HD
ENDROOT
BRANCH   1   4
ATOM      4  C   UNL     1     -19.652  -4.825   4.764  0.00  0.00    +0.000 C 
ATOM      5  H   UNL     1     -19.764  -5.903   4.932  0.00  0.00    +0.000 HD
ATOM      6  H   UNL     1     -18.856  -4.494   5.443  0.00  0.00    +0.000 HD
BRANCH   4   7
ATOM      7  C   UNL     1     -19.225  -4.592   3.328  0.00  0.00    +0.000 C 
ATOM      8  C   UNL     1     -18.049  -4.954   2.787  0.00  0.00    +0.000 C 
ATOM      9  H   UNL     1     -17.323  -5.492   3.391  0.00  0.00    +0.000 HD
BRANCH   7  10
ATOM     10  C   UNL     1     -20.262  -3.921   2.462  0.00  0.00    +0.000 C 
ATOM     11  H   UNL     1     -19.874  -3.599   1.491  0.00  0.00    +0.000 HD
ATOM     12  H   UNL     1     -20.690  -3.056   2.977  0.00  0.00    +0.000 HD
ATOM     13  H   UNL     1     -21.077  -4.618   2.234  0.00  0.00    +0.000 HD
ENDBRANCH   7  10
BRANCH   8  15
ATOM     14  O   UNL     1     -16.643  -4.150   1.064  0.00  0.00    +0.000 OA
ATOM     15  C   UNL     1     -17.666  -4.750   1.374  0.00  0.00    +0.000 C 
ATOM     16  H   UNL     1     -18.334  -5.187   0.614  0.00  0.00    +0.000 HD
ENDBRANCH   8  15
ENDBRANCH   4   7
ENDBRANCH   1   4
BRANCH   1  17
ATOM     17  C   UNL     1     -20.773  -3.100   6.238  0.00  0.00    +0.000 C 
ATOM     18  C   UNL     1     -20.717  -1.760   6.125  0.00  0.00    +0.000 C 
ATOM     19  H   UNL     1     -20.700  -3.531   7.236  0.00  0.00    +0.000 HD
BRANCH  18  20
ATOM     20  C   UNL     1     -20.532  -0.902   7.349  0.00  0.00    +0.000 C 
ATOM     21  H   UNL     1     -20.859  -1.443   8.243  0.00  0.00    +0.000 HD
ATOM     22  H   UNL     1     -21.124   0.015   7.262  0.00  0.00    +0.000 HD
ATOM     23  H   UNL     1     -19.488  -0.609   7.501  0.00  0.00    +0.000 HD
ENDBRANCH  18  20
BRANCH  18  24
ATOM     24  C   UNL     1     -20.808  -0.991   4.838  0.00  0.00    +0.000 C 
ATOM     25  H   UNL     1     -20.012  -0.241   4.794  0.00  0.00    +0.000 HD
ATOM     26  H   UNL     1     -21.754  -0.466   4.700  0.00  0.00    +0.000 HD
ATOM     27  H   UNL     1     -20.686  -1.671   3.987  0.00  0.00    +0.000 HD
ENDBRANCH  18  24
ENDBRANCH   1  17
TORSDOF 7
ENDMDL
MODEL 3
REMARK VINA RESULT:    -4.561      1.220      2.295
REMARK INTER + INTRA:          -6.592
REMARK INTER:                  -6.084
REMARK INTRA:                  -0.508
REMARK UNBOUND:                -0.564
REMARK  Name = 638011
REMARK  7 active torsions:
REMARK  status: ('A' for Active; 'I' for Inactive)
REMARK    1  A    between atoms: C_2  and  C_3
REMARK    2  A    between atoms: C_2  and  C_4
REMARK    3  A    between atoms: C_3  and  C_5
REMARK    4  A    between atoms: C_4  and  C_7
REMARK    5  A    between atoms: C_6  and  C_9
REMARK    6  A    between atoms: C_6  and  C_10
REMARK    7  A    between atoms: C_8  and  C_11
REMARK                            x       y       z     vdW  Elec       q    Type
REMARK                         _______ _______ _______ _____ _____    ______ ____
ROOT
ATOM      1  C   UNL     1      -2.904   6.821 -11.186  0.00  0.00    +0.000 C 
ATOM      2  H   UNL     1      -3.526   7.364 -11.903  0.00  0.00    +0.000 HD
ATOM      3  H   UNL     1      -3.303   5.800 -11.157  0.00  0.00    +0.000 HD
ENDROOT
BRANCH   1   4
ATOM      4  C   UNL     1      -1.461   6.757 -11.707  0.00  0.00    +0.000 C 
ATOM      5  H   UNL     1      -1.212   5.716 -11.948  0.00  0.00    +0.000 HD
ATOM      6  H   UNL     1      -0.777   7.053 -10.902  0.00  0.00    +0.000 HD
BRANCH   4   7
ATOM      7  C   UNL     1      -1.213   7.619 -12.929  0.00  0.00    +0.000 C 
ATOM      8  C   UNL     1      -0.317   8.617 -13.020  0.00  0.00    +0.000 C 
ATOM      9  H   UNL     1       0.329   8.838 -12.175  0.00  0.00    +0.000 HD
BRANCH   7  10
ATOM     10  C   UNL     1      -2.048   7.262 -14.134  0.00  0.00    +0.000 C 
ATOM     11  H   UNL     1      -1.617   7.610 -15.078  0.00  0.00    +0.000 HD
ATOM     12  H   UNL     1      -3.059   7.668 -14.034  0.00  0.00    +0.000 HD
ATOM     13  H   UNL     1      -2.127   6.174 -14.233  0.00  0.00    +0.000 HD
ENDBRANCH   7  10
BRANCH   8  15
ATOM     14  O   UNL     1       1.071   9.726 -14.581  0.00  0.00    +0.000 OA
ATOM     15  C   UNL     1      -0.065   9.423 -14.233  0.00  0.00    +0.000 C 
ATOM     16  H   UNL     1      -0.948   9.717 -14.823  0.00  0.00    +0.000 HD
ENDBRANCH   8  15
ENDBRANCH   4   7
ENDBRANCH   1   4
BRANCH   1  17
ATOM     17  C   UNL     1      -2.994   7.388  -9.796  0.00  0.00    +0.000 C 
ATOM     18  C   UNL     1      -2.970   8.681  -9.422  0.00  0.00    +0.000 C 
ATOM     19  H   UNL     1      -3.115   6.635  -9.017  0.00  0.00    +0.000 HD
BRANCH  18  20
ATOM     20  C   UNL     1      -3.083   9.054  -7.968  0.00  0.00    +0.000 C 
ATOM     21  H   UNL     1      -2.649   8.268  -7.341  0.00  0.00    +0.000 HD
ATOM     22  H   UNL     1      -4.135   9.179  -7.689  0.00  0.00    +0.000 HD
ATOM     23  H   UNL     1      -2.565   9.990  -7.734  0.00  0.00    +0.000 HD
ENDBRANCH  18  20
BRANCH  18  24
ATOM     24  C   UNL     1      -2.820   9.852 -10.352  0.00  0.00    +0.000 C 
ATOM     25  H   UNL     1      -2.365   9.525 -11.293  0.00  0.00    +0.000 HD
ATOM     26  H   UNL     1      -2.200  10.657  -9.956  0.00  0.00    +0.000 HD
ATOM     27  H   UNL     1      -3.804  10.279 -10.577  0.00  0.00    +0.000 HD
ENDBRANCH  18  24
ENDBRANCH   1  17
TORSDOF 7
ENDMDL
MODEL 4
REMARK VINA RESULT:    -4.390      9.184      9.710
REMARK INTER + INTRA:          -6.366
REMARK INTER:                  -6.149
REMARK INTRA:                  -0.217
REMARK UNBOUND:                -0.564
REMARK  Name = 638011
REMARK  7 active torsions:
REMARK  status: ('A' for Active; 'I' for Inactive)
REMARK    1  A    between atoms: C_2  and  C_3
REMARK    2  A    between atoms: C_2  and  C_4
REMARK    3  A    between atoms: C_3  and  C_5
REMARK    4  A    between atoms: C_4  and  C_7
REMARK    5  A    between atoms: C_6  and  C_9
REMARK    6  A    between atoms: C_6  and  C_10
REMARK    7  A    between atoms: C_8  and  C_11
REMARK                            x       y       z     vdW  Elec       q    Type
REMARK                         _______ _______ _______ _____ _____    ______ ____
ROOT
ATOM      1  C   UNL     1      -0.336  -0.293 -12.632  0.00  0.00    +0.000 C 
ATOM      2  H   UNL     1      -0.903   0.189 -13.433  0.00  0.00    +0.000 HD
ATOM      3  H   UNL     1      -0.156  -1.322 -12.969  0.00  0.00    +0.000 HD
ENDROOT
BRANCH   1   4
ATOM      4  C   UNL     1       1.024   0.405 -12.479  0.00  0.00    +0.000 C 
ATOM      5  H   UNL     1       1.326   0.377 -11.425  0.00  0.00    +0.000 HD
ATOM      6  H   UNL     1       0.912   1.466 -12.734  0.00  0.00    +0.000 HD
BRANCH   4   7
ATOM      7  C   UNL     1       2.123  -0.208 -13.323  0.00  0.00    +0.000 C 
ATOM      8  C   UNL     1       3.036   0.470 -14.041  0.00  0.00    +0.000 C 
ATOM      9  H   UNL     1       3.040   1.556 -14.017  0.00  0.00    +0.000 HD
BRANCH   7  10
ATOM     10  C   UNL     1       2.177  -1.715 -13.294  0.00  0.00    +0.000 C 
ATOM     11  H   UNL     1       3.104  -2.109 -12.866  0.00  0.00    +0.000 HD
ATOM     12  H   UNL     1       2.051  -2.123 -14.301  0.00  0.00    +0.000 HD
ATOM     13  H   UNL     1       1.373  -2.113 -12.664  0.00  0.00    +0.000 HD
ENDBRANCH   7  10
BRANCH   8  15
ATOM     14  O   UNL     1       5.221  -0.386 -14.338  0.00  0.00    +0.000 OA
ATOM     15  C   UNL     1       4.124  -0.147 -14.830  0.00  0.00    +0.000 C 
ATOM     16  H   UNL     1       3.891  -0.403 -15.876  0.00  0.00    +0.000 HD
ENDBRANCH   8  15
ENDBRANCH   4   7
ENDBRANCH   1   4
BRANCH   1  17
ATOM     17  C   UNL     1      -1.101  -0.362 -11.339  0.00  0.00    +0.000 C 
ATOM     18  C   UNL     1      -2.436  -0.365 -11.164  0.00  0.00    +0.000 C 
ATOM     19  H   UNL     1      -0.471  -0.441 -10.454  0.00  0.00    +0.000 HD
BRANCH  18  20
ATOM     20  C   UNL     1      -3.020  -0.450  -9.779  0.00  0.00    +0.000 C 
ATOM     21  H   UNL     1      -2.498  -1.216  -9.195  0.00  0.00    +0.000 HD
ATOM     22  H   UNL     1      -4.081  -0.715  -9.830  0.00  0.00    +0.000 HD
ATOM     23  H   UNL     1      -2.941   0.496  -9.232  0.00  0.00    +0.000 HD
ENDBRANCH  18  20
BRANCH  18  24
ATOM     24  C   UNL     1      -3.458  -0.272 -12.261  0.00  0.00    +0.000 C 
ATOM     25  H   UNL     1      -4.454  -0.491 -11.864  0.00  0.00    +0.000 HD
ATOM     26  H   UNL     1      -3.283  -0.959 -13.091  0.00  0.00    +0.000 HD
ATOM     27  H   UNL     1      -3.469   0.742 -12.676  0.00  0.00    +0.000 HD
ENDBRANCH  18  24
ENDBRANCH   1  17
TORSDOF 7
ENDMDL
MODEL 5
REMARK VINA RESULT:    -4.210      1.370      2.132
REMARK INTER + INTRA:          -6.127
REMARK INTER:                  -5.782
REMARK INTRA:                  -0.346
REMARK UNBOUND:                -0.564
REMARK  Name = 638011
REMARK  7 active torsions:
REMARK  status: ('A' for Active; 'I' for Inactive)
REMARK    1  A    between atoms: C_2  and  C_3
REMARK    2  A    between atoms: C_2  and  C_4
REMARK    3  A    between atoms: C_3  and  C_5
REMARK    4  A    between atoms: C_4  and  C_7
REMARK    5  A    between atoms: C_6  and  C_9
REMARK    6  A    between atoms: C_6  and  C_10
REMARK    7  A    between atoms: C_8  and  C_11
REMARK                            x       y       z     vdW  Elec       q    Type
REMARK                         _______ _______ _______ _____ _____    ______ ____
ROOT
ATOM      1  C   UNL     1      -1.451   7.159 -11.736  0.00  0.00    +0.000 C 
ATOM      2  H   UNL     1      -0.975   6.695 -12.603  0.00  0.00    +0.000 HD
ATOM      3  H   UNL     1      -1.007   6.675 -10.856  0.00  0.00    +0.000 HD
ENDROOT
BRANCH   1   4
ATOM      4  C   UNL     1      -1.093   8.651 -11.693  0.00  0.00    +0.000 C 
ATOM      5  H   UNL     1      -0.195   8.788 -11.077  0.00  0.00    +0.000 HD
ATOM      6  H   UNL     1      -1.896   9.198 -11.182  0.00  0.00    +0.000 HD
BRANCH   4   7
ATOM      7  C   UNL     1      -0.852   9.261 -13.059  0.00  0.00    +0.000 C 
ATOM      8  C   UNL     1       0.233   9.066 -13.829  0.00  0.00    +0.000 C 
ATOM      9  H   UNL     1       1.017   8.394 -13.492  0.00  0.00    +0.000 HD
BRANCH   7  10
ATOM     10  C   UNL     1      -1.975  10.129 -13.571  0.00  0.00    +0.000 C 
ATOM     11  H   UNL     1      -1.888  11.176 -13.266  0.00  0.00    +0.000 HD
ATOM     12  H   UNL     1      -2.942   9.742 -13.236  0.00  0.00    +0.000 HD
ATOM     13  H   UNL     1      -1.976  10.143 -14.666  0.00  0.00    +0.000 HD
ENDBRANCH   7  10
BRANCH   8  15
ATOM     14  O   UNL     1       1.032   9.033 -16.055  0.00  0.00    +0.000 OA
ATOM     15  C   UNL     1       0.433   9.642 -15.176  0.00  0.00    +0.000 C 
ATOM     16  H   UNL     1      -0.006  10.637 -15.357  0.00  0.00    +0.000 HD
ENDBRANCH   8  15
ENDBRANCH   4   7
ENDBRANCH   1   4
BRANCH   1  17
ATOM     17  C   UNL     1      -2.935   6.917 -11.690  0.00  0.00    +0.000 C 
ATOM     18  C   UNL     1      -3.723   6.789 -10.606  0.00  0.00    +0.000 C 
ATOM     19  H   UNL     1      -3.407   6.867 -12.671  0.00  0.00    +0.000 HD
BRANCH  18  20
ATOM     20  C   UNL     1      -5.202   6.558 -10.765  0.00  0.00    +0.000 C 
ATOM     21  H   UNL     1      -5.487   6.640 -11.819  0.00  0.00    +0.000 HD
ATOM     22  H   UNL     1      -5.766   7.304 -10.194  0.00  0.00    +0.000 HD
ATOM     23  H   UNL     1      -5.512   5.568 -10.413  0.00  0.00    +0.000 HD
ENDBRANCH  18  20
BRANCH  18  24
ATOM     24  C   UNL     1      -3.254   6.838  -9.180  0.00  0.00    +0.000 C 
ATOM     25  H   UNL     1      -2.161   6.902  -9.148  0.00  0.00    +0.000 HD
ATOM     26  H   UNL     1      -3.543   5.970  -8.586  0.00  0.00    +0.000 HD
ATOM     27  H   UNL     1      -3.664   7.724  -8.682  0.00  0.00    +0.000 HD
ENDBRANCH  18  24
ENDBRANCH   1  17
TORSDOF 7
ENDMDL
MODEL 6
REMARK VINA RESULT:    -4.170      2.388      4.180
REMARK INTER + INTRA:          -6.075
REMARK INTER:                  -5.672
REMARK INTRA:                  -0.402
REMARK UNBOUND:                -0.564
REMARK  Name = 638011
REMARK  7 active torsions:
REMARK  status: ('A' for Active; 'I' for Inactive)
REMARK    1  A    between atoms: C_2  and  C_3
REMARK    2  A    between atoms: C_2  and  C_4
REMARK    3  A    between atoms: C_3  and  C_5
REMARK    4  A    between atoms: C_4  and  C_7
REMARK    5  A    between atoms: C_6  and  C_9
REMARK    6  A    between atoms: C_6  and  C_10
REMARK    7  A    between atoms: C_8  and  C_11
REMARK                            x       y       z     vdW  Elec       q    Type
REMARK                         _______ _______ _______ _____ _____    ______ ____
ROOT
ATOM      1  C   UNL     1      -3.166   8.118  -8.865  0.00  0.00    +0.000 C 
ATOM      2  H   UNL     1      -4.134   8.624  -8.899  0.00  0.00    +0.000 HD
ATOM      3  H   UNL     1      -2.926   8.000  -7.801  0.00  0.00    +0.000 HD
ENDROOT
BRANCH   1   4
ATOM      4  C   UNL     1      -3.301   6.718  -9.483  0.00  0.00    +0.000 C 
ATOM      5  H   UNL     1      -3.939   6.100  -8.840  0.00  0.00    +0.000 HD
ATOM      6  H   UNL     1      -2.316   6.234  -9.488  0.00  0.00    +0.000 HD
BRANCH   4   7
ATOM      7  C   UNL     1      -3.873   6.723 -10.887  0.00  0.00    +0.000 C 
ATOM      8  C   UNL     1      -3.162   6.777 -12.028  0.00  0.00    +0.000 C 
ATOM      9  H   UNL     1      -2.076   6.788 -11.984  0.00  0.00    +0.000 HD
BRANCH   7  10
ATOM     10  C   UNL     1      -5.376   6.622 -10.958  0.00  0.00    +0.000 C 
ATOM     11  H   UNL     1      -5.794   7.015 -11.889  0.00  0.00    +0.000 HD
ATOM     12  H   UNL     1      -5.836   7.144 -10.114  0.00  0.00    +0.000 HD
ATOM     13  H   UNL     1      -5.689   5.572 -10.918  0.00  0.00    +0.000 HD
ENDBRANCH   7  10
BRANCH   8  15
ATOM     14  O   UNL     1      -3.251   6.054 -14.277  0.00  0.00    +0.000 OA
ATOM     15  C   UNL     1      -3.737   6.744 -13.389  0.00  0.00    +0.000 C 
ATOM     16  H   UNL     1      -4.640   7.352 -13.558  0.00  0.00    +0.000 HD
ENDBRANCH   8  15
ENDBRANCH   4   7
ENDBRANCH   1   4
BRANCH   1  17
ATOM     17  C   UNL     1      -2.066   8.927  -9.496  0.00  0.00    +0.000 C 
ATOM     18  C   UNL     1      -2.164   9.833 -10.486  0.00  0.00    +0.000 C 
ATOM     19  H   UNL     1      -1.082   8.752  -9.061  0.00  0.00    +0.000 HD
BRANCH  18  20
ATOM     20  C   UNL     1      -0.939  10.554 -10.981  0.00  0.00    +0.000 C 
ATOM     21  H   UNL     1      -0.934  11.587 -10.616  0.00  0.00    +0.000 HD
ATOM     22  H   UNL     1      -0.926  10.573 -12.076  0.00  0.00    +0.000 HD
ATOM     23  H   UNL     1      -0.010  10.079 -10.646  0.00  0.00    +0.000 HD
ENDBRANCH  18  20
BRANCH  18  24
ATOM     24  C   UNL     1      -3.433  10.210 -11.197  0.00  0.00    +0.000 C 
ATOM     25  H   UNL     1      -3.897   9.318 -11.632  0.00  0.00    +0.000 HD
ATOM     26  H   UNL     1      -3.293  10.928 -12.007  0.00  0.00    +0.000 HD
ATOM     27  H   UNL     1      -4.141  10.653 -10.488  0.00  0.00    +0.000 HD
ENDBRANCH  18  24
ENDBRANCH   1  17
TORSDOF 7
ENDMDL
MODEL 7
REMARK VINA RESULT:    -4.113      8.884      9.832
REMARK INTER + INTRA:          -6.000
REMARK INTER:                  -5.588
REMARK INTRA:                  -0.412
REMARK UNBOUND:                -0.564
REMARK  Name = 638011
REMARK  7 active torsions:
REMARK  status: ('A' for Active; 'I' for Inactive)
REMARK    1  A    between atoms: C_2  and  C_3
REMARK    2  A    between atoms: C_2  and  C_4
REMARK    3  A    between atoms: C_3  and  C_5
REMARK    4  A    between atoms: C_4  and  C_7
REMARK    5  A    between atoms: C_6  and  C_9
REMARK    6  A    between atoms: C_6  and  C_10
REMARK    7  A    between atoms: C_8  and  C_11
REMARK                            x       y       z     vdW  Elec       q    Type
REMARK                         _______ _______ _______ _____ _____    ______ ____
ROOT
ATOM      1  C   UNL     1     -10.129   7.241  -5.386  0.00  0.00    +0.000 C 
ATOM      2  H   UNL     1     -10.692   6.459  -5.903  0.00  0.00    +0.000 HD
ATOM      3  H   UNL     1     -10.497   7.242  -4.353  0.00  0.00    +0.000 HD
ENDROOT
BRANCH   1   4
ATOM      4  C   UNL     1      -8.640   6.867  -5.363  0.00  0.00    +0.000 C 
ATOM      5  H   UNL     1      -8.265   6.946  -4.335  0.00  0.00    +0.000 HD
ATOM      6  H   UNL     1      -8.076   7.605  -5.948  0.00  0.00    +0.000 HD
BRANCH   4   7
ATOM      7  C   UNL     1      -8.351   5.475  -5.887  0.00  0.00    +0.000 C 
ATOM      8  C   UNL     1      -8.025   5.161  -7.154  0.00  0.00    +0.000 C 
ATOM      9  H   UNL     1      -7.919   5.952  -7.892  0.00  0.00    +0.000 HD
BRANCH   7  10
ATOM     10  C   UNL     1      -8.413   4.382  -4.849  0.00  0.00    +0.000 C 
ATOM     11  H   UNL     1      -9.238   4.504  -4.140  0.00  0.00    +0.000 HD
ATOM     12  H   UNL     1      -7.472   4.328  -4.292  0.00  0.00    +0.000 HD
ATOM     13  H   UNL     1      -8.581   3.411  -5.327  0.00  0.00    +0.000 HD
ENDBRANCH   7  10
BRANCH   8  15
ATOM     14  O   UNL     1      -7.186   3.610  -8.728  0.00  0.00    +0.000 OA
ATOM     15  C   UNL     1      -7.711   3.800  -7.638  0.00  0.00    +0.000 C 
ATOM     16  H   UNL     1      -7.951   2.967  -6.957  0.00  0.00    +0.000 HD
ENDBRANCH   8  15
ENDBRANCH   4   7
ENDBRANCH   1   4
BRANCH   1  17
ATOM     17  C   UNL     1     -10.375   8.608  -5.962  0.00  0.00    +0.000 C 
ATOM     18  C   UNL     1     -10.361   8.980  -7.256  0.00  0.00    +0.000 C 
ATOM     19  H   UNL     1     -10.613   9.367  -5.217  0.00  0.00    +0.000 HD
BRANCH  18  20
ATOM     20  C   UNL     1     -10.643  10.408  -7.639  0.00  0.00    +0.000 C 
ATOM     21  H   UNL     1     -11.121  10.936  -6.807  0.00  0.00    +0.000 HD
ATOM     22  H   UNL     1     -11.314  10.443  -8.504  0.00  0.00    +0.000 HD
ATOM     23  H   UNL     1      -9.734  10.958  -7.904  0.00  0.00    +0.000 HD
ENDBRANCH  18  20
BRANCH  18  24
ATOM     24  C   UNL     1     -10.062   8.074  -8.417  0.00  0.00    +0.000 C 
ATOM     25  H   UNL     1      -9.984   8.661  -9.338  0.00  0.00    +0.000 HD
ATOM     26  H   UNL     1     -10.818   7.306  -8.588  0.00  0.00    +0.000 HD
ATOM     27  H   UNL     1      -9.108   7.561  -8.255  0.00  0.00    +0.000 HD
ENDBRANCH  18  24
ENDBRANCH   1  17
TORSDOF 7
ENDMDL
MODEL 8
REMARK VINA RESULT:    -4.096     26.222     27.769
REMARK INTER + INTRA:          -5.978
REMARK INTER:                  -5.309
REMARK INTRA:                  -0.669
REMARK UNBOUND:                -0.564
REMARK  Name = 638011
REMARK  7 active torsions:
REMARK  status: ('A' for Active; 'I' for Inactive)
REMARK    1  A    between atoms: C_2  and  C_3
REMARK    2  A    between atoms: C_2  and  C_4
REMARK    3  A    between atoms: C_3  and  C_5
REMARK    4  A    between atoms: C_4  and  C_7
REMARK    5  A    between atoms: C_6  and  C_9
REMARK    6  A    between atoms: C_6  and  C_10
REMARK    7  A    between atoms: C_8  and  C_11
REMARK                            x       y       z     vdW  Elec       q    Type
REMARK                         _______ _______ _______ _____ _____    ______ ____
ROOT
ATOM      1  C   UNL     1      12.085  -5.439   8.888  0.00  0.00    +0.000 C 
ATOM      2  H   UNL     1      11.528  -6.335   9.175  0.00  0.00    +0.000 HD
ATOM      3  H   UNL     1      13.144  -5.681   9.046  0.00  0.00    +0.000 HD
ENDROOT
BRANCH   1   4
ATOM      4  C   UNL     1      11.876  -5.165   7.392  0.00  0.00    +0.000 C 
ATOM      5  H   UNL     1      10.889  -4.709   7.243  0.00  0.00    +0.000 HD
ATOM      6  H   UNL     1      11.851  -6.121   6.853  0.00  0.00    +0.000 HD
BRANCH   4   7
ATOM      7  C   UNL     1      12.931  -4.264   6.782  0.00  0.00    +0.000 C 
ATOM      8  C   UNL     1      14.193  -4.620   6.482  0.00  0.00    +0.000 C 
ATOM      9  H   UNL     1      14.516  -5.644   6.648  0.00  0.00    +0.000 HD
BRANCH   7  10
ATOM     10  C   UNL     1      12.464  -2.864   6.471  0.00  0.00    +0.000 C 
ATOM     11  H   UNL     1      12.646  -2.567   5.433  0.00  0.00    +0.000 HD
ATOM     12  H   UNL     1      12.946  -2.142   7.136  0.00  0.00    +0.000 HD
ATOM     13  H   UNL     1      11.380  -2.785   6.611  0.00  0.00    +0.000 HD
ENDBRANCH   7  10
BRANCH   8  15
ATOM     14  O   UNL     1      15.576  -3.908   4.701  0.00  0.00    +0.000 OA
ATOM     15  C   UNL     1      15.198  -3.736   5.854  0.00  0.00    +0.000 C 
ATOM     16  H   UNL     1      15.570  -2.899   6.467  0.00  0.00    +0.000 HD
ENDBRANCH   8  15
ENDBRANCH   4   7
ENDBRANCH   1   4
BRANCH   1  17
ATOM     17  C   UNL     1      11.754  -4.250   9.747  0.00  0.00    +0.000 C 
ATOM     18  C   UNL     1      12.600  -3.347  10.278  0.00  0.00    +0.000 C 
ATOM     19  H   UNL     1      10.687  -4.115   9.926  0.00  0.00    +0.000 HD
BRANCH  18  20
ATOM     20  C   UNL     1      12.072  -2.210  11.111  0.00  0.00    +0.000 C 
ATOM     21  H   UNL     1      10.982  -2.274  11.193  0.00  0.00    +0.000 HD
ATOM     22  H   UNL     1      12.329  -1.250  10.649  0.00  0.00    +0.000 HD
ATOM     23  H   UNL     1      12.482  -2.209  12.127  0.00  0.00    +0.000 HD
ENDBRANCH  18  20
BRANCH  18  24
ATOM     24  C   UNL     1      14.095  -3.366  10.132  0.00  0.00    +0.000 C 
ATOM     25  H   UNL     1      14.413  -2.572   9.449  0.00  0.00    +0.000 HD
ATOM     26  H   UNL     1      14.492  -4.305   9.743  0.00  0.00    +0.000 HD
ATOM     27  H   UNL     1      14.567  -3.191  11.105  0.00  0.00    +0.000 HD
ENDBRANCH  18  24
ENDBRANCH   1  17
TORSDOF 7
ENDMDL
MODEL 9
REMARK VINA RESULT:    -4.074      3.064      5.332
REMARK INTER + INTRA:          -5.949
REMARK INTER:                  -5.478
REMARK INTRA:                  -0.471
REMARK UNBOUND:                -0.564
REMARK  Name = 638011
REMARK  7 active torsions:
REMARK  status: ('A' for Active; 'I' for Inactive)
REMARK    1  A    between atoms: C_2  and  C_3
REMARK    2  A    between atoms: C_2  and  C_4
REMARK    3  A    between atoms: C_3  and  C_5
REMARK    4  A    between atoms: C_4  and  C_7
REMARK    5  A    between atoms: C_6  and  C_9
REMARK    6  A    between atoms: C_6  and  C_10
REMARK    7  A    between atoms: C_8  and  C_11
REMARK                            x       y       z     vdW  Elec       q    Type
REMARK                         _______ _______ _______ _____ _____    ______ ____
ROOT
ATOM      1  C   UNL     1      -2.631   8.592  -9.472  0.00  0.00    +0.000 C 
ATOM      2  H   UNL     1      -3.603   9.087  -9.404  0.00  0.00    +0.000 HD
ATOM      3  H   UNL     1      -2.203   8.632  -8.462  0.00  0.00    +0.000 HD
ENDROOT
BRANCH   1   4
ATOM      4  C   UNL     1      -2.833   7.117  -9.848  0.00  0.00    +0.000 C 
ATOM      5  H   UNL     1      -2.405   6.483  -9.062  0.00  0.00    +0.000 HD
ATOM      6  H   UNL     1      -2.262   6.898 -10.759  0.00  0.00    +0.000 HD
BRANCH   4   7
ATOM      7  C   UNL     1      -4.285   6.733 -10.053  0.00  0.00    +0.000 C 
ATOM      8  C   UNL     1      -4.941   6.730 -11.228  0.00  0.00    +0.000 C 
ATOM      9  H   UNL     1      -4.411   6.990 -12.139  0.00  0.00    +0.000 HD
BRANCH   7  10
ATOM     10  C   UNL     1      -5.004   6.288  -8.804  0.00  0.00    +0.000 C 
ATOM     11  H   UNL     1      -6.091   6.398  -8.866  0.00  0.00    +0.000 HD
ATOM     12  H   UNL     1      -4.641   6.843  -7.934  0.00  0.00    +0.000 HD
ATOM     13  H   UNL     1      -4.829   5.222  -8.623  0.00  0.00    +0.000 HD
ENDBRANCH   7  10
BRANCH   8  15
ATOM     14  O   UNL     1      -6.670   5.487 -12.256  0.00  0.00    +0.000 OA
ATOM     15  C   UNL     1      -6.348   6.317 -11.413  0.00  0.00    +0.000 C 
ATOM     16  H   UNL     1      -7.090   6.774 -10.737  0.00  0.00    +0.000 HD
ENDBRANCH   8  15
ENDBRANCH   4   7
ENDBRANCH   1   4
BRANCH   1  17
ATOM     17  C   UNL     1      -1.682   9.302 -10.399  0.00  0.00    +0.000 C 
ATOM     18  C   UNL     1      -1.949   9.854 -11.597  0.00  0.00    +0.000 C 
ATOM     19  H   UNL     1      -0.665   9.383 -10.016  0.00  0.00    +0.000 HD
BRANCH  18  20
ATOM     20  C   UNL     1      -0.858  10.535 -12.380  0.00  0.00    +0.000 C 
ATOM     21  H   UNL     1      -0.980  11.622 -12.331  0.00  0.00    +0.000 HD
ATOM     22  H   UNL     1      -0.897  10.228 -13.430  0.00  0.00    +0.000 HD
ATOM     23  H   UNL     1       0.141  10.295 -12.001  0.00  0.00    +0.000 HD
ENDBRANCH  18  20
BRANCH  18  24
ATOM     24  C   UNL     1      -3.288   9.847 -12.278  0.00  0.00    +0.000 C 
ATOM     25  H   UNL     1      -3.426  10.777 -12.841  0.00  0.00    +0.000 HD
ATOM     26  H   UNL     1      -4.134   9.756 -11.595  0.00  0.00    +0.000 HD
ATOM     27  H   UNL     1      -3.346   9.009 -12.982  0.00  0.00    +0.000 HD
ENDBRANCH  18  24
ENDBRANCH   1  17
TORSDOF 7
ENDMDL
MODEL 10
REMARK VINA RESULT:    -4.052      8.395     10.424
REMARK INTER + INTRA:          -5.919
REMARK INTER:                  -5.355
REMARK INTRA:                  -0.564
REMARK UNBOUND:                -0.564
REMARK  Name = 638011
REMARK  7 active torsions:
REMARK  status: ('A' for Active; 'I' for Inactive)
REMARK    1  A    between atoms: C_2  and  C_3
REMARK    2  A    between atoms: C_2  and  C_4
REMARK    3  A    between atoms: C_3  and  C_5
REMARK    4  A    between atoms: C_4  and  C_7
REMARK    5  A    between atoms: C_6  and  C_9
REMARK    6  A    between atoms: C_6  and  C_10
REMARK    7  A    between atoms: C_8  and  C_11
REMARK                            x       y       z     vdW  Elec       q    Type
REMARK                         _______ _______ _______ _____ _____    ______ ____
ROOT
ATOM      1  C   UNL     1      -8.535   3.612  -5.547  0.00  0.00    +0.000 C 
ATOM      2  H   UNL     1      -7.660   4.232  -5.332  0.00  0.00    +0.000 HD
ATOM      3  H   UNL     1      -8.509   2.793  -4.818  0.00  0.00    +0.000 HD
ENDROOT
BRANCH   1   4
ATOM      4  C   UNL     1      -9.812   4.429  -5.304  0.00  0.00    +0.000 C 
ATOM      5  H   UNL     1     -10.234   4.156  -4.329  0.00  0.00    +0.000 HD
ATOM      6  H   UNL     1     -10.566   4.145  -6.050  0.00  0.00    +0.000 HD
BRANCH   4   7
ATOM      7  C   UNL     1      -9.596   5.929  -5.346  0.00  0.00    +0.000 C 
ATOM      8  C   UNL     1     -10.527   6.851  -5.648  0.00  0.00    +0.000 C 
ATOM      9  H   UNL     1     -11.545   6.537  -5.857  0.00  0.00    +0.000 HD
BRANCH   7  10
ATOM     10  C   UNL     1      -8.204   6.377  -4.973  0.00  0.00    +0.000 C 
ATOM     11  H   UNL     1      -7.514   5.547  -4.794  0.00  0.00    +0.000 HD
ATOM     12  H   UNL     1      -8.231   7.013  -4.084  0.00  0.00    +0.000 HD
ATOM     13  H   UNL     1      -7.759   6.955  -5.791  0.00  0.00    +0.000 HD
ENDBRANCH   7  10
BRANCH   8  15
ATOM     14  O   UNL     1     -10.257   8.957  -6.688  0.00  0.00    +0.000 OA
ATOM     15  C   UNL     1     -10.305   8.313  -5.647  0.00  0.00    +0.000 C 
ATOM     16  H   UNL     1     -10.209   8.797  -4.662  0.00  0.00    +0.000 HD
ENDBRANCH   8  15
ENDBRANCH   4   7
ENDBRANCH   1   4
BRANCH   1  17
ATOM     17  C   UNL     1      -8.489   3.003  -6.922  0.00  0.00    +0.000 C 
ATOM     18  C   UNL     1      -7.811   3.437  -8.001  0.00  0.00    +0.000 C 
ATOM     19  H   UNL     1      -9.068   2.085  -7.020  0.00  0.00    +0.000 HD
BRANCH  18  20
ATOM     20  C   UNL     1      -7.883   2.679  -9.299  0.00  0.00    +0.000 C 
ATOM     21  H   UNL     1      -6.914   2.709  -9.809  0.00  0.00    +0.000 HD
ATOM     22  H   UNL     1      -8.636   3.126  -9.958  0.00  0.00    +0.000 HD
ATOM     23  H   UNL     1      -8.151   1.627  -9.156  0.00  0.00    +0.000 HD
ENDBRANCH  18  20
BRANCH  18  24
ATOM     24  C   UNL     1      -6.957   4.672  -8.051  0.00  0.00    +0.000 C 
ATOM     25  H   UNL     1      -5.996   4.483  -7.561  0.00  0.00    +0.000 HD
ATOM     26  H   UNL     1      -7.402   5.541  -7.564  0.00  0.00    +0.000 HD
ATOM     27  H   UNL     1      -6.761   4.949  -9.094  0.00  0.00    +0.000 HD
ENDBRANCH  18  24
ENDBRANCH   1  17
TORSDOF 7
ENDMDL
