MODEL 1
REMARK VINA RESULT:    -4.651      0.000      0.000
REMARK INTER + INTRA:          -6.645
REMARK INTER:                  -6.180
REMARK INTRA:                  -0.464
REMARK UNBOUND:                -0.498
REMARK  Name = 1551246
REMARK  7 active torsions:
REMARK  status: ('A' for Active; 'I' for Inactive)
REMARK    1  A    between atoms: C_2  and  C_3
REMARK    2  A    between atoms: C_2  and  C_4
REMARK    3  A    between atoms: C_3  and  C_5
REMARK    4  A    between atoms: C_4  and  C_7
REMARK    5  A    between atoms: C_6  and  C_8
REMARK    6  A    between atoms: C_6  and  C_9
REMARK    7  A    between atoms: C_10  and  C_11
REMARK                            x       y       z     vdW  Elec       q    Type
REMARK                         _______ _______ _______ _____ _____    ______ ____
ROOT
ATOM      1  C   UNL     1      -2.599   9.814 -10.491  0.00  0.00    +0.000 C 
ATOM      2  H   UNL     1      -3.035  10.736 -10.084  0.00  0.00    +0.000 HD
ATOM      3  H   UNL     1      -3.131   9.644 -11.433  0.00  0.00    +0.000 HD
ENDROOT
BRANCH   1   4
ATOM      4  C   UNL     1      -1.103  10.009 -10.772  0.00  0.00    +0.000 C 
ATOM      5  H   UNL     1      -0.526   9.561  -9.953  0.00  0.00    +0.000 HD
ATOM      6  H   UNL     1      -0.862  11.079 -10.758  0.00  0.00    +0.000 HD
BRANCH   4   7
ATOM      7  C   UNL     1      -0.641   9.395 -12.080  0.00  0.00    +0.000 C 
ATOM      8  C   UNL     1      -0.293  10.100 -13.173  0.00  0.00    +0.000 C 
ATOM      9  H   UNL     1      -0.354  11.184 -13.147  0.00  0.00    +0.000 HD
BRANCH   7  10
ATOM     10  C   UNL     1      -0.550   7.892 -12.092  0.00  0.00    +0.000 C 
ATOM     11  H   UNL     1      -0.339   7.441 -11.118  0.00  0.00    +0.000 HD
ATOM     12  H   UNL     1      -1.501   7.463 -12.426  0.00  0.00    +0.000 HD
ATOM     13  H   UNL     1       0.233   7.563 -12.782  0.00  0.00    +0.000 HD
ENDBRANCH   7  10
BRANCH   8  15
ATOM     14  N   UNL     1       0.556   9.040 -15.369  0.00  0.00    +0.000 NA
ATOM     15  C   UNL     1       0.170   9.516 -14.384  0.00  0.00    +0.000 C 
ENDBRANCH   8  15
ENDBRANCH   4   7
ENDBRANCH   1   4
BRANCH   1  16
ATOM     16  C   UNL     1      -2.861   8.695  -9.521  0.00  0.00    +0.000 C 
ATOM     17  C   UNL     1      -3.473   7.519  -9.754  0.00  0.00    +0.000 C 
ATOM     18  H   UNL     1      -2.501   8.879  -8.510  0.00  0.00    +0.000 HD
BRANCH  17  19
ATOM     19  C   UNL     1      -3.703   6.440  -8.733  0.00  0.00    +0.000 C 
ATOM     20  H   UNL     1      -4.021   5.514  -9.222  0.00  0.00    +0.000 HD
ATOM     21  H   UNL     1      -2.785   6.244  -8.171  0.00  0.00    +0.000 HD
ATOM     22  H   UNL     1      -4.480   6.725  -8.017  0.00  0.00    +0.000 HD
ENDBRANCH  17  19
BRANCH  17  23
ATOM     23  C   UNL     1      -3.981   7.187 -11.131  0.00  0.00    +0.000 C 
ATOM     24  H   UNL     1      -4.313   6.143 -11.163  0.00  0.00    +0.000 HD
ATOM     25  H   UNL     1      -3.249   7.309 -11.932  0.00  0.00    +0.000 HD
ATOM     26  H   UNL     1      -4.839   7.823 -11.375  0.00  0.00    +0.000 HD
ENDBRANCH  17  23
ENDBRANCH   1  16
TORSDOF 7
ENDMDL
MODEL 2
REMARK VINA RESULT:    -4.509      1.269      2.159
REMARK INTER + INTRA:          -6.458
REMARK INTER:                  -6.047
REMARK INTRA:                  -0.410
REMARK UNBOUND:                -0.498
REMARK  Name = 1551246
REMARK  7 active torsions:
REMARK  status: ('A' for Active; 'I' for Inactive)
REMARK    1  A    between atoms: C_2  and  C_3
REMARK    2  A    between atoms: C_2  and  C_4
REMARK    3  A    between atoms: C_3  and  C_5
REMARK    4  A    between atoms: C_4  and  C_7
REMARK    5  A    between atoms: C_6  and  C_8
REMARK    6  A    between atoms: C_6  and  C_9
REMARK    7  A    between atoms: C_10  and  C_11
REMARK                            x       y       z     vdW  Elec       q    Type
REMARK                         _______ _______ _______ _____ _____    ______ ____
ROOT
ATOM      1  C   UNL     1      -1.261   7.175 -11.651  0.00  0.00    +0.000 C 
ATOM      2  H   UNL     1      -0.531   6.360 -11.737  0.00  0.00    +0.000 HD
ATOM      3  H   UNL     1      -0.752   7.946 -11.061  0.00  0.00    +0.000 HD
ENDROOT
BRANCH   1   4
ATOM      4  C   UNL     1      -1.605   7.732 -13.039  0.00  0.00    +0.000 C 
ATOM      5  H   UNL     1      -2.665   8.013 -13.057  0.00  0.00    +0.000 HD
ATOM      6  H   UNL     1      -1.491   6.943 -13.791  0.00  0.00    +0.000 HD
BRANCH   4   7
ATOM      7  C   UNL     1      -0.778   8.942 -13.435  0.00  0.00    +0.000 C 
ATOM      8  C   UNL     1       0.041   8.991 -14.502  0.00  0.00    +0.000 C 
ATOM      9  H   UNL     1       0.148   8.110 -15.129  0.00  0.00    +0.000 HD
BRANCH   7  10
ATOM     10  C   UNL     1      -0.952  10.156 -12.561  0.00  0.00    +0.000 C 
ATOM     11  H   UNL     1      -0.040  10.487 -12.055  0.00  0.00    +0.000 HD
ATOM     12  H   UNL     1      -1.290  11.006 -13.165  0.00  0.00    +0.000 HD
ATOM     13  H   UNL     1      -1.705   9.966 -11.790  0.00  0.00    +0.000 HD
ENDBRANCH   7  10
BRANCH   8  15
ATOM     14  N   UNL     1       1.386  11.082 -15.197  0.00  0.00    +0.000 NA
ATOM     15  C   UNL     1       0.785  10.140 -14.883  0.00  0.00    +0.000 C 
ENDBRANCH   8  15
ENDBRANCH   4   7
ENDBRANCH   1   4
BRANCH   1  16
ATOM     16  C   UNL     1      -2.470   6.657 -10.923  0.00  0.00    +0.000 C 
ATOM     17  C   UNL     1      -3.116   7.216  -9.882  0.00  0.00    +0.000 C 
ATOM     18  H   UNL     1      -2.857   5.714 -11.302  0.00  0.00    +0.000 HD
BRANCH  17  19
ATOM     19  C   UNL     1      -4.325   6.642  -9.198  0.00  0.00    +0.000 C 
ATOM     20  H   UNL     1      -4.199   6.673  -8.112  0.00  0.00    +0.000 HD
ATOM     21  H   UNL     1      -5.221   7.211  -9.465  0.00  0.00    +0.000 HD
ATOM     22  H   UNL     1      -4.492   5.600  -9.488  0.00  0.00    +0.000 HD
ENDBRANCH  17  19
BRANCH  17  23
ATOM     23  C   UNL     1      -2.650   8.530  -9.315  0.00  0.00    +0.000 C 
ATOM     24  H   UNL     1      -3.499   9.068  -8.878  0.00  0.00    +0.000 HD
ATOM     25  H   UNL     1      -2.190   9.205 -10.039  0.00  0.00    +0.000 HD
ATOM     26  H   UNL     1      -1.916   8.354  -8.522  0.00  0.00    +0.000 HD
ENDBRANCH  17  23
ENDBRANCH   1  16
TORSDOF 7
ENDMDL
MODEL 3
REMARK VINA RESULT:    -4.452      3.551      6.141
REMARK INTER + INTRA:          -6.383
REMARK INTER:                  -6.064
REMARK INTRA:                  -0.319
REMARK UNBOUND:                -0.498
REMARK  Name = 1551246
REMARK  7 active torsions:
REMARK  status: ('A' for Active; 'I' for Inactive)
REMARK    1  A    between atoms: C_2  and  C_3
REMARK    2  A    between atoms: C_2  and  C_4
REMARK    3  A    between atoms: C_3  and  C_5
REMARK    4  A    between atoms: C_4  and  C_7
REMARK    5  A    between atoms: C_6  and  C_8
REMARK    6  A    between atoms: C_6  and  C_9
REMARK    7  A    between atoms: C_10  and  C_11
REMARK                            x       y       z     vdW  Elec       q    Type
REMARK                         _______ _______ _______ _____ _____    ______ ____
ROOT
ATOM      1  C   UNL     1      -1.966   6.819 -11.310  0.00  0.00    +0.000 C 
ATOM      2  H   UNL     1      -1.608   7.256 -10.369  0.00  0.00    +0.000 HD
ATOM      3  H   UNL     1      -1.771   5.745 -11.212  0.00  0.00    +0.000 HD
ENDROOT
BRANCH   1   4
ATOM      4  C   UNL     1      -3.474   7.056 -11.471  0.00  0.00    +0.000 C 
ATOM      5  H   UNL     1      -3.840   6.457 -12.313  0.00  0.00    +0.000 HD
ATOM      6  H   UNL     1      -3.654   8.102 -11.746  0.00  0.00    +0.000 HD
BRANCH   4   7
ATOM      7  C   UNL     1      -4.284   6.702 -10.238  0.00  0.00    +0.000 C 
ATOM      8  C   UNL     1      -5.560   6.273 -10.259  0.00  0.00    +0.000 C 
ATOM      9  H   UNL     1      -6.072   6.183 -11.213  0.00  0.00    +0.000 HD
BRANCH   7  10
ATOM     10  C   UNL     1      -3.550   6.822  -8.927  0.00  0.00    +0.000 C 
ATOM     11  H   UNL     1      -2.556   6.366  -8.919  0.00  0.00    +0.000 HD
ATOM     12  H   UNL     1      -3.403   7.879  -8.677  0.00  0.00    +0.000 HD
ATOM     13  H   UNL     1      -4.131   6.360  -8.122  0.00  0.00    +0.000 HD
ENDBRANCH   7  10
BRANCH   8  15
ATOM     14  N   UNL     1      -6.898   5.625  -8.149  0.00  0.00    +0.000 NA
ATOM     15  C   UNL     1      -6.299   5.912  -9.100  0.00  0.00    +0.000 C 
ENDBRANCH   8  15
ENDBRANCH   4   7
ENDBRANCH   1   4
BRANCH   1  16
ATOM     16  C   UNL     1      -1.167   7.405 -12.442  0.00  0.00    +0.000 C 
ATOM     17  C   UNL     1      -0.659   8.647 -12.545  0.00  0.00    +0.000 C 
ATOM     18  H   UNL     1      -0.985   6.721 -13.269  0.00  0.00    +0.000 HD
BRANCH  17  19
ATOM     19  C   UNL     1       0.134   9.169 -13.710  0.00  0.00    +0.000 C 
ATOM     20  H   UNL     1       1.203   9.158 -13.479  0.00  0.00    +0.000 HD
ATOM     21  H   UNL     1      -0.041   8.553 -14.598  0.00  0.00    +0.000 HD
ATOM     22  H   UNL     1      -0.145  10.199 -13.956  0.00  0.00    +0.000 HD
ENDBRANCH  17  19
BRANCH  17  23
ATOM     23  C   UNL     1      -0.853   9.643 -11.432  0.00  0.00    +0.000 C 
ATOM     24  H   UNL     1      -1.116  10.620 -11.851  0.00  0.00    +0.000 HD
ATOM     25  H   UNL     1       0.021   9.797 -10.797  0.00  0.00    +0.000 HD
ATOM     26  H   UNL     1      -1.674   9.320 -10.783  0.00  0.00    +0.000 HD
ENDBRANCH  17  23
ENDBRANCH   1  16
TORSDOF 7
ENDMDL
MODEL 4
REMARK VINA RESULT:    -4.321     18.944     21.417
REMARK INTER + INTRA:          -6.208
REMARK INTER:                  -5.924
REMARK INTRA:                  -0.285
REMARK UNBOUND:                -0.498
REMARK  Name = 1551246
REMARK  7 active torsions:
REMARK  status: ('A' for Active; 'I' for Inactive)
REMARK    1  A    between atoms: C_2  and  C_3
REMARK    2  A    between atoms: C_2  and  C_4
REMARK    3  A    between atoms: C_3  and  C_5
REMARK    4  A    between atoms: C_4  and  C_7
REMARK    5  A    between atoms: C_6  and  C_8
REMARK    6  A    between atoms: C_6  and  C_9
REMARK    7  A    between atoms: C_10  and  C_11
REMARK                            x       y       z     vdW  Elec       q    Type
REMARK                         _______ _______ _______ _____ _____    ______ ____
ROOT
ATOM      1  C   UNL     1      -9.103  10.959   6.794  0.00  0.00    +0.000 C 
ATOM      2  H   UNL     1      -9.596  10.707   5.846  0.00  0.00    +0.000 HD
ATOM      3  H   UNL     1      -9.914  11.293   7.451  0.00  0.00    +0.000 HD
ENDROOT
BRANCH   1   4
ATOM      4  C   UNL     1      -8.432   9.716   7.394  0.00  0.00    +0.000 C 
ATOM      5  H   UNL     1      -7.347   9.875   7.417  0.00  0.00    +0.000 HD
ATOM      6  H   UNL     1      -8.596   8.855   6.735  0.00  0.00    +0.000 HD
BRANCH   4   7
ATOM      7  C   UNL     1      -8.902   9.385   8.798  0.00  0.00    +0.000 C 
ATOM      8  C   UNL     1     -10.127   9.669   9.280  0.00  0.00    +0.000 C 
ATOM      9  H   UNL     1     -10.840  10.188   8.645  0.00  0.00    +0.000 HD
BRANCH   7  10
ATOM     10  C   UNL     1      -7.904   8.655   9.658  0.00  0.00    +0.000 C 
ATOM     11  H   UNL     1      -7.399   7.821   9.161  0.00  0.00    +0.000 HD
ATOM     12  H   UNL     1      -7.113   9.343   9.978  0.00  0.00    +0.000 HD
ATOM     13  H   UNL     1      -8.391   8.257  10.553  0.00  0.00    +0.000 HD
ENDBRANCH   7  10
BRANCH   8  15
ATOM     14  N   UNL     1     -10.935   9.039  11.650  0.00  0.00    +0.000 NA
ATOM     15  C   UNL     1     -10.568   9.325  10.587  0.00  0.00    +0.000 C 
ENDBRANCH   8  15
ENDBRANCH   4   7
ENDBRANCH   1   4
BRANCH   1  16
ATOM     16  C   UNL     1      -8.127  12.075   6.541  0.00  0.00    +0.000 C 
ATOM     17  C   UNL     1      -7.337  12.262   5.468  0.00  0.00    +0.000 C 
ATOM     18  H   UNL     1      -8.072  12.816   7.337  0.00  0.00    +0.000 HD
BRANCH  17  19
ATOM     19  C   UNL     1      -6.381  13.406   5.280  0.00  0.00    +0.000 C 
ATOM     20  H   UNL     1      -6.724  14.285   5.832  0.00  0.00    +0.000 HD
ATOM     21  H   UNL     1      -5.383  13.133   5.638  0.00  0.00    +0.000 HD
ATOM     22  H   UNL     1      -6.292  13.685   4.225  0.00  0.00    +0.000 HD
ENDBRANCH  17  19
BRANCH  17  23
ATOM     23  C   UNL     1      -7.373  11.290   4.319  0.00  0.00    +0.000 C 
ATOM     24  H   UNL     1      -8.307  11.410   3.760  0.00  0.00    +0.000 HD
ATOM     25  H   UNL     1      -7.311  10.238   4.606  0.00  0.00    +0.000 HD
ATOM     26  H   UNL     1      -6.541  11.490   3.636  0.00  0.00    +0.000 HD
ENDBRANCH  17  23
ENDBRANCH   1  16
TORSDOF 7
ENDMDL
MODEL 5
REMARK VINA RESULT:    -4.310     18.484     20.051
REMARK INTER + INTRA:          -6.195
REMARK INTER:                  -6.081
REMARK INTRA:                  -0.114
REMARK UNBOUND:                -0.498
REMARK  Name = 1551246
REMARK  7 active torsions:
REMARK  status: ('A' for Active; 'I' for Inactive)
REMARK    1  A    between atoms: C_2  and  C_3
REMARK    2  A    between atoms: C_2  and  C_4
REMARK    3  A    between atoms: C_3  and  C_5
REMARK    4  A    between atoms: C_4  and  C_7
REMARK    5  A    between atoms: C_6  and  C_8
REMARK    6  A    between atoms: C_6  and  C_9
REMARK    7  A    between atoms: C_10  and  C_11
REMARK                            x       y       z     vdW  Elec       q    Type
REMARK                         _______ _______ _______ _____ _____    ______ ____
ROOT
ATOM      1  C   UNL     1      -7.661  11.440   4.824  0.00  0.00    +0.000 C 
ATOM      2  H   UNL     1      -6.959  10.608   4.967  0.00  0.00    +0.000 HD
ATOM      3  H   UNL     1      -7.940  11.392   3.765  0.00  0.00    +0.000 HD
ENDROOT
BRANCH   1   4
ATOM      4  C   UNL     1      -8.909  11.241   5.694  0.00  0.00    +0.000 C 
ATOM      5  H   UNL     1      -9.575  10.522   5.202  0.00  0.00    +0.000 HD
ATOM      6  H   UNL     1      -9.472  12.180   5.751  0.00  0.00    +0.000 HD
BRANCH   4   7
ATOM      7  C   UNL     1      -8.606  10.738   7.094  0.00  0.00    +0.000 C 
ATOM      8  C   UNL     1      -8.732   9.457   7.489  0.00  0.00    +0.000 C 
ATOM      9  H   UNL     1      -9.090   8.716   6.779  0.00  0.00    +0.000 HD
BRANCH   7  10
ATOM     10  C   UNL     1      -8.098  11.778   8.057  0.00  0.00    +0.000 C 
ATOM     11  H   UNL     1      -7.180  12.282   7.741  0.00  0.00    +0.000 HD
ATOM     12  H   UNL     1      -8.849  12.566   8.186  0.00  0.00    +0.000 HD
ATOM     13  H   UNL     1      -7.905  11.329   9.037  0.00  0.00    +0.000 HD
ENDBRANCH   7  10
BRANCH   8  15
ATOM     14  N   UNL     1      -8.146   8.616   9.858  0.00  0.00    +0.000 NA
ATOM     15  C   UNL     1      -8.413   8.991   8.793  0.00  0.00    +0.000 C 
ENDBRANCH   8  15
ENDBRANCH   4   7
ENDBRANCH   1   4
BRANCH   1  16
ATOM     16  C   UNL     1      -6.945  12.726   5.130  0.00  0.00    +0.000 C 
ATOM     17  C   UNL     1      -7.304  13.979   4.790  0.00  0.00    +0.000 C 
ATOM     18  H   UNL     1      -6.026  12.608   5.701  0.00  0.00    +0.000 HD
BRANCH  17  19
ATOM     19  C   UNL     1      -6.538  15.226   5.130  0.00  0.00    +0.000 C 
ATOM     20  H   UNL     1      -7.190  16.102   5.071  0.00  0.00    +0.000 HD
ATOM     21  H   UNL     1      -6.130  15.159   6.144  0.00  0.00    +0.000 HD
ATOM     22  H   UNL     1      -5.701  15.383   4.442  0.00  0.00    +0.000 HD
ENDBRANCH  17  19
BRANCH  17  23
ATOM     23  C   UNL     1      -8.572  14.223   4.017  0.00  0.00    +0.000 C 
ATOM     24  H   UNL     1      -8.373  14.142   2.943  0.00  0.00    +0.000 HD
ATOM     25  H   UNL     1      -9.028  15.202   4.180  0.00  0.00    +0.000 HD
ATOM     26  H   UNL     1      -9.320  13.468   4.281  0.00  0.00    +0.000 HD
ENDBRANCH  17  23
ENDBRANCH   1  16
TORSDOF 7
ENDMDL
MODEL 6
REMARK VINA RESULT:    -4.218      3.046      5.284
REMARK INTER + INTRA:          -6.073
REMARK INTER:                  -5.618
REMARK INTRA:                  -0.454
REMARK UNBOUND:                -0.498
REMARK  Name = 1551246
REMARK  7 active torsions:
REMARK  status: ('A' for Active; 'I' for Inactive)
REMARK    1  A    between atoms: C_2  and  C_3
REMARK    2  A    between atoms: C_2  and  C_4
REMARK    3  A    between atoms: C_3  and  C_5
REMARK    4  A    between atoms: C_4  and  C_7
REMARK    5  A    between atoms: C_6  and  C_8
REMARK    6  A    between atoms: C_6  and  C_9
REMARK    7  A    between atoms: C_10  and  C_11
REMARK                            x       y       z     vdW  Elec       q    Type
REMARK                         _______ _______ _______ _____ _____    ______ ____
ROOT
ATOM      1  C   UNL     1      -2.796   8.702  -9.276  0.00  0.00    +0.000 C 
ATOM      2  H   UNL     1      -3.767   9.182  -9.458  0.00  0.00    +0.000 HD
ATOM      3  H   UNL     1      -2.575   8.909  -8.223  0.00  0.00    +0.000 HD
ENDROOT
BRANCH   1   4
ATOM      4  C   UNL     1      -2.900   7.187  -9.493  0.00  0.00    +0.000 C 
ATOM      5  H   UNL     1      -2.617   6.675  -8.565  0.00  0.00    +0.000 HD
ATOM      6  H   UNL     1      -2.168   6.871 -10.245  0.00  0.00    +0.000 HD
BRANCH   4   7
ATOM      7  C   UNL     1      -4.286   6.720  -9.898  0.00  0.00    +0.000 C 
ATOM      8  C   UNL     1      -4.760   6.740 -11.158  0.00  0.00    +0.000 C 
ATOM      9  H   UNL     1      -4.132   7.130 -11.955  0.00  0.00    +0.000 HD
BRANCH   7  10
ATOM     10  C   UNL     1      -5.136   6.172  -8.781  0.00  0.00    +0.000 C 
ATOM     11  H   UNL     1      -6.192   6.046  -9.033  0.00  0.00    +0.000 HD
ATOM     12  H   UNL     1      -4.772   5.181  -8.488  0.00  0.00    +0.000 HD
ATOM     13  H   UNL     1      -5.082   6.827  -7.906  0.00  0.00    +0.000 HD
ENDBRANCH   7  10
BRANCH   8  15
ATOM     14  N   UNL     1      -7.104   5.892 -11.833  0.00  0.00    +0.000 NA
ATOM     15  C   UNL     1      -6.049   6.270 -11.532  0.00  0.00    +0.000 C 
ENDBRANCH   8  15
ENDBRANCH   4   7
ENDBRANCH   1   4
BRANCH   1  16
ATOM     16  C   UNL     1      -1.772   9.343 -10.172  0.00  0.00    +0.000 C 
ATOM     17  C   UNL     1      -1.953   9.867 -11.399  0.00  0.00    +0.000 C 
ATOM     18  H   UNL     1      -0.768   9.381  -9.755  0.00  0.00    +0.000 HD
BRANCH  17  19
ATOM     19  C   UNL     1      -0.880  10.496 -12.243  0.00  0.00    +0.000 C 
ATOM     20  H   UNL     1      -0.168   9.737 -12.583  0.00  0.00    +0.000 HD
ATOM     21  H   UNL     1      -1.320  10.983 -13.119  0.00  0.00    +0.000 HD
ATOM     22  H   UNL     1      -0.322  11.253 -11.683  0.00  0.00    +0.000 HD
ENDBRANCH  17  19
BRANCH  17  23
ATOM     23  C   UNL     1      -3.318   9.867 -12.032  0.00  0.00    +0.000 C 
ATOM     24  H   UNL     1      -3.641   8.837 -12.219  0.00  0.00    +0.000 HD
ATOM     25  H   UNL     1      -3.381  10.395 -12.986  0.00  0.00    +0.000 HD
ATOM     26  H   UNL     1      -4.042  10.333 -11.355  0.00  0.00    +0.000 HD
ENDBRANCH  17  23
ENDBRANCH   1  16
TORSDOF 7
ENDMDL
MODEL 7
REMARK VINA RESULT:    -4.197     26.293     27.755
REMARK INTER + INTRA:          -6.045
REMARK INTER:                  -5.396
REMARK INTRA:                  -0.649
REMARK UNBOUND:                -0.498
REMARK  Name = 1551246
REMARK  7 active torsions:
REMARK  status: ('A' for Active; 'I' for Inactive)
REMARK    1  A    between atoms: C_2  and  C_3
REMARK    2  A    between atoms: C_2  and  C_4
REMARK    3  A    between atoms: C_3  and  C_5
REMARK    4  A    between atoms: C_4  and  C_7
REMARK    5  A    between atoms: C_6  and  C_8
REMARK    6  A    between atoms: C_6  and  C_9
REMARK    7  A    between atoms: C_10  and  C_11
REMARK                            x       y       z     vdW  Elec       q    Type
REMARK                         _______ _______ _______ _____ _____    ______ ____
ROOT
ATOM      1  C   UNL     1      12.205  -5.471   8.907  0.00  0.00    +0.000 C 
ATOM      2  H   UNL     1      11.678  -6.364   9.266  0.00  0.00    +0.000 HD
ATOM      3  H   UNL     1      13.269  -5.704   9.031  0.00  0.00    +0.000 HD
ENDROOT
BRANCH   1   4
ATOM      4  C   UNL     1      11.900  -5.232   7.422  0.00  0.00    +0.000 C 
ATOM      5  H   UNL     1      10.916  -4.755   7.333  0.00  0.00    +0.000 HD
ATOM      6  H   UNL     1      11.815  -6.194   6.904  0.00  0.00    +0.000 HD
BRANCH   4   7
ATOM      7  C   UNL     1      12.924  -4.359   6.720  0.00  0.00    +0.000 C 
ATOM      8  C   UNL     1      14.117  -4.794   6.269  0.00  0.00    +0.000 C 
ATOM      9  H   UNL     1      14.395  -5.833   6.422  0.00  0.00    +0.000 HD
BRANCH   7  10
ATOM     10  C   UNL     1      12.514  -2.926   6.506  0.00  0.00    +0.000 C 
ATOM     11  H   UNL     1      13.336  -2.249   6.256  0.00  0.00    +0.000 HD
ATOM     12  H   UNL     1      11.803  -2.861   5.674  0.00  0.00    +0.000 HD
ATOM     13  H   UNL     1      12.025  -2.532   7.403  0.00  0.00    +0.000 HD
ENDBRANCH   7  10
BRANCH   8  15
ATOM     14  N   UNL     1      15.814  -3.301   5.022  0.00  0.00    +0.000 NA
ATOM     15  C   UNL     1      15.055  -3.975   5.583  0.00  0.00    +0.000 C 
ENDBRANCH   8  15
ENDBRANCH   4   7
ENDBRANCH   1   4
BRANCH   1  16
ATOM     16  C   UNL     1      11.810  -4.305   9.771  0.00  0.00    +0.000 C 
ATOM     17  C   UNL     1      12.603  -3.352  10.294  0.00  0.00    +0.000 C 
ATOM     18  H   UNL     1      10.745  -4.241   9.984  0.00  0.00    +0.000 HD
BRANCH  17  19
ATOM     19  C   UNL     1      12.140  -2.209  11.153  0.00  0.00    +0.000 C 
ATOM     20  H   UNL     1      11.110  -2.373  11.483  0.00  0.00    +0.000 HD
ATOM     21  H   UNL     1      12.781  -2.109  12.035  0.00  0.00    +0.000 HD
ATOM     22  H   UNL     1      12.171  -1.260  10.608  0.00  0.00    +0.000 HD
ENDBRANCH  17  19
BRANCH  17  23
ATOM     23  C   UNL     1      14.085  -3.363  10.026  0.00  0.00    +0.000 C 
ATOM     24  H   UNL     1      14.288  -3.899   9.092  0.00  0.00    +0.000 HD
ATOM     25  H   UNL     1      14.687  -3.842  10.801  0.00  0.00    +0.000 HD
ATOM     26  H   UNL     1      14.451  -2.337   9.916  0.00  0.00    +0.000 HD
ENDBRANCH  17  23
ENDBRANCH   1  16
TORSDOF 7
ENDMDL
MODEL 8
REMARK VINA RESULT:    -4.117     27.358     28.374
REMARK INTER + INTRA:          -5.940
REMARK INTER:                  -5.317
REMARK INTRA:                  -0.623
REMARK UNBOUND:                -0.498
REMARK  Name = 1551246
REMARK  7 active torsions:
REMARK  status: ('A' for Active; 'I' for Inactive)
REMARK    1  A    between atoms: C_2  and  C_3
REMARK    2  A    between atoms: C_2  and  C_4
REMARK    3  A    between atoms: C_3  and  C_5
REMARK    4  A    between atoms: C_4  and  C_7
REMARK    5  A    between atoms: C_6  and  C_8
REMARK    6  A    between atoms: C_6  and  C_9
REMARK    7  A    between atoms: C_10  and  C_11
REMARK                            x       y       z     vdW  Elec       q    Type
REMARK                         _______ _______ _______ _____ _____    ______ ____
ROOT
ATOM      1  C   UNL     1      12.790  -4.620   6.858  0.00  0.00    +0.000 C 
ATOM      2  H   UNL     1      11.765  -4.230   6.903  0.00  0.00    +0.000 HD
ATOM      3  H   UNL     1      13.018  -4.685   5.787  0.00  0.00    +0.000 HD
ENDROOT
BRANCH   1   4
ATOM      4  C   UNL     1      13.763  -3.644   7.533  0.00  0.00    +0.000 C 
ATOM      5  H   UNL     1      13.820  -2.727   6.933  0.00  0.00    +0.000 HD
ATOM      6  H   UNL     1      14.773  -4.069   7.528  0.00  0.00    +0.000 HD
BRANCH   4   7
ATOM      7  C   UNL     1      13.370  -3.270   8.950  0.00  0.00    +0.000 C 
ATOM      8  C   UNL     1      12.156  -2.810   9.310  0.00  0.00    +0.000 C 
ATOM      9  H   UNL     1      11.395  -2.672   8.547  0.00  0.00    +0.000 HD
BRANCH   7  10
ATOM     10  C   UNL     1      14.436  -3.481   9.993  0.00  0.00    +0.000 C 
ATOM     11  H   UNL     1      14.065  -3.840  10.957  0.00  0.00    +0.000 HD
ATOM     12  H   UNL     1      15.156  -4.231   9.644  0.00  0.00    +0.000 HD
ATOM     13  H   UNL     1      14.979  -2.548  10.177  0.00  0.00    +0.000 HD
ENDBRANCH   7  10
BRANCH   8  15
ATOM     14  N   UNL     1      11.480  -2.238  11.734  0.00  0.00    +0.000 NA
ATOM     15  C   UNL     1      11.788  -2.494  10.646  0.00  0.00    +0.000 C 
ENDBRANCH   8  15
ENDBRANCH   4   7
ENDBRANCH   1   4
BRANCH   1  16
ATOM     16  C   UNL     1      12.810  -5.983   7.492  0.00  0.00    +0.000 C 
ATOM     17  C   UNL     1      11.797  -6.635   8.092  0.00  0.00    +0.000 C 
ATOM     18  H   UNL     1      13.772  -6.490   7.444  0.00  0.00    +0.000 HD
BRANCH  17  19
ATOM     19  C   UNL     1      11.886  -8.004   8.708  0.00  0.00    +0.000 C 
ATOM     20  H   UNL     1      11.068  -8.157   9.417  0.00  0.00    +0.000 HD
ATOM     21  H   UNL     1      11.830  -8.775   7.933  0.00  0.00    +0.000 HD
ATOM     22  H   UNL     1      12.829  -8.140   9.248  0.00  0.00    +0.000 HD
ENDBRANCH  17  19
BRANCH  17  23
ATOM     23  C   UNL     1      10.432  -6.006   8.179  0.00  0.00    +0.000 C 
ATOM     24  H   UNL     1       9.772  -6.447   7.425  0.00  0.00    +0.000 HD
ATOM     25  H   UNL     1      10.415  -4.926   8.021  0.00  0.00    +0.000 HD
ATOM     26  H   UNL     1       9.996  -6.197   9.165  0.00  0.00    +0.000 HD
ENDBRANCH  17  23
ENDBRANCH   1  16
TORSDOF 7
ENDMDL
MODEL 9
REMARK VINA RESULT:    -4.008      1.386      2.661
REMARK INTER + INTRA:          -5.795
REMARK INTER:                  -5.561
REMARK INTRA:                  -0.234
REMARK UNBOUND:                -0.498
REMARK  Name = 1551246
REMARK  7 active torsions:
REMARK  status: ('A' for Active; 'I' for Inactive)
REMARK    1  A    between atoms: C_2  and  C_3
REMARK    2  A    between atoms: C_2  and  C_4
REMARK    3  A    between atoms: C_3  and  C_5
REMARK    4  A    between atoms: C_4  and  C_7
REMARK    5  A    between atoms: C_6  and  C_8
REMARK    6  A    between atoms: C_6  and  C_9
REMARK    7  A    between atoms: C_10  and  C_11
REMARK                            x       y       z     vdW  Elec       q    Type
REMARK                         _______ _______ _______ _____ _____    ______ ____
ROOT
ATOM      1  C   UNL     1      -0.595   9.540 -12.082  0.00  0.00    +0.000 C 
ATOM      2  H   UNL     1      -0.992   8.608 -12.504  0.00  0.00    +0.000 HD
ATOM      3  H   UNL     1       0.467   9.336 -11.903  0.00  0.00    +0.000 HD
ENDROOT
BRANCH   1   4
ATOM      4  C   UNL     1      -0.736  10.688 -13.090  0.00  0.00    +0.000 C 
ATOM      5  H   UNL     1      -0.404  11.620 -12.617  0.00  0.00    +0.000 HD
ATOM      6  H   UNL     1      -1.795  10.836 -13.333  0.00  0.00    +0.000 HD
BRANCH   4   7
ATOM      7  C   UNL     1       0.060  10.483 -14.366  0.00  0.00    +0.000 C 
ATOM      8  C   UNL     1       0.225   9.296 -14.980  0.00  0.00    +0.000 C 
ATOM      9  H   UNL     1      -0.217   8.406 -14.542  0.00  0.00    +0.000 HD
BRANCH   7  10
ATOM     10  C   UNL     1       0.654  11.731 -14.964  0.00  0.00    +0.000 C 
ATOM     11  H   UNL     1       1.418  12.213 -14.346  0.00  0.00    +0.000 HD
ATOM     12  H   UNL     1       1.139  11.494 -15.918  0.00  0.00    +0.000 HD
ATOM     13  H   UNL     1      -0.129  12.472 -15.155  0.00  0.00    +0.000 HD
ENDBRANCH   7  10
BRANCH   8  15
ATOM     14  N   UNL     1       1.526   8.979 -17.187  0.00  0.00    +0.000 NA
ATOM     15  C   UNL     1       0.946   9.121 -16.193  0.00  0.00    +0.000 C 
ENDBRANCH   8  15
ENDBRANCH   4   7
ENDBRANCH   1   4
BRANCH   1  16
ATOM     16  C   UNL     1      -1.309   9.819 -10.788  0.00  0.00    +0.000 C 
ATOM     17  C   UNL     1      -2.143   9.011 -10.107  0.00  0.00    +0.000 C 
ATOM     18  H   UNL     1      -1.109  10.802 -10.364  0.00  0.00    +0.000 HD
BRANCH  17  19
ATOM     19  C   UNL     1      -2.825   9.355  -8.813  0.00  0.00    +0.000 C 
ATOM     20  H   UNL     1      -2.852   8.484  -8.153  0.00  0.00    +0.000 HD
ATOM     21  H   UNL     1      -2.294  10.166  -8.305  0.00  0.00    +0.000 HD
ATOM     22  H   UNL     1      -3.857   9.683  -8.979  0.00  0.00    +0.000 HD
ENDBRANCH  17  19
BRANCH  17  23
ATOM     23  C   UNL     1      -2.452   7.631 -10.622  0.00  0.00    +0.000 C 
ATOM     24  H   UNL     1      -1.784   7.387 -11.455  0.00  0.00    +0.000 HD
ATOM     25  H   UNL     1      -3.472   7.495 -10.986  0.00  0.00    +0.000 HD
ATOM     26  H   UNL     1      -2.288   6.893  -9.829  0.00  0.00    +0.000 HD
ENDBRANCH  17  23
ENDBRANCH   1  16
TORSDOF 7
ENDMDL
MODEL 10
REMARK VINA RESULT:    -3.996     18.049     19.068
REMARK INTER + INTRA:          -5.780
REMARK INTER:                  -5.281
REMARK INTRA:                  -0.498
REMARK UNBOUND:                -0.498
REMARK  Name = 1551246
REMARK  7 active torsions:
REMARK  status: ('A' for Active; 'I' for Inactive)
REMARK    1  A    between atoms: C_2  and  C_3
REMARK    2  A    between atoms: C_2  and  C_4
REMARK    3  A    between atoms: C_3  and  C_5
REMARK    4  A    between atoms: C_4  and  C_7
REMARK    5  A    between atoms: C_6  and  C_8
REMARK    6  A    between atoms: C_6  and  C_9
REMARK    7  A    between atoms: C_10  and  C_11
REMARK                            x       y       z     vdW  Elec       q    Type
REMARK                         _______ _______ _______ _____ _____    ______ ____
ROOT
ATOM      1  C   UNL     1      -7.701  11.199   5.108  0.00  0.00    +0.000 C 
ATOM      2  H   UNL     1      -7.388  10.433   4.387  0.00  0.00    +0.000 HD
ATOM      3  H   UNL     1      -6.766  11.586   5.530  0.00  0.00    +0.000 HD
ENDROOT
BRANCH   1   4
ATOM      4  C   UNL     1      -8.451  12.331   4.393  0.00  0.00    +0.000 C 
ATOM      5  H   UNL     1      -9.468  12.395   4.798  0.00  0.00    +0.000 HD
ATOM      6  H   UNL     1      -8.566  12.083   3.331  0.00  0.00    +0.000 HD
BRANCH   4   7
ATOM      7  C   UNL     1      -7.788  13.688   4.534  0.00  0.00    +0.000 C 
ATOM      8  C   UNL     1      -8.342  14.853   4.148  0.00  0.00    +0.000 C 
ATOM      9  H   UNL     1      -9.325  14.844   3.684  0.00  0.00    +0.000 HD
BRANCH   7  10
ATOM     10  C   UNL     1      -6.432  13.680   5.191  0.00  0.00    +0.000 C 
ATOM     11  H   UNL     1      -5.594  13.538   4.503  0.00  0.00    +0.000 HD
ATOM     12  H   UNL     1      -6.255  14.638   5.694  0.00  0.00    +0.000 HD
ATOM     13  H   UNL     1      -6.378  12.886   5.943  0.00  0.00    +0.000 HD
ENDBRANCH   7  10
BRANCH   8  15
ATOM     14  N   UNL     1      -7.229  17.163   4.447  0.00  0.00    +0.000 NA
ATOM     15  C   UNL     1      -7.726  16.123   4.316  0.00  0.00    +0.000 C 
ENDBRANCH   8  15
ENDBRANCH   4   7
ENDBRANCH   1   4
BRANCH   1  16
ATOM     16  C   UNL     1      -8.534  10.539   6.172  0.00  0.00    +0.000 C 
ATOM     17  C   UNL     1      -8.582  10.825   7.487  0.00  0.00    +0.000 C 
ATOM     18  H   UNL     1      -9.173   9.735   5.812  0.00  0.00    +0.000 HD
BRANCH  17  19
ATOM     19  C   UNL     1      -9.442  10.122   8.499  0.00  0.00    +0.000 C 
ATOM     20  H   UNL     1      -8.835   9.453   9.116  0.00  0.00    +0.000 HD
ATOM     21  H   UNL     1      -9.936  10.850   9.152  0.00  0.00    +0.000 HD
ATOM     22  H   UNL     1     -10.220   9.522   8.018  0.00  0.00    +0.000 HD
ENDBRANCH  17  19
BRANCH  17  23
ATOM     23  C   UNL     1      -7.741  11.937   8.054  0.00  0.00    +0.000 C 
ATOM     24  H   UNL     1      -8.303  12.877   8.031  0.00  0.00    +0.000 HD
ATOM     25  H   UNL     1      -6.803  12.118   7.525  0.00  0.00    +0.000 HD
ATOM     26  H   UNL     1      -7.488  11.718   9.097  0.00  0.00    +0.000 HD
ENDBRANCH  17  23
ENDBRANCH   1  16
TORSDOF 7
ENDMDL
