MODEL 1
REMARK VINA RESULT:    -4.603      0.000      0.000
REMARK INTER + INTRA:          -4.603
REMARK INTER:                  -4.603
REMARK INTRA:                   0.000
REMARK UNBOUND:                 0.000
REMARK  Name = 7967
REMARK  0 active torsions:
REMARK  status: ('A' for Active; 'I' for Inactive)
REMARK                            x       y       z     vdW  Elec       q    Type
REMARK                         _______ _______ _______ _____ _____    ______ ____
ROOT
ATOM      1  O   UNL     1      -0.909  10.141 -10.471  0.00  0.00    +0.000 OA
ATOM      2  C   UNL     1      -3.501   7.066  -9.670  0.00  0.00    +0.000 C 
ATOM      3  C   UNL     1      -2.418   6.950 -10.740  0.00  0.00    +0.000 C 
ATOM      4  C   UNL     1      -3.108   8.089  -8.606  0.00  0.00    +0.000 C 
ATOM      5  C   UNL     1      -2.126   8.293 -11.395  0.00  0.00    +0.000 C 
ATOM      6  C   UNL     1      -2.833   9.457  -9.214  0.00  0.00    +0.000 C 
ATOM      7  C   UNL     1      -1.840   9.346 -10.349  0.00  0.00    +0.000 C 
ATOM      8  H   UNL     1      -4.451   7.357 -10.134  0.00  0.00    +0.000 HD
ATOM      9  H   UNL     1      -3.658   6.089  -9.200  0.00  0.00    +0.000 HD
ATOM     10  H   UNL     1      -2.728   6.228 -11.503  0.00  0.00    +0.000 HD
ATOM     11  H   UNL     1      -1.501   6.560 -10.282  0.00  0.00    +0.000 HD
ATOM     12  H   UNL     1      -2.213   7.735  -8.081  0.00  0.00    +0.000 HD
ATOM     13  H   UNL     1      -3.907   8.171  -7.860  0.00  0.00    +0.000 HD
ATOM     14  H   UNL     1      -2.980   8.631 -11.993  0.00  0.00    +0.000 HD
ATOM     15  H   UNL     1      -1.259   8.202 -12.060  0.00  0.00    +0.000 HD
ATOM     16  H   UNL     1      -2.430  10.129  -8.449  0.00  0.00    +0.000 HD
ATOM     17  H   UNL     1      -3.752   9.901  -9.610  0.00  0.00    +0.000 HD
ENDROOT
TORSDOF 0
ENDMDL
MODEL 2
REMARK VINA RESULT:    -4.390      0.997      2.195
REMARK INTER + INTRA:          -4.390
REMARK INTER:                  -4.390
REMARK INTRA:                   0.000
REMARK UNBOUND:                 0.000
REMARK  Name = 7967
REMARK  0 active torsions:
REMARK  status: ('A' for Active; 'I' for Inactive)
REMARK                            x       y       z     vdW  Elec       q    Type
REMARK                         _______ _______ _______ _____ _____    ______ ____
ROOT
ATOM      1  O   UNL     1      -1.816   8.744 -12.466  0.00  0.00    +0.000 OA
ATOM      2  C   UNL     1      -3.067   8.069  -8.620  0.00  0.00    +0.000 C 
ATOM      3  C   UNL     1      -2.826   9.479  -9.154  0.00  0.00    +0.000 C 
ATOM      4  C   UNL     1      -3.397   7.105  -9.757  0.00  0.00    +0.000 C 
ATOM      5  C   UNL     1      -1.715   9.506 -10.195  0.00  0.00    +0.000 C 
ATOM      6  C   UNL     1      -2.298   7.078 -10.810  0.00  0.00    +0.000 C 
ATOM      7  C   UNL     1      -1.971   8.479 -11.275  0.00  0.00    +0.000 C 
ATOM      8  H   UNL     1      -2.178   7.719  -8.081  0.00  0.00    +0.000 HD
ATOM      9  H   UNL     1      -3.894   8.086  -7.901  0.00  0.00    +0.000 HD
ATOM     10  H   UNL     1      -2.571  10.150  -8.326  0.00  0.00    +0.000 HD
ATOM     11  H   UNL     1      -3.754   9.858  -9.600  0.00  0.00    +0.000 HD
ATOM     12  H   UNL     1      -4.342   7.408 -10.222  0.00  0.00    +0.000 HD
ATOM     13  H   UNL     1      -3.546   6.096  -9.355  0.00  0.00    +0.000 HD
ATOM     14  H   UNL     1      -0.745   9.283  -9.738  0.00  0.00    +0.000 HD
ATOM     15  H   UNL     1      -1.656  10.501 -10.651  0.00  0.00    +0.000 HD
ATOM     16  H   UNL     1      -2.621   6.482 -11.670  0.00  0.00    +0.000 HD
ATOM     17  H   UNL     1      -1.382   6.631 -10.409  0.00  0.00    +0.000 HD
ENDROOT
TORSDOF 0
ENDMDL
MODEL 3
REMARK VINA RESULT:    -4.198      1.454      2.013
REMARK INTER + INTRA:          -4.198
REMARK INTER:                  -4.198
REMARK INTRA:                   0.000
REMARK UNBOUND:                 0.000
REMARK  Name = 7967
REMARK  0 active torsions:
REMARK  status: ('A' for Active; 'I' for Inactive)
REMARK                            x       y       z     vdW  Elec       q    Type
REMARK                         _______ _______ _______ _____ _____    ______ ____
ROOT
ATOM      1  O   UNL     1      -2.532   8.177 -12.556  0.00  0.00    +0.000 OA
ATOM      2  C   UNL     1      -3.182   8.225  -8.507  0.00  0.00    +0.000 C 
ATOM      3  C   UNL     1      -3.198   6.927  -9.311  0.00  0.00    +0.000 C 
ATOM      4  C   UNL     1      -2.329   9.286  -9.201  0.00  0.00    +0.000 C 
ATOM      5  C   UNL     1      -3.701   7.149 -10.731  0.00  0.00    +0.000 C 
ATOM      6  C   UNL     1      -2.813   9.561 -10.617  0.00  0.00    +0.000 C 
ATOM      7  C   UNL     1      -2.938   8.271 -11.398  0.00  0.00    +0.000 C 
ATOM      8  H   UNL     1      -4.206   8.596  -8.381  0.00  0.00    +0.000 HD
ATOM      9  H   UNL     1      -2.783   8.031  -7.505  0.00  0.00    +0.000 HD
ATOM     10  H   UNL     1      -3.831   6.188  -8.808  0.00  0.00    +0.000 HD
ATOM     11  H   UNL     1      -2.183   6.512  -9.344  0.00  0.00    +0.000 HD
ATOM     12  H   UNL     1      -1.287   8.945  -9.230  0.00  0.00    +0.000 HD
ATOM     13  H   UNL     1      -2.348  10.214  -8.618  0.00  0.00    +0.000 HD
ATOM     14  H   UNL     1      -4.764   7.414 -10.733  0.00  0.00    +0.000 HD
ATOM     15  H   UNL     1      -3.577   6.232 -11.317  0.00  0.00    +0.000 HD
ATOM     16  H   UNL     1      -2.108  10.223 -11.130  0.00  0.00    +0.000 HD
ATOM     17  H   UNL     1      -3.794  10.047 -10.608  0.00  0.00    +0.000 HD
ENDROOT
TORSDOF 0
ENDMDL
MODEL 4
REMARK VINA RESULT:    -4.141      1.910      2.700
REMARK INTER + INTRA:          -4.141
REMARK INTER:                  -4.141
REMARK INTRA:                   0.000
REMARK UNBOUND:                 0.000
REMARK  Name = 7967
REMARK  0 active torsions:
REMARK  status: ('A' for Active; 'I' for Inactive)
REMARK                            x       y       z     vdW  Elec       q    Type
REMARK                         _______ _______ _______ _____ _____    ______ ____
ROOT
ATOM      1  O   UNL     1      -4.173   6.478 -10.054  0.00  0.00    +0.000 OA
ATOM      2  C   UNL     1      -1.602   9.672  -9.974  0.00  0.00    +0.000 C 
ATOM      3  C   UNL     1      -1.857   8.874 -11.250  0.00  0.00    +0.000 C 
ATOM      4  C   UNL     1      -2.790   9.567  -9.019  0.00  0.00    +0.000 C 
ATOM      5  C   UNL     1      -2.153   7.411 -10.951  0.00  0.00    +0.000 C 
ATOM      6  C   UNL     1      -3.106   8.120  -8.669  0.00  0.00    +0.000 C 
ATOM      7  C   UNL     1      -3.257   7.289  -9.924  0.00  0.00    +0.000 C 
ATOM      8  H   UNL     1      -0.695   9.304  -9.480  0.00  0.00    +0.000 HD
ATOM      9  H   UNL     1      -1.427  10.724 -10.228  0.00  0.00    +0.000 HD
ATOM     10  H   UNL     1      -0.987   8.945 -11.911  0.00  0.00    +0.000 HD
ATOM     11  H   UNL     1      -2.706   9.316 -11.787  0.00  0.00    +0.000 HD
ATOM     12  H   UNL     1      -3.667  10.031  -9.485  0.00  0.00    +0.000 HD
ATOM     13  H   UNL     1      -2.578  10.130  -8.102  0.00  0.00    +0.000 HD
ATOM     14  H   UNL     1      -1.266   6.904 -10.557  0.00  0.00    +0.000 HD
ATOM     15  H   UNL     1      -2.460   6.898 -11.869  0.00  0.00    +0.000 HD
ATOM     16  H   UNL     1      -4.035   8.071  -8.093  0.00  0.00    +0.000 HD
ATOM     17  H   UNL     1      -2.305   7.680  -8.065  0.00  0.00    +0.000 HD
ENDROOT
TORSDOF 0
ENDMDL
MODEL 5
REMARK VINA RESULT:    -4.114     12.238     12.989
REMARK INTER + INTRA:          -4.114
REMARK INTER:                  -4.114
REMARK INTRA:                   0.000
REMARK UNBOUND:                 0.000
REMARK  Name = 7967
REMARK  0 active torsions:
REMARK  status: ('A' for Active; 'I' for Inactive)
REMARK                            x       y       z     vdW  Elec       q    Type
REMARK                         _______ _______ _______ _____ _____    ______ ____
ROOT
ATOM      1  O   UNL     1       2.877   9.677   2.153  0.00  0.00    +0.000 OA
ATOM      2  C   UNL     1       5.505  10.672  -0.833  0.00  0.00    +0.000 C 
ATOM      3  C   UNL     1       5.635   9.371  -0.045  0.00  0.00    +0.000 C 
ATOM      4  C   UNL     1       4.061  11.170  -0.829  0.00  0.00    +0.000 C 
ATOM      5  C   UNL     1       5.145   9.528   1.388  0.00  0.00    +0.000 C 
ATOM      6  C   UNL     1       3.536  11.368   0.586  0.00  0.00    +0.000 C 
ATOM      7  C   UNL     1       3.754  10.122   1.414  0.00  0.00    +0.000 C 
ATOM      8  H   UNL     1       6.162  11.436  -0.400  0.00  0.00    +0.000 HD
ATOM      9  H   UNL     1       5.835  10.510  -1.865  0.00  0.00    +0.000 HD
ATOM     10  H   UNL     1       6.680   9.043  -0.042  0.00  0.00    +0.000 HD
ATOM     11  H   UNL     1       5.053   8.588  -0.546  0.00  0.00    +0.000 HD
ATOM     12  H   UNL     1       3.430  10.444  -1.355  0.00  0.00    +0.000 HD
ATOM     13  H   UNL     1       3.994  12.114  -1.383  0.00  0.00    +0.000 HD
ATOM     14  H   UNL     1       5.807  10.189   1.958  0.00  0.00    +0.000 HD
ATOM     15  H   UNL     1       5.128   8.551   1.885  0.00  0.00    +0.000 HD
ATOM     16  H   UNL     1       2.466  11.597   0.557  0.00  0.00    +0.000 HD
ATOM     17  H   UNL     1       4.051  12.199   1.081  0.00  0.00    +0.000 HD
ENDROOT
TORSDOF 0
ENDMDL
MODEL 6
REMARK VINA RESULT:    -4.053      1.752      3.152
REMARK INTER + INTRA:          -4.053
REMARK INTER:                  -4.053
REMARK INTRA:                   0.000
REMARK UNBOUND:                 0.000
REMARK  Name = 7967
REMARK  0 active torsions:
REMARK  status: ('A' for Active; 'I' for Inactive)
REMARK                            x       y       z     vdW  Elec       q    Type
REMARK                         _______ _______ _______ _____ _____    ______ ____
ROOT
ATOM      1  O   UNL     1      -3.188   7.265  -8.747  0.00  0.00    +0.000 OA
ATOM      2  C   UNL     1      -1.229   9.216 -11.776  0.00  0.00    +0.000 C 
ATOM      3  C   UNL     1      -1.388   9.834 -10.389  0.00  0.00    +0.000 C 
ATOM      4  C   UNL     1      -1.289   7.691 -11.703  0.00  0.00    +0.000 C 
ATOM      5  C   UNL     1      -2.686   9.398  -9.723  0.00  0.00    +0.000 C 
ATOM      6  C   UNL     1      -2.585   7.208 -11.067  0.00  0.00    +0.000 C 
ATOM      7  C   UNL     1      -2.813   7.891  -9.738  0.00  0.00    +0.000 C 
ATOM      8  H   UNL     1      -2.018   9.588 -12.441  0.00  0.00    +0.000 HD
ATOM      9  H   UNL     1      -0.270   9.525 -12.207  0.00  0.00    +0.000 HD
ATOM     10  H   UNL     1      -1.363  10.926 -10.466  0.00  0.00    +0.000 HD
ATOM     11  H   UNL     1      -0.538   9.536  -9.763  0.00  0.00    +0.000 HD
ATOM     12  H   UNL     1      -0.436   7.326 -11.119  0.00  0.00    +0.000 HD
ATOM     13  H   UNL     1      -1.193   7.269 -12.711  0.00  0.00    +0.000 HD
ATOM     14  H   UNL     1      -3.554   9.817 -10.243  0.00  0.00    +0.000 HD
ATOM     15  H   UNL     1      -2.708   9.750  -8.685  0.00  0.00    +0.000 HD
ATOM     16  H   UNL     1      -2.541   6.125 -10.911  0.00  0.00    +0.000 HD
ATOM     17  H   UNL     1      -3.442   7.426 -11.713  0.00  0.00    +0.000 HD
ENDROOT
TORSDOF 0
ENDMDL
MODEL 7
REMARK VINA RESULT:    -3.953      1.219      2.339
REMARK INTER + INTRA:          -3.953
REMARK INTER:                  -3.953
REMARK INTRA:                   0.000
REMARK UNBOUND:                 0.000
REMARK  Name = 7967
REMARK  0 active torsions:
REMARK  status: ('A' for Active; 'I' for Inactive)
REMARK                            x       y       z     vdW  Elec       q    Type
REMARK                         _______ _______ _______ _____ _____    ______ ____
ROOT
ATOM      1  O   UNL     1      -3.135  10.137  -9.615  0.00  0.00    +0.000 OA
ATOM      2  C   UNL     1      -1.687   6.854 -11.602  0.00  0.00    +0.000 C 
ATOM      3  C   UNL     1      -2.935   6.781 -10.725  0.00  0.00    +0.000 C 
ATOM      4  C   UNL     1      -1.469   8.274 -12.121  0.00  0.00    +0.000 C 
ATOM      5  C   UNL     1      -2.862   7.755  -9.557  0.00  0.00    +0.000 C 
ATOM      6  C   UNL     1      -1.362   9.280 -10.984  0.00  0.00    +0.000 C 
ATOM      7  C   UNL     1      -2.539   9.149 -10.044  0.00  0.00    +0.000 C 
ATOM      8  H   UNL     1      -0.811   6.530 -11.028  0.00  0.00    +0.000 HD
ATOM      9  H   UNL     1      -1.792   6.166 -12.448  0.00  0.00    +0.000 HD
ATOM     10  H   UNL     1      -3.062   5.761 -10.347  0.00  0.00    +0.000 HD
ATOM     11  H   UNL     1      -3.817   7.009 -11.337  0.00  0.00    +0.000 HD
ATOM     12  H   UNL     1      -2.304   8.549 -12.776  0.00  0.00    +0.000 HD
ATOM     13  H   UNL     1      -0.558   8.309 -12.731  0.00  0.00    +0.000 HD
ATOM     14  H   UNL     1      -2.085   7.455  -8.846  0.00  0.00    +0.000 HD
ATOM     15  H   UNL     1      -3.821   7.772  -9.027  0.00  0.00    +0.000 HD
ATOM     16  H   UNL     1      -1.337  10.297 -11.389  0.00  0.00    +0.000 HD
ATOM     17  H   UNL     1      -0.446   9.121 -10.405  0.00  0.00    +0.000 HD
ENDROOT
TORSDOF 0
ENDMDL
MODEL 8
REMARK VINA RESULT:    -3.894     16.519     17.725
REMARK INTER + INTRA:          -3.894
REMARK INTER:                  -3.894
REMARK INTRA:                   0.000
REMARK UNBOUND:                 0.000
REMARK  Name = 7967
REMARK  0 active torsions:
REMARK  status: ('A' for Active; 'I' for Inactive)
REMARK                            x       y       z     vdW  Elec       q    Type
REMARK                         _______ _______ _______ _____ _____    ______ ____
ROOT
ATOM      1  O   UNL     1      -8.204  13.449   8.154  0.00  0.00    +0.000 OA
ATOM      2  C   UNL     1      -7.265  11.554   4.641  0.00  0.00    +0.000 C 
ATOM      3  C   UNL     1      -8.429  11.097   5.517  0.00  0.00    +0.000 C 
ATOM      4  C   UNL     1      -6.960  13.034   4.867  0.00  0.00    +0.000 C 
ATOM      5  C   UNL     1      -8.156  11.351   6.994  0.00  0.00    +0.000 C 
ATOM      6  C   UNL     1      -6.654  13.330   6.328  0.00  0.00    +0.000 C 
ATOM      7  C   UNL     1      -7.748  12.789   7.222  0.00  0.00    +0.000 C 
ATOM      8  H   UNL     1      -6.375  10.953   4.863  0.00  0.00    +0.000 HD
ATOM      9  H   UNL     1      -7.513  11.387   3.587  0.00  0.00    +0.000 HD
ATOM     10  H   UNL     1      -8.618  10.031   5.356  0.00  0.00    +0.000 HD
ATOM     11  H   UNL     1      -9.338  11.634   5.216  0.00  0.00    +0.000 HD
ATOM     12  H   UNL     1      -7.822  13.631   4.546  0.00  0.00    +0.000 HD
ATOM     13  H   UNL     1      -6.110  13.336   4.244  0.00  0.00    +0.000 HD
ATOM     14  H   UNL     1      -7.350  10.707   7.359  0.00  0.00    +0.000 HD
ATOM     15  H   UNL     1      -9.057  11.136   7.581  0.00  0.00    +0.000 HD
ATOM     16  H   UNL     1      -6.569  14.411   6.479  0.00  0.00    +0.000 HD
ATOM     17  H   UNL     1      -5.709  12.867   6.631  0.00  0.00    +0.000 HD
ENDROOT
TORSDOF 0
ENDMDL
MODEL 9
REMARK VINA RESULT:    -3.780     12.627     13.234
REMARK INTER + INTRA:          -3.780
REMARK INTER:                  -3.780
REMARK INTRA:                   0.000
REMARK UNBOUND:                 0.000
REMARK  Name = 7967
REMARK  0 active torsions:
REMARK  status: ('A' for Active; 'I' for Inactive)
REMARK                            x       y       z     vdW  Elec       q    Type
REMARK                         _______ _______ _______ _____ _____    ______ ____
ROOT
ATOM      1  O   UNL     1       4.283  10.871  -0.882  0.00  0.00    +0.000 OA
ATOM      2  C   UNL     1       8.009   9.224  -0.417  0.00  0.00    +0.000 C 
ATOM      3  C   UNL     1       6.735   8.418  -0.175  0.00  0.00    +0.000 C 
ATOM      4  C   UNL     1       7.750  10.375  -1.388  0.00  0.00    +0.000 C 
ATOM      5  C   UNL     1       5.605   9.293   0.348  0.00  0.00    +0.000 C 
ATOM      6  C   UNL     1       6.643  11.293  -0.891  0.00  0.00    +0.000 C 
ATOM      7  C   UNL     1       5.405  10.497  -0.544  0.00  0.00    +0.000 C 
ATOM      8  H   UNL     1       8.385   9.618   0.534  0.00  0.00    +0.000 HD
ATOM      9  H   UNL     1       8.786   8.568  -0.825  0.00  0.00    +0.000 HD
ATOM     10  H   UNL     1       6.937   7.612   0.538  0.00  0.00    +0.000 HD
ATOM     11  H   UNL     1       6.425   7.945  -1.116  0.00  0.00    +0.000 HD
ATOM     12  H   UNL     1       7.472   9.963  -2.366  0.00  0.00    +0.000 HD
ATOM     13  H   UNL     1       8.671  10.952  -1.532  0.00  0.00    +0.000 HD
ATOM     14  H   UNL     1       5.824   9.652   1.359  0.00  0.00    +0.000 HD
ATOM     15  H   UNL     1       4.674   8.715   0.386  0.00  0.00    +0.000 HD
ATOM     16  H   UNL     1       6.393  12.027  -1.664  0.00  0.00    +0.000 HD
ATOM     17  H   UNL     1       6.959  11.837   0.006  0.00  0.00    +0.000 HD
ENDROOT
TORSDOF 0
ENDMDL
MODEL 10
REMARK VINA RESULT:    -3.749      8.430      9.220
REMARK INTER + INTRA:          -3.749
REMARK INTER:                  -3.749
REMARK INTRA:                   0.000
REMARK UNBOUND:                 0.000
REMARK  Name = 7967
REMARK  0 active torsions:
REMARK  status: ('A' for Active; 'I' for Inactive)
REMARK                            x       y       z     vdW  Elec       q    Type
REMARK                         _______ _______ _______ _____ _____    ______ ____
ROOT
ATOM      1  O   UNL     1      -9.600   7.561  -6.194  0.00  0.00    +0.000 OA
ATOM      2  C   UNL     1      -9.505   3.662  -4.927  0.00  0.00    +0.000 C 
ATOM      3  C   UNL     1     -10.686   4.227  -5.713  0.00  0.00    +0.000 C 
ATOM      4  C   UNL     1      -8.228   4.446  -5.226  0.00  0.00    +0.000 C 
ATOM      5  C   UNL     1     -10.905   5.704  -5.419  0.00  0.00    +0.000 C 
ATOM      6  C   UNL     1      -8.392   5.928  -4.920  0.00  0.00    +0.000 C 
ATOM      7  C   UNL     1      -9.621   6.481  -5.605  0.00  0.00    +0.000 C 
ATOM      8  H   UNL     1      -9.721   3.699  -3.853  0.00  0.00    +0.000 HD
ATOM      9  H   UNL     1      -9.359   2.609  -5.191  0.00  0.00    +0.000 HD
ATOM     10  H   UNL     1     -11.594   3.665  -5.469  0.00  0.00    +0.000 HD
ATOM     11  H   UNL     1     -10.502   4.091  -6.786  0.00  0.00    +0.000 HD
ATOM     12  H   UNL     1      -7.966   4.317  -6.283  0.00  0.00    +0.000 HD
ATOM     13  H   UNL     1      -7.397   4.038  -4.637  0.00  0.00    +0.000 HD
ATOM     14  H   UNL     1     -11.244   5.853  -4.388  0.00  0.00    +0.000 HD
ATOM     15  H   UNL     1     -11.670   6.108  -6.091  0.00  0.00    +0.000 HD
ATOM     16  H   UNL     1      -7.510   6.478  -5.265  0.00  0.00    +0.000 HD
ATOM     17  H   UNL     1      -8.499   6.096  -3.843  0.00  0.00    +0.000 HD
ENDROOT
TORSDOF 0
ENDMDL
