MODEL 1
REMARK VINA RESULT:    -3.622      0.000      0.000
REMARK INTER + INTRA:          -4.045
REMARK INTER:                  -4.045
REMARK INTRA:                   0.000
REMARK UNBOUND:                 0.000
REMARK  Name = 650
REMARK  3 active torsions:
REMARK  status: ('A' for Active; 'I' for Inactive)
REMARK    1  A    between atoms: C_3  and  C_4
REMARK    2  A    between atoms: C_3  and  C_5
REMARK    3  A    between atoms: C_4  and  C_6
REMARK                            x       y       z     vdW  Elec       q    Type
REMARK                         _______ _______ _______ _____ _____    ______ ____
ROOT
ATOM      1  O   UNL     1       3.188  10.366   2.075  0.00  0.00    +0.000 OA
ATOM      2  C   UNL     1       3.573  10.164   0.931  0.00  0.00    +0.000 C 
ENDROOT
BRANCH   2   3
ATOM      3  C   UNL     1       3.820   8.796   0.369  0.00  0.00    +0.000 C 
ATOM      4  H   UNL     1       4.875   8.681   0.110  0.00  0.00    +0.000 HD
ATOM      5  H   UNL     1       3.228   8.668  -0.542  0.00  0.00    +0.000 HD
ATOM      6  H   UNL     1       3.512   8.033   1.086  0.00  0.00    +0.000 HD
ENDBRANCH   2   3
BRANCH   2   8
ATOM      7  O   UNL     1       4.398  12.326   0.524  0.00  0.00    +0.000 OA
ATOM      8  C   UNL     1       3.810  11.366   0.042  0.00  0.00    +0.000 C 
BRANCH   8   9
ATOM      9  C   UNL     1       3.316  11.322  -1.373  0.00  0.00    +0.000 C 
ATOM     10  H   UNL     1       3.919  10.623  -1.959  0.00  0.00    +0.000 HD
ATOM     11  H   UNL     1       2.280  10.972  -1.382  0.00  0.00    +0.000 HD
ATOM     12  H   UNL     1       3.345  12.321  -1.812  0.00  0.00    +0.000 HD
ENDBRANCH   8   9
ENDBRANCH   2   8
TORSDOF 3
ENDMDL
MODEL 2
REMARK VINA RESULT:    -3.553      0.461      2.652
REMARK INTER + INTRA:          -3.968
REMARK INTER:                  -3.968
REMARK INTRA:                   0.000
REMARK UNBOUND:                 0.000
REMARK  Name = 650
REMARK  3 active torsions:
REMARK  status: ('A' for Active; 'I' for Inactive)
REMARK    1  A    between atoms: C_3  and  C_4
REMARK    2  A    between atoms: C_3  and  C_5
REMARK    3  A    between atoms: C_4  and  C_6
REMARK                            x       y       z     vdW  Elec       q    Type
REMARK                         _______ _______ _______ _____ _____    ______ ____
ROOT
ATOM      1  O   UNL     1       4.573  12.394   0.559  0.00  0.00    +0.000 OA
ATOM      2  C   UNL     1       3.979  11.403   0.155  0.00  0.00    +0.000 C 
ENDROOT
BRANCH   2   3
ATOM      3  C   UNL     1       3.360  11.304  -1.207  0.00  0.00    +0.000 C 
ATOM      4  H   UNL     1       3.005  12.285  -1.531  0.00  0.00    +0.000 HD
ATOM      5  H   UNL     1       2.502  10.627  -1.165  0.00  0.00    +0.000 HD
ATOM      6  H   UNL     1       4.081  10.898  -1.920  0.00  0.00    +0.000 HD
ENDBRANCH   2   3
BRANCH   2   8
ATOM      7  O   UNL     1       3.090  10.302   2.031  0.00  0.00    +0.000 OA
ATOM      8  C   UNL     1       3.868  10.217   1.089  0.00  0.00    +0.000 C 
BRANCH   8   9
ATOM      9  C   UNL     1       4.710   9.007   0.817  0.00  0.00    +0.000 C 
ATOM     10  H   UNL     1       5.250   8.713   1.721  0.00  0.00    +0.000 HD
ATOM     11  H   UNL     1       4.063   8.176   0.521  0.00  0.00    +0.000 HD
ATOM     12  H   UNL     1       5.405   9.208  -0.001  0.00  0.00    +0.000 HD
ENDBRANCH   8   9
ENDBRANCH   2   8
TORSDOF 3
ENDMDL
MODEL 3
REMARK VINA RESULT:    -3.295     28.242     28.860
REMARK INTER + INTRA:          -3.681
REMARK INTER:                  -3.681
REMARK INTRA:                   0.000
REMARK UNBOUND:                 0.000
REMARK  Name = 650
REMARK  3 active torsions:
REMARK  status: ('A' for Active; 'I' for Inactive)
REMARK    1  A    between atoms: C_3  and  C_4
REMARK    2  A    between atoms: C_3  and  C_5
REMARK    3  A    between atoms: C_4  and  C_6
REMARK                            x       y       z     vdW  Elec       q    Type
REMARK                         _______ _______ _______ _____ _____    ______ ____
ROOT
ATOM      1  O   UNL     1      -9.298  -9.073  14.309  0.00  0.00    +0.000 OA
ATOM      2  C   UNL     1      -9.412 -10.121  14.932  0.00  0.00    +0.000 C 
ENDROOT
BRANCH   2   3
ATOM      3  C   UNL     1     -10.526 -10.396  15.895  0.00  0.00    +0.000 C 
ATOM      4  H   UNL     1     -10.488  -9.688  16.727  0.00  0.00    +0.000 HD
ATOM      5  H   UNL     1     -10.411 -11.406  16.301  0.00  0.00    +0.000 HD
ATOM      6  H   UNL     1     -11.489 -10.341  15.383  0.00  0.00    +0.000 HD
ENDBRANCH   2   3
BRANCH   2   8
ATOM      7  O   UNL     1      -7.911 -11.321  13.579  0.00  0.00    +0.000 OA
ATOM      8  C   UNL     1      -8.364 -11.191  14.709  0.00  0.00    +0.000 C 
BRANCH   8   9
ATOM      9  C   UNL     1      -7.937 -12.031  15.875  0.00  0.00    +0.000 C 
ATOM     10  H   UNL     1      -7.309 -12.857  15.533  0.00  0.00    +0.000 HD
ATOM     11  H   UNL     1      -7.350 -11.419  16.565  0.00  0.00    +0.000 HD
ATOM     12  H   UNL     1      -8.813 -12.405  16.409  0.00  0.00    +0.000 HD
ENDBRANCH   8   9
ENDBRANCH   2   8
TORSDOF 3
ENDMDL
MODEL 4
REMARK VINA RESULT:    -3.263     11.673     12.269
REMARK INTER + INTRA:          -3.645
REMARK INTER:                  -3.645
REMARK INTRA:                   0.000
REMARK UNBOUND:                 0.000
REMARK  Name = 650
REMARK  3 active torsions:
REMARK  status: ('A' for Active; 'I' for Inactive)
REMARK    1  A    between atoms: C_3  and  C_4
REMARK    2  A    between atoms: C_3  and  C_5
REMARK    3  A    between atoms: C_4  and  C_6
REMARK                            x       y       z     vdW  Elec       q    Type
REMARK                         _______ _______ _______ _____ _____    ______ ____
ROOT
ATOM      1  O   UNL     1      -2.149   7.080 -10.829  0.00  0.00    +0.000 OA
ATOM      2  C   UNL     1      -2.721   7.542  -9.851  0.00  0.00    +0.000 C 
ENDROOT
BRANCH   2   3
ATOM      3  C   UNL     1      -3.672   6.756  -8.999  0.00  0.00    +0.000 C 
ATOM      4  H   UNL     1      -4.224   7.427  -8.335  0.00  0.00    +0.000 HD
ATOM      5  H   UNL     1      -3.106   6.053  -8.381  0.00  0.00    +0.000 HD
ATOM      6  H   UNL     1      -4.357   6.185  -9.628  0.00  0.00    +0.000 HD
ENDBRANCH   2   3
BRANCH   2   8
ATOM      7  O   UNL     1      -2.988   9.436  -8.486  0.00  0.00    +0.000 OA
ATOM      8  C   UNL     1      -2.448   8.987  -9.489  0.00  0.00    +0.000 C 
BRANCH   8   9
ATOM      9  C   UNL     1      -1.536   9.787 -10.370  0.00  0.00    +0.000 C 
ATOM     10  H   UNL     1      -1.952  10.784 -10.533  0.00  0.00    +0.000 HD
ATOM     11  H   UNL     1      -0.566   9.898  -9.878  0.00  0.00    +0.000 HD
ATOM     12  H   UNL     1      -1.383   9.271 -11.320  0.00  0.00    +0.000 HD
ENDBRANCH   8   9
ENDBRANCH   2   8
TORSDOF 3
ENDMDL
MODEL 5
REMARK VINA RESULT:    -3.250      2.050      2.390
REMARK INTER + INTRA:          -3.630
REMARK INTER:                  -3.630
REMARK INTRA:                   0.000
REMARK UNBOUND:                 0.000
REMARK  Name = 650
REMARK  3 active torsions:
REMARK  status: ('A' for Active; 'I' for Inactive)
REMARK    1  A    between atoms: C_3  and  C_4
REMARK    2  A    between atoms: C_3  and  C_5
REMARK    3  A    between atoms: C_4  and  C_6
REMARK                            x       y       z     vdW  Elec       q    Type
REMARK                         _______ _______ _______ _____ _____    ______ ____
ROOT
ATOM      1  O   UNL     1       5.585   9.420   0.023  0.00  0.00    +0.000 OA
ATOM      2  C   UNL     1       5.603  10.543  -0.464  0.00  0.00    +0.000 C 
ENDROOT
BRANCH   2   3
ATOM      3  C   UNL     1       6.808  11.140  -1.128  0.00  0.00    +0.000 C 
ATOM      4  H   UNL     1       7.484  11.555  -0.377  0.00  0.00    +0.000 HD
ATOM      5  H   UNL     1       6.490  11.952  -1.788  0.00  0.00    +0.000 HD
ATOM      6  H   UNL     1       7.316  10.387  -1.733  0.00  0.00    +0.000 HD
ENDBRANCH   2   3
BRANCH   2   8
ATOM      7  O   UNL     1       4.216  12.145   0.551  0.00  0.00    +0.000 OA
ATOM      8  C   UNL     1       4.335  11.367  -0.387  0.00  0.00    +0.000 C 
BRANCH   8   9
ATOM      9  C   UNL     1       3.297  11.189  -1.454  0.00  0.00    +0.000 C 
ATOM     10  H   UNL     1       3.501  10.282  -2.029  0.00  0.00    +0.000 HD
ATOM     11  H   UNL     1       2.314  11.084  -0.987  0.00  0.00    +0.000 HD
ATOM     12  H   UNL     1       3.275  12.064  -2.107  0.00  0.00    +0.000 HD
ENDBRANCH   8   9
ENDBRANCH   2   8
TORSDOF 3
ENDMDL
MODEL 6
REMARK VINA RESULT:    -3.191     11.833     12.741
REMARK INTER + INTRA:          -3.564
REMARK INTER:                  -3.564
REMARK INTRA:                   0.000
REMARK UNBOUND:                 0.000
REMARK  Name = 650
REMARK  3 active torsions:
REMARK  status: ('A' for Active; 'I' for Inactive)
REMARK    1  A    between atoms: C_3  and  C_4
REMARK    2  A    between atoms: C_3  and  C_5
REMARK    3  A    between atoms: C_4  and  C_6
REMARK                            x       y       z     vdW  Elec       q    Type
REMARK                         _______ _______ _______ _____ _____    ______ ____
ROOT
ATOM      1  O   UNL     1      -1.005  10.121 -10.487  0.00  0.00    +0.000 OA
ATOM      2  C   UNL     1      -1.876   9.325 -10.159  0.00  0.00    +0.000 C 
ENDROOT
BRANCH   2   3
ATOM      3  C   UNL     1      -2.844   9.570  -9.041  0.00  0.00    +0.000 C 
ATOM      4  H   UNL     1      -2.781  10.610  -8.710  0.00  0.00    +0.000 HD
ATOM      5  H   UNL     1      -2.588   8.926  -8.195  0.00  0.00    +0.000 HD
ATOM      6  H   UNL     1      -3.859   9.326  -9.361  0.00  0.00    +0.000 HD
ENDBRANCH   2   3
BRANCH   2   8
ATOM      7  O   UNL     1      -1.371   7.948 -11.994  0.00  0.00    +0.000 OA
ATOM      8  C   UNL     1      -1.972   8.026 -10.930  0.00  0.00    +0.000 C 
BRANCH   8   9
ATOM      9  C   UNL     1      -2.793   6.910 -10.357  0.00  0.00    +0.000 C 
ATOM     10  H   UNL     1      -3.756   7.293 -10.009  0.00  0.00    +0.000 HD
ATOM     11  H   UNL     1      -2.983   6.166 -11.136  0.00  0.00    +0.000 HD
ATOM     12  H   UNL     1      -2.252   6.425  -9.543  0.00  0.00    +0.000 HD
ENDBRANCH   8   9
ENDBRANCH   2   8
TORSDOF 3
ENDMDL
MODEL 7
REMARK VINA RESULT:    -3.171      1.731      2.360
REMARK INTER + INTRA:          -3.542
REMARK INTER:                  -3.542
REMARK INTRA:                   0.000
REMARK UNBOUND:                 0.000
REMARK  Name = 650
REMARK  3 active torsions:
REMARK  status: ('A' for Active; 'I' for Inactive)
REMARK    1  A    between atoms: C_3  and  C_4
REMARK    2  A    between atoms: C_3  and  C_5
REMARK    3  A    between atoms: C_4  and  C_6
REMARK                            x       y       z     vdW  Elec       q    Type
REMARK                         _______ _______ _______ _____ _____    ______ ____
ROOT
ATOM      1  O   UNL     1       3.235  10.488   1.738  0.00  0.00    +0.000 OA
ATOM      2  C   UNL     1       3.825  10.926   0.759  0.00  0.00    +0.000 C 
ENDROOT
BRANCH   2   3
ATOM      3  C   UNL     1       3.208  11.871  -0.228  0.00  0.00    +0.000 C 
ATOM      4  H   UNL     1       2.485  12.519   0.274  0.00  0.00    +0.000 HD
ATOM      5  H   UNL     1       2.678  11.296  -0.993  0.00  0.00    +0.000 HD
ATOM      6  H   UNL     1       3.983  12.462  -0.719  0.00  0.00    +0.000 HD
ENDBRANCH   2   3
BRANCH   2   8
ATOM      7  O   UNL     1       5.619   9.440   1.068  0.00  0.00    +0.000 OA
ATOM      8  C   UNL     1       5.257  10.485   0.542  0.00  0.00    +0.000 C 
BRANCH   8   9
ATOM      9  C   UNL     1       6.153  11.343  -0.299  0.00  0.00    +0.000 C 
ATOM     10  H   UNL     1       7.177  11.303   0.081  0.00  0.00    +0.000 HD
ATOM     11  H   UNL     1       6.154  10.966  -1.325  0.00  0.00    +0.000 HD
ATOM     12  H   UNL     1       5.786  12.372  -0.312  0.00  0.00    +0.000 HD
ENDBRANCH   8   9
ENDBRANCH   2   8
TORSDOF 3
ENDMDL
MODEL 8
REMARK VINA RESULT:    -3.064     11.835     12.735
REMARK INTER + INTRA:          -3.422
REMARK INTER:                  -3.422
REMARK INTRA:                   0.000
REMARK UNBOUND:                 0.000
REMARK  Name = 650
REMARK  3 active torsions:
REMARK  status: ('A' for Active; 'I' for Inactive)
REMARK    1  A    between atoms: C_3  and  C_4
REMARK    2  A    between atoms: C_3  and  C_5
REMARK    3  A    between atoms: C_4  and  C_6
REMARK                            x       y       z     vdW  Elec       q    Type
REMARK                         _______ _______ _______ _____ _____    ______ ____
ROOT
ATOM      1  O   UNL     1      -3.364   9.500 -11.494  0.00  0.00    +0.000 OA
ATOM      2  C   UNL     1      -2.536   9.303 -10.614  0.00  0.00    +0.000 C 
ENDROOT
BRANCH   2   3
ATOM      3  C   UNL     1      -1.227  10.030 -10.528  0.00  0.00    +0.000 C 
ATOM      4  H   UNL     1      -0.691   9.950 -11.477  0.00  0.00    +0.000 HD
ATOM      5  H   UNL     1      -0.612   9.574  -9.748  0.00  0.00    +0.000 HD
ATOM      6  H   UNL     1      -1.395  11.076 -10.265  0.00  0.00    +0.000 HD
ENDBRANCH   2   3
BRANCH   2   8
ATOM      7  O   UNL     1      -2.949   8.641  -8.398  0.00  0.00    +0.000 OA
ATOM      8  C   UNL     1      -2.859   8.266  -9.559  0.00  0.00    +0.000 C 
BRANCH   8   9
ATOM      9  C   UNL     1      -3.051   6.842  -9.988  0.00  0.00    +0.000 C 
ATOM     10  H   UNL     1      -3.836   6.372  -9.390  0.00  0.00    +0.000 HD
ATOM     11  H   UNL     1      -3.360   6.819 -11.036  0.00  0.00    +0.000 HD
ATOM     12  H   UNL     1      -2.112   6.291  -9.895  0.00  0.00    +0.000 HD
ENDBRANCH   8   9
ENDBRANCH   2   8
TORSDOF 3
ENDMDL
MODEL 9
REMARK VINA RESULT:    -3.028     27.570     28.464
REMARK INTER + INTRA:          -3.382
REMARK INTER:                  -3.382
REMARK INTRA:                   0.000
REMARK UNBOUND:                 0.000
REMARK  Name = 650
REMARK  3 active torsions:
REMARK  status: ('A' for Active; 'I' for Inactive)
REMARK    1  A    between atoms: C_3  and  C_4
REMARK    2  A    between atoms: C_3  and  C_5
REMARK    3  A    between atoms: C_4  and  C_6
REMARK                            x       y       z     vdW  Elec       q    Type
REMARK                         _______ _______ _______ _____ _____    ______ ____
ROOT
ATOM      1  O   UNL     1     -21.323  -4.946   3.704  0.00  0.00    +0.000 OA
ATOM      2  C   UNL     1     -20.422  -4.598   4.456  0.00  0.00    +0.000 C 
ENDROOT
BRANCH   2   3
ATOM      3  C   UNL     1     -20.621  -3.667   5.614  0.00  0.00    +0.000 C 
ATOM      4  H   UNL     1     -21.260  -2.831   5.319  0.00  0.00    +0.000 HD
ATOM      5  H   UNL     1     -19.652  -3.264   5.923  0.00  0.00    +0.000 HD
ATOM      6  H   UNL     1     -21.053  -4.205   6.460  0.00  0.00    +0.000 HD
ENDBRANCH   2   3
BRANCH   2   8
ATOM      7  O   UNL     1     -18.425  -5.631   5.137  0.00  0.00    +0.000 OA
ATOM      8  C   UNL     1     -19.034  -5.143   4.194  0.00  0.00    +0.000 C 
BRANCH   8   9
ATOM      9  C   UNL     1     -18.480  -5.058   2.804  0.00  0.00    +0.000 C 
ATOM     10  H   UNL     1     -18.494  -4.022   2.457  0.00  0.00    +0.000 HD
ATOM     11  H   UNL     1     -17.442  -5.404   2.808  0.00  0.00    +0.000 HD
ATOM     12  H   UNL     1     -19.052  -5.700   2.131  0.00  0.00    +0.000 HD
ENDBRANCH   8   9
ENDBRANCH   2   8
TORSDOF 3
ENDMDL
MODEL 10
REMARK VINA RESULT:    -2.763     17.752     18.163
REMARK INTER + INTRA:          -3.086
REMARK INTER:                  -3.086
REMARK INTRA:                   0.000
REMARK UNBOUND:                 0.000
REMARK  Name = 650
REMARK  3 active torsions:
REMARK  status: ('A' for Active; 'I' for Inactive)
REMARK    1  A    between atoms: C_3  and  C_4
REMARK    2  A    between atoms: C_3  and  C_5
REMARK    3  A    between atoms: C_4  and  C_6
REMARK                            x       y       z     vdW  Elec       q    Type
REMARK                         _______ _______ _______ _____ _____    ______ ____
ROOT
ATOM      1  O   UNL     1       2.034  -1.632 -13.011  0.00  0.00    +0.000 OA
ATOM      2  C   UNL     1       2.458  -0.544 -13.379  0.00  0.00    +0.000 C 
ENDROOT
BRANCH   2   3
ATOM      3  C   UNL     1       1.698   0.738 -13.221  0.00  0.00    +0.000 C 
ATOM      4  H   UNL     1       1.597   1.237 -14.188  0.00  0.00    +0.000 HD
ATOM      5  H   UNL     1       2.249   1.403 -12.549  0.00  0.00    +0.000 HD
ATOM      6  H   UNL     1       0.718   0.544 -12.781  0.00  0.00    +0.000 HD
ENDBRANCH   2   3
BRANCH   2   8
ATOM      7  O   UNL     1       4.704  -1.210 -13.556  0.00  0.00    +0.000 OA
ATOM      8  C   UNL     1       3.824  -0.502 -14.029  0.00  0.00    +0.000 C 
BRANCH   8   9
ATOM      9  C   UNL     1       4.030   0.398 -15.210  0.00  0.00    +0.000 C 
ATOM     10  H   UNL     1       4.063  -0.191 -16.130  0.00  0.00    +0.000 HD
ATOM     11  H   UNL     1       3.192   1.097 -15.281  0.00  0.00    +0.000 HD
ATOM     12  H   UNL     1       4.949   0.975 -15.087  0.00  0.00    +0.000 HD
ENDBRANCH   8   9
ENDBRANCH   2   8
TORSDOF 3
ENDMDL
