MODEL 1
REMARK VINA RESULT:    -4.194      0.000      0.000
REMARK INTER + INTRA:          -6.451
REMARK INTER:                  -6.073
REMARK INTRA:                  -0.378
REMARK UNBOUND:                -0.541
REMARK  Name = 31265
REMARK  8 active torsions:
REMARK  status: ('A' for Active; 'I' for Inactive)
REMARK    1  A    between atoms: O_1  and  C_8
REMARK    2  A    between atoms: O_1  and  C_9
REMARK    3  A    between atoms: C_3  and  C_4
REMARK    4  A    between atoms: C_3  and  C_5
REMARK    5  A    between atoms: C_4  and  C_6
REMARK    6  A    between atoms: C_5  and  C_7
REMARK    7  A    between atoms: C_6  and  C_8
REMARK    8  A    between atoms: C_9  and  C_10
REMARK                            x       y       z     vdW  Elec       q    Type
REMARK                         _______ _______ _______ _____ _____    ______ ____
ROOT
ATOM      1  C   UNL     1       4.618   8.883   2.013  0.00  0.00    +0.000 C 
ATOM      2  H   UNL     1       3.918   8.102   2.334  0.00  0.00    +0.000 HD
ATOM      3  H   UNL     1       4.612   9.648   2.799  0.00  0.00    +0.000 HD
ENDROOT
BRANCH   1   4
ATOM      4  C   UNL     1       6.026   8.293   1.885  0.00  0.00    +0.000 C 
ATOM      5  H   UNL     1       6.772   9.085   2.029  0.00  0.00    +0.000 HD
ATOM      6  H   UNL     1       6.164   7.896   0.872  0.00  0.00    +0.000 HD
BRANCH   4   7
ATOM      7  C   UNL     1       6.252   7.179   2.907  0.00  0.00    +0.000 C 
ATOM      8  H   UNL     1       6.596   6.272   2.398  0.00  0.00    +0.000 HD
ATOM      9  H   UNL     1       7.036   7.473   3.614  0.00  0.00    +0.000 HD
BRANCH   7  10
ATOM     10  C   UNL     1       4.980   6.866   3.680  0.00  0.00    +0.000 C 
ATOM     11  H   UNL     1       4.541   5.920   3.345  0.00  0.00    +0.000 HD
ATOM     12  H   UNL     1       5.182   6.790   4.753  0.00  0.00    +0.000 HD
ATOM     13  H   UNL     1       4.240   7.657   3.528  0.00  0.00    +0.000 HD
ENDBRANCH   7  10
ENDBRANCH   4   7
ENDBRANCH   1   4
BRANCH   1  14
ATOM     14  C   UNL     1       4.121   9.497   0.704  0.00  0.00    +0.000 C 
ATOM     15  H   UNL     1       4.785   9.201  -0.116  0.00  0.00    +0.000 HD
ATOM     16  H   UNL     1       3.111   9.126   0.492  0.00  0.00    +0.000 HD
BRANCH  14  18
ATOM     17  O   UNL     1       3.122  11.671   1.137  0.00  0.00    +0.000 OA
ATOM     18  C   UNL     1       4.067  11.008   0.736  0.00  0.00    +0.000 C 
BRANCH  18  19
ATOM     19  O   UNL     1       5.229  11.505   0.216  0.00  0.00    +0.000 OA
BRANCH  19  20
ATOM     20  C   UNL     1       5.662  10.906  -1.010  0.00  0.00    +0.000 C 
ATOM     21  H   UNL     1       5.300   9.873  -1.060  0.00  0.00    +0.000 HD
ATOM     22  H   UNL     1       5.259  11.473  -1.856  0.00  0.00    +0.000 HD
BRANCH  20  23
ATOM     23  C   UNL     1       7.174  10.920  -1.058  0.00  0.00    +0.000 C 
ATOM     24  H   UNL     1       7.599  10.555  -0.120  0.00  0.00    +0.000 HD
ATOM     25  H   UNL     1       7.539  10.292  -1.878  0.00  0.00    +0.000 HD
ATOM     26  H   UNL     1       7.546  11.933  -1.245  0.00  0.00    +0.000 HD
ENDBRANCH  20  23
ENDBRANCH  19  20
ENDBRANCH  18  19
ENDBRANCH  14  18
ENDBRANCH   1  14
TORSDOF 8
ENDMDL
MODEL 2
REMARK VINA RESULT:    -4.048      1.466      3.005
REMARK INTER + INTRA:          -6.245
REMARK INTER:                  -5.789
REMARK INTRA:                  -0.457
REMARK UNBOUND:                -0.541
REMARK  Name = 31265
REMARK  8 active torsions:
REMARK  status: ('A' for Active; 'I' for Inactive)
REMARK    1  A    between atoms: O_1  and  C_8
REMARK    2  A    between atoms: O_1  and  C_9
REMARK    3  A    between atoms: C_3  and  C_4
REMARK    4  A    between atoms: C_3  and  C_5
REMARK    5  A    between atoms: C_4  and  C_6
REMARK    6  A    between atoms: C_5  and  C_7
REMARK    7  A    between atoms: C_6  and  C_8
REMARK    8  A    between atoms: C_9  and  C_10
REMARK                            x       y       z     vdW  Elec       q    Type
REMARK                         _______ _______ _______ _____ _____    ______ ____
ROOT
ATOM      1  C   UNL     1       6.267  10.157  -0.496  0.00  0.00    +0.000 C 
ATOM      2  H   UNL     1       6.704  11.058  -0.049  0.00  0.00    +0.000 HD
ATOM      3  H   UNL     1       6.563  10.159  -1.552  0.00  0.00    +0.000 HD
ENDROOT
BRANCH   1   4
ATOM      4  C   UNL     1       6.839   8.912   0.191  0.00  0.00    +0.000 C 
ATOM      5  H   UNL     1       7.442   8.341  -0.524  0.00  0.00    +0.000 HD
ATOM      6  H   UNL     1       6.015   8.263   0.513  0.00  0.00    +0.000 HD
BRANCH   4   7
ATOM      7  C   UNL     1       7.692   9.293   1.401  0.00  0.00    +0.000 C 
ATOM      8  H   UNL     1       8.740   9.030   1.215  0.00  0.00    +0.000 HD
ATOM      9  H   UNL     1       7.652  10.376   1.561  0.00  0.00    +0.000 HD
BRANCH   7  10
ATOM     10  C   UNL     1       7.217   8.588   2.662  0.00  0.00    +0.000 C 
ATOM     11  H   UNL     1       6.515   9.215   3.221  0.00  0.00    +0.000 HD
ATOM     12  H   UNL     1       6.718   7.645   2.419  0.00  0.00    +0.000 HD
ATOM     13  H   UNL     1       8.067   8.365   3.315  0.00  0.00    +0.000 HD
ENDBRANCH   7  10
ENDBRANCH   4   7
ENDBRANCH   1   4
BRANCH   1  14
ATOM     14  C   UNL     1       4.744  10.232  -0.395  0.00  0.00    +0.000 C 
ATOM     15  H   UNL     1       4.318  10.412  -1.389  0.00  0.00    +0.000 HD
ATOM     16  H   UNL     1       4.360   9.278  -0.014  0.00  0.00    +0.000 HD
BRANCH  14  18
ATOM     17  O   UNL     1       4.702  12.471   0.551  0.00  0.00    +0.000 OA
ATOM     18  C   UNL     1       4.260  11.332   0.523  0.00  0.00    +0.000 C 
BRANCH  18  19
ATOM     19  O   UNL     1       3.277  10.835   1.332  0.00  0.00    +0.000 OA
BRANCH  19  20
ATOM     20  C   UNL     1       3.367   9.438   1.625  0.00  0.00    +0.000 C 
ATOM     21  H   UNL     1       2.414   8.952   1.385  0.00  0.00    +0.000 HD
ATOM     22  H   UNL     1       4.165   8.988   1.025  0.00  0.00    +0.000 HD
BRANCH  20  23
ATOM     23  C   UNL     1       3.673   9.261   3.097  0.00  0.00    +0.000 C 
ATOM     24  H   UNL     1       2.995   8.536   3.554  0.00  0.00    +0.000 HD
ATOM     25  H   UNL     1       4.704   8.918   3.238  0.00  0.00    +0.000 HD
ATOM     26  H   UNL     1       3.580  10.215   3.628  0.00  0.00    +0.000 HD
ENDBRANCH  20  23
ENDBRANCH  19  20
ENDBRANCH  18  19
ENDBRANCH  14  18
ENDBRANCH   1  14
TORSDOF 8
ENDMDL
MODEL 3
REMARK VINA RESULT:    -4.026      1.293      3.663
REMARK INTER + INTRA:          -6.214
REMARK INTER:                  -5.727
REMARK INTRA:                  -0.487
REMARK UNBOUND:                -0.541
REMARK  Name = 31265
REMARK  8 active torsions:
REMARK  status: ('A' for Active; 'I' for Inactive)
REMARK    1  A    between atoms: O_1  and  C_8
REMARK    2  A    between atoms: O_1  and  C_9
REMARK    3  A    between atoms: C_3  and  C_4
REMARK    4  A    between atoms: C_3  and  C_5
REMARK    5  A    between atoms: C_4  and  C_6
REMARK    6  A    between atoms: C_5  and  C_7
REMARK    7  A    between atoms: C_6  and  C_8
REMARK    8  A    between atoms: C_9  and  C_10
REMARK                            x       y       z     vdW  Elec       q    Type
REMARK                         _______ _______ _______ _____ _____    ______ ____
ROOT
ATOM      1  C   UNL     1       6.043  11.451  -0.242  0.00  0.00    +0.000 C 
ATOM      2  H   UNL     1       6.318  11.115   0.765  0.00  0.00    +0.000 HD
ATOM      3  H   UNL     1       6.013  12.547  -0.208  0.00  0.00    +0.000 HD
ENDROOT
BRANCH   1   4
ATOM      4  C   UNL     1       7.109  11.000  -1.246  0.00  0.00    +0.000 C 
ATOM      5  H   UNL     1       7.722  11.859  -1.544  0.00  0.00    +0.000 HD
ATOM      6  H   UNL     1       6.620  10.620  -2.151  0.00  0.00    +0.000 HD
BRANCH   4   7
ATOM      7  C   UNL     1       8.001   9.910  -0.651  0.00  0.00    +0.000 C 
ATOM      8  H   UNL     1       9.054  10.143  -0.846  0.00  0.00    +0.000 HD
ATOM      9  H   UNL     1       7.872   9.874   0.437  0.00  0.00    +0.000 HD
BRANCH   7  10
ATOM     10  C   UNL     1       7.675   8.544  -1.234  0.00  0.00    +0.000 C 
ATOM     11  H   UNL     1       7.512   8.608  -2.315  0.00  0.00    +0.000 HD
ATOM     12  H   UNL     1       8.489   7.835  -1.051  0.00  0.00    +0.000 HD
ATOM     13  H   UNL     1       6.765   8.143  -0.777  0.00  0.00    +0.000 HD
ENDBRANCH   7  10
ENDBRANCH   4   7
ENDBRANCH   1   4
BRANCH   1  14
ATOM     14  C   UNL     1       4.652  10.917  -0.588  0.00  0.00    +0.000 C 
ATOM     15  H   UNL     1       4.136  11.632  -1.238  0.00  0.00    +0.000 HD
ATOM     16  H   UNL     1       4.754   9.964  -1.121  0.00  0.00    +0.000 HD
BRANCH  14  18
ATOM     17  O   UNL     1       3.186  11.553   1.245  0.00  0.00    +0.000 OA
ATOM     18  C   UNL     1       3.784  10.683   0.628  0.00  0.00    +0.000 C 
BRANCH  18  19
ATOM     19  O   UNL     1       3.804   9.353   0.939  0.00  0.00    +0.000 OA
BRANCH  19  20
ATOM     20  C   UNL     1       4.355   9.027   2.219  0.00  0.00    +0.000 C 
ATOM     21  H   UNL     1       4.423   9.935   2.829  0.00  0.00    +0.000 HD
ATOM     22  H   UNL     1       3.709   8.299   2.721  0.00  0.00    +0.000 HD
BRANCH  20  23
ATOM     23  C   UNL     1       5.736   8.438   2.027  0.00  0.00    +0.000 C 
ATOM     24  H   UNL     1       6.287   8.977   1.252  0.00  0.00    +0.000 HD
ATOM     25  H   UNL     1       6.307   8.481   2.960  0.00  0.00    +0.000 HD
ATOM     26  H   UNL     1       5.670   7.383   1.744  0.00  0.00    +0.000 HD
ENDBRANCH  20  23
ENDBRANCH  19  20
ENDBRANCH  18  19
ENDBRANCH  14  18
ENDBRANCH   1  14
TORSDOF 8
ENDMDL
MODEL 4
REMARK VINA RESULT:    -3.998     13.286     14.285
REMARK INTER + INTRA:          -6.175
REMARK INTER:                  -5.760
REMARK INTRA:                  -0.415
REMARK UNBOUND:                -0.541
REMARK  Name = 31265
REMARK  8 active torsions:
REMARK  status: ('A' for Active; 'I' for Inactive)
REMARK    1  A    between atoms: O_1  and  C_8
REMARK    2  A    between atoms: O_1  and  C_9
REMARK    3  A    between atoms: C_3  and  C_4
REMARK    4  A    between atoms: C_3  and  C_5
REMARK    5  A    between atoms: C_4  and  C_6
REMARK    6  A    between atoms: C_5  and  C_7
REMARK    7  A    between atoms: C_6  and  C_8
REMARK    8  A    between atoms: C_9  and  C_10
REMARK                            x       y       z     vdW  Elec       q    Type
REMARK                         _______ _______ _______ _____ _____    ______ ____
ROOT
ATOM      1  C   UNL     1      -2.720   9.753  -9.763  0.00  0.00    +0.000 C 
ATOM      2  H   UNL     1      -3.356   9.558 -10.635  0.00  0.00    +0.000 HD
ATOM      3  H   UNL     1      -3.104  10.669  -9.297  0.00  0.00    +0.000 HD
ENDROOT
BRANCH   1   4
ATOM      4  C   UNL     1      -2.834   8.590  -8.772  0.00  0.00    +0.000 C 
ATOM      5  H   UNL     1      -3.629   8.801  -8.046  0.00  0.00    +0.000 HD
ATOM      6  H   UNL     1      -1.897   8.498  -8.209  0.00  0.00    +0.000 HD
BRANCH   4   7
ATOM      7  C   UNL     1      -3.129   7.276  -9.495  0.00  0.00    +0.000 C 
ATOM      8  H   UNL     1      -3.412   7.478 -10.534  0.00  0.00    +0.000 HD
ATOM      9  H   UNL     1      -2.228   6.652  -9.519  0.00  0.00    +0.000 HD
BRANCH   7  10
ATOM     10  C   UNL     1      -4.247   6.504  -8.813  0.00  0.00    +0.000 C 
ATOM     11  H   UNL     1      -3.854   5.630  -8.283  0.00  0.00    +0.000 HD
ATOM     12  H   UNL     1      -4.776   7.135  -8.092  0.00  0.00    +0.000 HD
ATOM     13  H   UNL     1      -4.972   6.153  -9.554  0.00  0.00    +0.000 HD
ENDBRANCH   7  10
ENDBRANCH   4   7
ENDBRANCH   1   4
BRANCH   1  14
ATOM     14  C   UNL     1      -1.282   9.985 -10.229  0.00  0.00    +0.000 C 
ATOM     15  H   UNL     1      -0.912  10.932  -9.820  0.00  0.00    +0.000 HD
ATOM     16  H   UNL     1      -0.648   9.170  -9.861  0.00  0.00    +0.000 HD
BRANCH  14  18
ATOM     17  O   UNL     1      -0.548  10.912 -12.353  0.00  0.00    +0.000 OA
ATOM     18  C   UNL     1      -1.145  10.044 -11.733  0.00  0.00    +0.000 C 
BRANCH  18  19
ATOM     19  O   UNL     1      -1.822   8.992 -12.283  0.00  0.00    +0.000 OA
BRANCH  19  20
ATOM     20  C   UNL     1      -1.034   7.832 -12.569  0.00  0.00    +0.000 C 
ATOM     21  H   UNL     1      -0.332   8.059 -13.379  0.00  0.00    +0.000 HD
ATOM     22  H   UNL     1      -0.474   7.541 -11.674  0.00  0.00    +0.000 HD
BRANCH  20  23
ATOM     23  C   UNL     1      -1.951   6.703 -12.988  0.00  0.00    +0.000 C 
ATOM     24  H   UNL     1      -1.662   6.307 -13.965  0.00  0.00    +0.000 HD
ATOM     25  H   UNL     1      -1.922   5.890 -12.255  0.00  0.00    +0.000 HD
ATOM     26  H   UNL     1      -2.989   7.048 -13.039  0.00  0.00    +0.000 HD
ENDBRANCH  20  23
ENDBRANCH  19  20
ENDBRANCH  18  19
ENDBRANCH  14  18
ENDBRANCH   1  14
TORSDOF 8
ENDMDL
MODEL 5
REMARK VINA RESULT:    -3.959     13.413     14.470
REMARK INTER + INTRA:          -6.120
REMARK INTER:                  -5.883
REMARK INTRA:                  -0.236
REMARK UNBOUND:                -0.541
REMARK  Name = 31265
REMARK  8 active torsions:
REMARK  status: ('A' for Active; 'I' for Inactive)
REMARK    1  A    between atoms: O_1  and  C_8
REMARK    2  A    between atoms: O_1  and  C_9
REMARK    3  A    between atoms: C_3  and  C_4
REMARK    4  A    between atoms: C_3  and  C_5
REMARK    5  A    between atoms: C_4  and  C_6
REMARK    6  A    between atoms: C_5  and  C_7
REMARK    7  A    between atoms: C_6  and  C_8
REMARK    8  A    between atoms: C_9  and  C_10
REMARK                            x       y       z     vdW  Elec       q    Type
REMARK                         _______ _______ _______ _____ _____    ______ ____
ROOT
ATOM      1  C   UNL     1      -2.562   9.518 -10.537  0.00  0.00    +0.000 C 
ATOM      2  H   UNL     1      -2.849   8.627 -11.110  0.00  0.00    +0.000 HD
ATOM      3  H   UNL     1      -3.291  10.297 -10.790  0.00  0.00    +0.000 HD
ENDROOT
BRANCH   1   4
ATOM      4  C   UNL     1      -2.641   9.213  -9.038  0.00  0.00    +0.000 C 
ATOM      5  H   UNL     1      -3.260   9.969  -8.539  0.00  0.00    +0.000 HD
ATOM      6  H   UNL     1      -1.637   9.276  -8.600  0.00  0.00    +0.000 HD
BRANCH   4   7
ATOM      7  C   UNL     1      -3.222   7.821  -8.787  0.00  0.00    +0.000 C 
ATOM      8  H   UNL     1      -2.712   7.353  -7.938  0.00  0.00    +0.000 HD
ATOM      9  H   UNL     1      -4.283   7.900  -8.526  0.00  0.00    +0.000 HD
BRANCH   7  10
ATOM     10  C   UNL     1      -3.078   6.929 -10.010  0.00  0.00    +0.000 C 
ATOM     11  H   UNL     1      -3.926   6.241 -10.096  0.00  0.00    +0.000 HD
ATOM     12  H   UNL     1      -3.025   7.525 -10.927  0.00  0.00    +0.000 HD
ATOM     13  H   UNL     1      -2.163   6.332  -9.939  0.00  0.00    +0.000 HD
ENDBRANCH   7  10
ENDBRANCH   4   7
ENDBRANCH   1   4
BRANCH   1  14
ATOM     14  C   UNL     1      -1.167   9.968 -10.969  0.00  0.00    +0.000 C 
ATOM     15  H   UNL     1      -1.205  11.010 -11.304  0.00  0.00    +0.000 HD
ATOM     16  H   UNL     1      -0.483   9.896 -10.115  0.00  0.00    +0.000 HD
BRANCH  14  18
ATOM     17  O   UNL     1      -0.409   7.930 -12.059  0.00  0.00    +0.000 OA
ATOM     18  C   UNL     1      -0.595   9.138 -12.097  0.00  0.00    +0.000 C 
BRANCH  18  19
ATOM     19  O   UNL     1      -0.293   9.961 -13.145  0.00  0.00    +0.000 OA
BRANCH  19  20
ATOM     20  C   UNL     1       0.397   9.343 -14.236  0.00  0.00    +0.000 C 
ATOM     21  H   UNL     1       1.237   8.755 -13.850  0.00  0.00    +0.000 HD
ATOM     22  H   UNL     1      -0.291   8.684 -14.777  0.00  0.00    +0.000 HD
BRANCH  20  23
ATOM     23  C   UNL     1       0.912  10.419 -15.167  0.00  0.00    +0.000 C 
ATOM     24  H   UNL     1       1.664  10.018 -15.851  0.00  0.00    +0.000 HD
ATOM     25  H   UNL     1       0.092  10.845 -15.755  0.00  0.00    +0.000 HD
ATOM     26  H   UNL     1       1.355  11.243 -14.598  0.00  0.00    +0.000 HD
ENDBRANCH  20  23
ENDBRANCH  19  20
ENDBRANCH  18  19
ENDBRANCH  14  18
ENDBRANCH   1  14
TORSDOF 8
ENDMDL
MODEL 6
REMARK VINA RESULT:    -3.891      1.479      2.913
REMARK INTER + INTRA:          -6.024
REMARK INTER:                  -5.494
REMARK INTRA:                  -0.530
REMARK UNBOUND:                -0.541
REMARK  Name = 31265
REMARK  8 active torsions:
REMARK  status: ('A' for Active; 'I' for Inactive)
REMARK    1  A    between atoms: O_1  and  C_8
REMARK    2  A    between atoms: O_1  and  C_9
REMARK    3  A    between atoms: C_3  and  C_4
REMARK    4  A    between atoms: C_3  and  C_5
REMARK    5  A    between atoms: C_4  and  C_6
REMARK    6  A    between atoms: C_5  and  C_7
REMARK    7  A    between atoms: C_6  and  C_8
REMARK    8  A    between atoms: C_9  and  C_10
REMARK                            x       y       z     vdW  Elec       q    Type
REMARK                         _______ _______ _______ _____ _____    ______ ____
ROOT
ATOM      1  C   UNL     1       8.016   9.747  -0.363  0.00  0.00    +0.000 C 
ATOM      2  H   UNL     1       8.447  10.481   0.329  0.00  0.00    +0.000 HD
ATOM      3  H   UNL     1       8.856   9.320  -0.925  0.00  0.00    +0.000 HD
ENDROOT
BRANCH   1   4
ATOM      4  C   UNL     1       7.317   8.639   0.430  0.00  0.00    +0.000 C 
ATOM      5  H   UNL     1       7.825   7.683   0.256  0.00  0.00    +0.000 HD
ATOM      6  H   UNL     1       6.286   8.529   0.071  0.00  0.00    +0.000 HD
BRANCH   4   7
ATOM      7  C   UNL     1       7.306   8.954   1.926  0.00  0.00    +0.000 C 
ATOM      8  H   UNL     1       8.334   8.986   2.307  0.00  0.00    +0.000 HD
ATOM      9  H   UNL     1       6.866   9.943   2.097  0.00  0.00    +0.000 HD
BRANCH   7  10
ATOM     10  C   UNL     1       6.515   7.918   2.708  0.00  0.00    +0.000 C 
ATOM     11  H   UNL     1       5.509   7.797   2.292  0.00  0.00    +0.000 HD
ATOM     12  H   UNL     1       7.015   6.944   2.686  0.00  0.00    +0.000 HD
ATOM     13  H   UNL     1       6.415   8.226   3.753  0.00  0.00    +0.000 HD
ENDBRANCH   7  10
ENDBRANCH   4   7
ENDBRANCH   1   4
BRANCH   1  14
ATOM     14  C   UNL     1       7.070  10.461  -1.329  0.00  0.00    +0.000 C 
ATOM     15  H   UNL     1       7.645  11.131  -1.978  0.00  0.00    +0.000 HD
ATOM     16  H   UNL     1       6.561   9.716  -1.953  0.00  0.00    +0.000 HD
BRANCH  14  18
ATOM     17  O   UNL     1       6.234  12.145   0.213  0.00  0.00    +0.000 OA
ATOM     18  C   UNL     1       6.014  11.286  -0.629  0.00  0.00    +0.000 C 
BRANCH  18  19
ATOM     19  O   UNL     1       4.781  10.892  -1.066  0.00  0.00    +0.000 OA
BRANCH  19  20
ATOM     20  C   UNL     1       3.818  10.628  -0.041  0.00  0.00    +0.000 C 
ATOM     21  H   UNL     1       4.116  11.141   0.880  0.00  0.00    +0.000 HD
ATOM     22  H   UNL     1       2.836  10.994  -0.359  0.00  0.00    +0.000 HD
BRANCH  20  23
ATOM     23  C   UNL     1       3.754   9.136   0.203  0.00  0.00    +0.000 C 
ATOM     24  H   UNL     1       4.632   8.633  -0.211  0.00  0.00    +0.000 HD
ATOM     25  H   UNL     1       3.698   8.923   1.276  0.00  0.00    +0.000 HD
ATOM     26  H   UNL     1       2.854   8.708  -0.253  0.00  0.00    +0.000 HD
ENDBRANCH  20  23
ENDBRANCH  19  20
ENDBRANCH  18  19
ENDBRANCH  14  18
ENDBRANCH   1  14
TORSDOF 8
ENDMDL
MODEL 7
REMARK VINA RESULT:    -3.811     13.734     14.851
REMARK INTER + INTRA:          -5.911
REMARK INTER:                  -5.625
REMARK INTRA:                  -0.287
REMARK UNBOUND:                -0.541
REMARK  Name = 31265
REMARK  8 active torsions:
REMARK  status: ('A' for Active; 'I' for Inactive)
REMARK    1  A    between atoms: O_1  and  C_8
REMARK    2  A    between atoms: O_1  and  C_9
REMARK    3  A    between atoms: C_3  and  C_4
REMARK    4  A    between atoms: C_3  and  C_5
REMARK    5  A    between atoms: C_4  and  C_6
REMARK    6  A    between atoms: C_5  and  C_7
REMARK    7  A    between atoms: C_6  and  C_8
REMARK    8  A    between atoms: C_9  and  C_10
REMARK                            x       y       z     vdW  Elec       q    Type
REMARK                         _______ _______ _______ _____ _____    ______ ____
ROOT
ATOM      1  C   UNL     1      -1.931   6.793 -11.207  0.00  0.00    +0.000 C 
ATOM      2  H   UNL     1      -1.703   7.093 -10.177  0.00  0.00    +0.000 HD
ATOM      3  H   UNL     1      -1.697   5.723 -11.278  0.00  0.00    +0.000 HD
ENDROOT
BRANCH   1   4
ATOM      4  C   UNL     1      -3.421   7.009 -11.490  0.00  0.00    +0.000 C 
ATOM      5  H   UNL     1      -3.745   6.336 -12.293  0.00  0.00    +0.000 HD
ATOM      6  H   UNL     1      -3.580   8.036 -11.842  0.00  0.00    +0.000 HD
BRANCH   4   7
ATOM      7  C   UNL     1      -4.262   6.762 -10.237  0.00  0.00    +0.000 C 
ATOM      8  H   UNL     1      -5.111   7.453 -10.217  0.00  0.00    +0.000 HD
ATOM      9  H   UNL     1      -4.671   5.745 -10.256  0.00  0.00    +0.000 HD
BRANCH   7  10
ATOM     10  C   UNL     1      -3.440   6.942  -8.971  0.00  0.00    +0.000 C 
ATOM     11  H   UNL     1      -3.865   7.727  -8.336  0.00  0.00    +0.000 HD
ATOM     12  H   UNL     1      -3.403   6.014  -8.391  0.00  0.00    +0.000 HD
ATOM     13  H   UNL     1      -2.414   7.227  -9.222  0.00  0.00    +0.000 HD
ENDBRANCH   7  10
ENDBRANCH   4   7
ENDBRANCH   1   4
BRANCH   1  14
ATOM     14  C   UNL     1      -1.035   7.572 -12.169  0.00  0.00    +0.000 C 
ATOM     15  H   UNL     1      -0.026   7.144 -12.160  0.00  0.00    +0.000 HD
ATOM     16  H   UNL     1      -1.442   7.496 -13.185  0.00  0.00    +0.000 HD
BRANCH  14  18
ATOM     17  O   UNL     1      -1.227   9.534 -10.745  0.00  0.00    +0.000 OA
ATOM     18  C   UNL     1      -0.919   9.039 -11.821  0.00  0.00    +0.000 C 
BRANCH  18  19
ATOM     19  O   UNL     1      -0.449   9.719 -12.908  0.00  0.00    +0.000 OA
BRANCH  19  20
ATOM     20  C   UNL     1      -0.248   8.934 -14.087  0.00  0.00    +0.000 C 
ATOM     21  H   UNL     1       0.065   7.922 -13.803  0.00  0.00    +0.000 HD
ATOM     22  H   UNL     1      -1.183   8.879 -14.655  0.00  0.00    +0.000 HD
BRANCH  20  23
ATOM     23  C   UNL     1       0.827   9.581 -14.934  0.00  0.00    +0.000 C 
ATOM     24  H   UNL     1       0.657  10.657 -15.026  0.00  0.00    +0.000 HD
ATOM     25  H   UNL     1       1.816   9.417 -14.493  0.00  0.00    +0.000 HD
ATOM     26  H   UNL     1       0.848   9.139 -15.935  0.00  0.00    +0.000 HD
ENDBRANCH  20  23
ENDBRANCH  19  20
ENDBRANCH  18  19
ENDBRANCH  14  18
ENDBRANCH   1  14
TORSDOF 8
ENDMDL
MODEL 8
REMARK VINA RESULT:    -3.772      1.792      4.601
REMARK INTER + INTRA:          -5.857
REMARK INTER:                  -5.603
REMARK INTRA:                  -0.253
REMARK UNBOUND:                -0.541
REMARK  Name = 31265
REMARK  8 active torsions:
REMARK  status: ('A' for Active; 'I' for Inactive)
REMARK    1  A    between atoms: O_1  and  C_8
REMARK    2  A    between atoms: O_1  and  C_9
REMARK    3  A    between atoms: C_3  and  C_4
REMARK    4  A    between atoms: C_3  and  C_5
REMARK    5  A    between atoms: C_4  and  C_6
REMARK    6  A    between atoms: C_5  and  C_7
REMARK    7  A    between atoms: C_6  and  C_8
REMARK    8  A    between atoms: C_9  and  C_10
REMARK                            x       y       z     vdW  Elec       q    Type
REMARK                         _______ _______ _______ _____ _____    ______ ____
ROOT
ATOM      1  C   UNL     1       4.187   9.363   0.206  0.00  0.00    +0.000 C 
ATOM      2  H   UNL     1       3.098   9.281   0.311  0.00  0.00    +0.000 HD
ATOM      3  H   UNL     1       4.469   8.707  -0.627  0.00  0.00    +0.000 HD
ENDROOT
BRANCH   1   4
ATOM      4  C   UNL     1       4.565  10.808  -0.131  0.00  0.00    +0.000 C 
ATOM      5  H   UNL     1       4.960  11.305   0.764  0.00  0.00    +0.000 HD
ATOM      6  H   UNL     1       3.667  11.358  -0.438  0.00  0.00    +0.000 HD
BRANCH   4   7
ATOM      7  C   UNL     1       5.604  10.860  -1.251  0.00  0.00    +0.000 C 
ATOM      8  H   UNL     1       5.640   9.895  -1.770  0.00  0.00    +0.000 HD
ATOM      9  H   UNL     1       5.319  11.617  -1.991  0.00  0.00    +0.000 HD
BRANCH   7  10
ATOM     10  C   UNL     1       6.987  11.189  -0.713  0.00  0.00    +0.000 C 
ATOM     11  H   UNL     1       7.143  12.273  -0.667  0.00  0.00    +0.000 HD
ATOM     12  H   UNL     1       7.126  10.779   0.292  0.00  0.00    +0.000 HD
ATOM     13  H   UNL     1       7.758  10.764  -1.363  0.00  0.00    +0.000 HD
ENDBRANCH   7  10
ENDBRANCH   4   7
ENDBRANCH   1   4
BRANCH   1  14
ATOM     14  C   UNL     1       4.855   8.869   1.490  0.00  0.00    +0.000 C 
ATOM     15  H   UNL     1       5.111   7.808   1.386  0.00  0.00    +0.000 HD
ATOM     16  H   UNL     1       5.775   9.439   1.661  0.00  0.00    +0.000 HD
BRANCH  14  18
ATOM     17  O   UNL     1       2.877   9.547   2.731  0.00  0.00    +0.000 OA
ATOM     18  C   UNL     1       3.978   9.016   2.713  0.00  0.00    +0.000 C 
BRANCH  18  19
ATOM     19  O   UNL     1       4.630   8.490   3.793  0.00  0.00    +0.000 OA
BRANCH  19  20
ATOM     20  C   UNL     1       5.157   7.172   3.614  0.00  0.00    +0.000 C 
ATOM     21  H   UNL     1       4.377   6.434   3.830  0.00  0.00    +0.000 HD
ATOM     22  H   UNL     1       5.496   7.051   2.579  0.00  0.00    +0.000 HD
BRANCH  20  23
ATOM     23  C   UNL     1       6.323   6.975   4.559  0.00  0.00    +0.000 C 
ATOM     24  H   UNL     1       6.249   6.014   5.075  0.00  0.00    +0.000 HD
ATOM     25  H   UNL     1       7.272   7.011   4.014  0.00  0.00    +0.000 HD
ATOM     26  H   UNL     1       6.355   7.775   5.305  0.00  0.00    +0.000 HD
ENDBRANCH  20  23
ENDBRANCH  19  20
ENDBRANCH  18  19
ENDBRANCH  14  18
ENDBRANCH   1  14
TORSDOF 8
ENDMDL
MODEL 9
REMARK VINA RESULT:    -3.735     13.935     15.578
REMARK INTER + INTRA:          -5.804
REMARK INTER:                  -5.528
REMARK INTRA:                  -0.277
REMARK UNBOUND:                -0.541
REMARK  Name = 31265
REMARK  8 active torsions:
REMARK  status: ('A' for Active; 'I' for Inactive)
REMARK    1  A    between atoms: O_1  and  C_8
REMARK    2  A    between atoms: O_1  and  C_9
REMARK    3  A    between atoms: C_3  and  C_4
REMARK    4  A    between atoms: C_3  and  C_5
REMARK    5  A    between atoms: C_4  and  C_6
REMARK    6  A    between atoms: C_5  and  C_7
REMARK    7  A    between atoms: C_6  and  C_8
REMARK    8  A    between atoms: C_9  and  C_10
REMARK                            x       y       z     vdW  Elec       q    Type
REMARK                         _______ _______ _______ _____ _____    ______ ____
ROOT
ATOM      1  C   UNL     1      -8.538  11.678   6.675  0.00  0.00    +0.000 C 
ATOM      2  H   UNL     1      -7.936  12.594   6.725  0.00  0.00    +0.000 HD
ATOM      3  H   UNL     1      -9.578  11.998   6.533  0.00  0.00    +0.000 HD
ENDROOT
BRANCH   1   4
ATOM      4  C   UNL     1      -8.095  10.836   5.475  0.00  0.00    +0.000 C 
ATOM      5  H   UNL     1      -8.977  10.457   4.944  0.00  0.00    +0.000 HD
ATOM      6  H   UNL     1      -7.530   9.965   5.830  0.00  0.00    +0.000 HD
BRANCH   4   7
ATOM      7  C   UNL     1      -7.227  11.653   4.517  0.00  0.00    +0.000 C 
ATOM      8  H   UNL     1      -6.349  11.069   4.221  0.00  0.00    +0.000 HD
ATOM      9  H   UNL     1      -7.790  11.880   3.604  0.00  0.00    +0.000 HD
BRANCH   7  10
ATOM     10  C   UNL     1      -6.770  12.955   5.154  0.00  0.00    +0.000 C 
ATOM     11  H   UNL     1      -7.027  13.812   4.522  0.00  0.00    +0.000 HD
ATOM     12  H   UNL     1      -7.237  13.099   6.133  0.00  0.00    +0.000 HD
ATOM     13  H   UNL     1      -5.684  12.949   5.292  0.00  0.00    +0.000 HD
ENDBRANCH   7  10
ENDBRANCH   4   7
ENDBRANCH   1   4
BRANCH   1  14
ATOM     14  C   UNL     1      -8.416  10.921   7.997  0.00  0.00    +0.000 C 
ATOM     15  H   UNL     1      -7.358  10.758   8.230  0.00  0.00    +0.000 HD
ATOM     16  H   UNL     1      -8.867  11.519   8.798  0.00  0.00    +0.000 HD
BRANCH  14  18
ATOM     17  O   UNL     1     -10.262   9.376   7.648  0.00  0.00    +0.000 OA
ATOM     18  C   UNL     1      -9.100   9.573   7.978  0.00  0.00    +0.000 C 
BRANCH  18  19
ATOM     19  O   UNL     1      -8.222   8.623   8.417  0.00  0.00    +0.000 OA
BRANCH  19  20
ATOM     20  C   UNL     1      -7.739   8.799   9.752  0.00  0.00    +0.000 C 
ATOM     21  H   UNL     1      -6.807   8.238   9.881  0.00  0.00    +0.000 HD
ATOM     22  H   UNL     1      -7.551   9.863   9.936  0.00  0.00    +0.000 HD
BRANCH  20  23
ATOM     23  C   UNL     1      -8.781   8.290  10.725  0.00  0.00    +0.000 C 
ATOM     24  H   UNL     1      -8.310   7.856  11.611  0.00  0.00    +0.000 HD
ATOM     25  H   UNL     1      -9.444   9.102  11.041  0.00  0.00    +0.000 HD
ATOM     26  H   UNL     1      -9.412   7.530  10.252  0.00  0.00    +0.000 HD
ENDBRANCH  20  23
ENDBRANCH  19  20
ENDBRANCH  18  19
ENDBRANCH  14  18
ENDBRANCH   1  14
TORSDOF 8
ENDMDL
MODEL 10
REMARK VINA RESULT:    -3.599     14.088     15.264
REMARK INTER + INTRA:          -5.613
REMARK INTER:                  -5.072
REMARK INTRA:                  -0.541
REMARK UNBOUND:                -0.541
REMARK  Name = 31265
REMARK  8 active torsions:
REMARK  status: ('A' for Active; 'I' for Inactive)
REMARK    1  A    between atoms: O_1  and  C_8
REMARK    2  A    between atoms: O_1  and  C_9
REMARK    3  A    between atoms: C_3  and  C_4
REMARK    4  A    between atoms: C_3  and  C_5
REMARK    5  A    between atoms: C_4  and  C_6
REMARK    6  A    between atoms: C_5  and  C_7
REMARK    7  A    between atoms: C_6  and  C_8
REMARK    8  A    between atoms: C_9  and  C_10
REMARK                            x       y       z     vdW  Elec       q    Type
REMARK                         _______ _______ _______ _____ _____    ______ ____
ROOT
ATOM      1  C   UNL     1      -2.770   7.132  -9.701  0.00  0.00    +0.000 C 
ATOM      2  H   UNL     1      -1.738   7.228 -10.058  0.00  0.00    +0.000 HD
ATOM      3  H   UNL     1      -2.818   6.193  -9.137  0.00  0.00    +0.000 HD
ENDROOT
BRANCH   1   4
ATOM      4  C   UNL     1      -3.105   8.303  -8.771  0.00  0.00    +0.000 C 
ATOM      5  H   UNL     1      -2.491   8.241  -7.865  0.00  0.00    +0.000 HD
ATOM      6  H   UNL     1      -4.154   8.231  -8.458  0.00  0.00    +0.000 HD
BRANCH   4   7
ATOM      7  C   UNL     1      -2.868   9.644  -9.466  0.00  0.00    +0.000 C 
ATOM      8  H   UNL     1      -3.590   9.774 -10.280  0.00  0.00    +0.000 HD
ATOM      9  H   UNL     1      -3.026  10.465  -8.757  0.00  0.00    +0.000 HD
BRANCH   7  10
ATOM     10  C   UNL     1      -1.459   9.739 -10.028  0.00  0.00    +0.000 C 
ATOM     11  H   UNL     1      -1.195  10.778 -10.252  0.00  0.00    +0.000 HD
ATOM     12  H   UNL     1      -0.725   9.344  -9.318  0.00  0.00    +0.000 HD
ATOM     13  H   UNL     1      -1.380   9.162 -10.955  0.00  0.00    +0.000 HD
ENDBRANCH   7  10
ENDBRANCH   4   7
ENDBRANCH   1   4
BRANCH   1  14
ATOM     14  C   UNL     1      -3.713   7.052 -10.902  0.00  0.00    +0.000 C 
ATOM     15  H   UNL     1      -4.277   6.114 -10.864  0.00  0.00    +0.000 HD
ATOM     16  H   UNL     1      -4.419   7.890 -10.863  0.00  0.00    +0.000 HD
BRANCH  14  18
ATOM     17  O   UNL     1      -1.859   6.699 -12.435  0.00  0.00    +0.000 OA
ATOM     18  C   UNL     1      -2.993   7.108 -12.231  0.00  0.00    +0.000 C 
BRANCH  18  19
ATOM     19  O   UNL     1      -3.801   7.717 -13.149  0.00  0.00    +0.000 OA
BRANCH  19  20
ATOM     20  C   UNL     1      -4.632   8.765 -12.641  0.00  0.00    +0.000 C 
ATOM     21  H   UNL     1      -5.634   8.681 -13.077  0.00  0.00    +0.000 HD
ATOM     22  H   UNL     1      -4.702   8.681 -11.551  0.00  0.00    +0.000 HD
BRANCH  20  23
ATOM     23  C   UNL     1      -4.024  10.101 -13.012  0.00  0.00    +0.000 C 
ATOM     24  H   UNL     1      -3.018   9.973 -13.421  0.00  0.00    +0.000 HD
ATOM     25  H   UNL     1      -4.644  10.613 -13.755  0.00  0.00    +0.000 HD
ATOM     26  H   UNL     1      -3.970  10.757 -12.137  0.00  0.00    +0.000 HD
ENDBRANCH  20  23
ENDBRANCH  19  20
ENDBRANCH  18  19
ENDBRANCH  14  18
ENDBRANCH   1  14
TORSDOF 8
ENDMDL
