MODEL 1
REMARK VINA RESULT:    -5.030      0.000      0.000
REMARK INTER + INTRA:          -6.380
REMARK INTER:                  -6.170
REMARK INTRA:                  -0.209
REMARK UNBOUND:                -0.173
REMARK  Name = 8467
REMARK  5 active torsions:
REMARK  status: ('A' for Active; 'I' for Inactive)
REMARK    1  A    between atoms: O_1  and  C_4
REMARK    2  A    between atoms: O_1  and  C_8
REMARK    3  A    between atoms: O_2  and  C_6
REMARK    4  A    between atoms: C_7  and  C_12
REMARK    5  A    between atoms: C_8  and  C_11
REMARK                            x       y       z     vdW  Elec       q    Type
REMARK                         _______ _______ _______ _____ _____    ______ ____
ROOT
ATOM      1  C   UNL     1      -1.608   7.892 -11.406  0.00  0.00    +0.000 A 
ATOM      2  C   UNL     1      -2.429   7.009 -10.705  0.00  0.00    +0.000 A 
ATOM      3  C   UNL     1      -1.449   9.203 -10.956  0.00  0.00    +0.000 A 
ATOM      4  C   UNL     1      -3.090   7.436  -9.554  0.00  0.00    +0.000 A 
ATOM      5  C   UNL     1      -2.110   9.630  -9.804  0.00  0.00    +0.000 A 
ATOM      6  C   UNL     1      -2.931   8.747  -9.103  0.00  0.00    +0.000 A 
ATOM      7  H   UNL     1      -2.556   5.992 -11.068  0.00  0.00    +0.000 HD
ATOM      8  H   UNL     1      -1.994  10.648  -9.442  0.00  0.00    +0.000 HD
ATOM      9  H   UNL     1      -3.439   9.094  -8.208  0.00  0.00    +0.000 HD
ENDROOT
BRANCH   4  11
ATOM     10  O   UNL     1      -5.101   6.251  -9.166  0.00  0.00    +0.000 OA
ATOM     11  C   UNL     1      -3.945   6.515  -8.822  0.00  0.00    +0.000 C 
ATOM     12  H   UNL     1      -3.512   6.045  -7.923  0.00  0.00    +0.000 HD
ENDBRANCH   4  11
BRANCH   3  13
ATOM     13  O   UNL     1      -0.650  10.074 -11.632  0.00  0.00    +0.000 OA
ATOM     14  H   UNL     1       0.205   9.646 -11.813  0.00  0.00    +0.000 HD
ENDBRANCH   3  13
BRANCH   1  15
ATOM     15  O   UNL     1      -0.967   7.464 -12.530  0.00  0.00    +0.000 OA
BRANCH  15  16
ATOM     16  C   UNL     1      -1.754   7.323 -13.711  0.00  0.00    +0.000 C 
ATOM     17  H   UNL     1      -1.740   6.288 -14.072  0.00  0.00    +0.000 HD
ATOM     18  H   UNL     1      -2.789   7.604 -13.485  0.00  0.00    +0.000 HD
BRANCH  16  19
ATOM     19  C   UNL     1      -1.197   8.232 -14.786  0.00  0.00    +0.000 C 
ATOM     20  H   UNL     1      -1.932   8.986 -15.081  0.00  0.00    +0.000 HD
ATOM     21  H   UNL     1      -0.293   8.739 -14.431  0.00  0.00    +0.000 HD
ATOM     22  H   UNL     1      -0.909   7.652 -15.669  0.00  0.00    +0.000 HD
ENDBRANCH  16  19
ENDBRANCH  15  16
ENDBRANCH   1  15
TORSDOF 5
ENDMDL
MODEL 2
REMARK VINA RESULT:    -4.977      9.072     10.159
REMARK INTER + INTRA:          -6.314
REMARK INTER:                  -6.162
REMARK INTRA:                  -0.152
REMARK UNBOUND:                -0.173
REMARK  Name = 8467
REMARK  5 active torsions:
REMARK  status: ('A' for Active; 'I' for Inactive)
REMARK    1  A    between atoms: O_1  and  C_4
REMARK    2  A    between atoms: O_1  and  C_8
REMARK    3  A    between atoms: O_2  and  C_6
REMARK    4  A    between atoms: C_7  and  C_12
REMARK    5  A    between atoms: C_8  and  C_11
REMARK                            x       y       z     vdW  Elec       q    Type
REMARK                         _______ _______ _______ _____ _____    ______ ____
ROOT
ATOM      1  C   UNL     1      -9.837   6.142  -5.328  0.00  0.00    +0.000 A 
ATOM      2  C   UNL     1     -10.794   5.141  -5.487  0.00  0.00    +0.000 A 
ATOM      3  C   UNL     1      -8.536   5.810  -4.949  0.00  0.00    +0.000 A 
ATOM      4  C   UNL     1     -10.451   3.807  -5.268  0.00  0.00    +0.000 A 
ATOM      5  C   UNL     1      -8.193   4.476  -4.729  0.00  0.00    +0.000 A 
ATOM      6  C   UNL     1      -9.150   3.474  -4.888  0.00  0.00    +0.000 A 
ATOM      7  H   UNL     1     -11.808   5.409  -5.774  0.00  0.00    +0.000 HD
ATOM      8  H   UNL     1      -7.183   4.203  -4.434  0.00  0.00    +0.000 HD
ATOM      9  H   UNL     1      -8.868   2.439  -4.713  0.00  0.00    +0.000 HD
ENDROOT
BRANCH   4  11
ATOM     10  O   UNL     1     -12.649   2.933  -5.201  0.00  0.00    +0.000 OA
ATOM     11  C   UNL     1     -11.449   2.763  -5.434  0.00  0.00    +0.000 C 
ATOM     12  H   UNL     1     -11.086   1.782  -5.788  0.00  0.00    +0.000 HD
ENDBRANCH   4  11
BRANCH   3  13
ATOM     13  O   UNL     1      -7.592   6.779  -4.790  0.00  0.00    +0.000 OA
ATOM     14  H   UNL     1      -6.709   6.377  -4.865  0.00  0.00    +0.000 HD
ENDBRANCH   3  13
BRANCH   1  15
ATOM     15  O   UNL     1     -10.183   7.442  -5.546  0.00  0.00    +0.000 OA
BRANCH  15  16
ATOM     16  C   UNL     1     -10.295   7.864  -6.903  0.00  0.00    +0.000 C 
ATOM     17  H   UNL     1      -9.413   7.567  -7.482  0.00  0.00    +0.000 HD
ATOM     18  H   UNL     1     -11.183   7.400  -7.348  0.00  0.00    +0.000 HD
BRANCH  16  19
ATOM     19  C   UNL     1     -10.430   9.371  -6.941  0.00  0.00    +0.000 C 
ATOM     20  H   UNL     1     -11.413   9.668  -7.318  0.00  0.00    +0.000 HD
ATOM     21  H   UNL     1     -10.292   9.796  -5.940  0.00  0.00    +0.000 HD
ATOM     22  H   UNL     1      -9.658   9.810  -7.581  0.00  0.00    +0.000 HD
ENDBRANCH  16  19
ENDBRANCH  15  16
ENDBRANCH   1  15
TORSDOF 5
ENDMDL
MODEL 3
REMARK VINA RESULT:    -4.841     32.191     34.020
REMARK INTER + INTRA:          -6.145
REMARK INTER:                  -5.996
REMARK INTRA:                  -0.149
REMARK UNBOUND:                -0.173
REMARK  Name = 8467
REMARK  5 active torsions:
REMARK  status: ('A' for Active; 'I' for Inactive)
REMARK    1  A    between atoms: O_1  and  C_4
REMARK    2  A    between atoms: O_1  and  C_8
REMARK    3  A    between atoms: O_2  and  C_6
REMARK    4  A    between atoms: C_7  and  C_12
REMARK    5  A    between atoms: C_8  and  C_11
REMARK                            x       y       z     vdW  Elec       q    Type
REMARK                         _______ _______ _______ _____ _____    ______ ____
ROOT
ATOM      1  C   UNL     1     -10.266 -10.381  15.500  0.00  0.00    +0.000 A 
ATOM      2  C   UNL     1     -10.388 -11.120  16.677  0.00  0.00    +0.000 A 
ATOM      3  C   UNL     1      -9.172 -10.584  14.659  0.00  0.00    +0.000 A 
ATOM      4  C   UNL     1      -9.417 -12.063  17.012  0.00  0.00    +0.000 A 
ATOM      5  C   UNL     1      -8.201 -11.527  14.994  0.00  0.00    +0.000 A 
ATOM      6  C   UNL     1      -8.322 -12.266  16.170  0.00  0.00    +0.000 A 
ATOM      7  H   UNL     1     -11.239 -10.949  17.332  0.00  0.00    +0.000 HD
ATOM      8  H   UNL     1      -7.343 -11.695  14.347  0.00  0.00    +0.000 HD
ATOM      9  H   UNL     1      -7.557 -12.997  16.418  0.00  0.00    +0.000 HD
ENDROOT
BRANCH   4  11
ATOM     10  O   UNL     1      -9.875 -12.336  19.317  0.00  0.00    +0.000 OA
ATOM     11  C   UNL     1      -9.544 -12.835  18.237  0.00  0.00    +0.000 C 
ATOM     12  H   UNL     1      -9.329 -13.915  18.167  0.00  0.00    +0.000 HD
ENDBRANCH   4  11
BRANCH   3  13
ATOM     13  O   UNL     1      -9.043  -9.868  13.508  0.00  0.00    +0.000 OA
ATOM     14  H   UNL     1      -9.444  -8.990  13.634  0.00  0.00    +0.000 HD
ENDBRANCH   3  13
BRANCH   1  15
ATOM     15  O   UNL     1     -11.222  -9.463  15.183  0.00  0.00    +0.000 OA
BRANCH  15  16
ATOM     16  C   UNL     1     -12.536  -9.695  15.686  0.00  0.00    +0.000 C 
ATOM     17  H   UNL     1     -12.750 -10.769  15.747  0.00  0.00    +0.000 HD
ATOM     18  H   UNL     1     -12.615  -9.262  16.690  0.00  0.00    +0.000 HD
BRANCH  16  19
ATOM     19  C   UNL     1     -13.540  -9.040  14.763  0.00  0.00    +0.000 C 
ATOM     20  H   UNL     1     -14.426  -9.669  14.637  0.00  0.00    +0.000 HD
ATOM     21  H   UNL     1     -13.852  -8.067  15.160  0.00  0.00    +0.000 HD
ATOM     22  H   UNL     1     -13.096  -8.854  13.781  0.00  0.00    +0.000 HD
ENDBRANCH  16  19
ENDBRANCH  15  16
ENDBRANCH   1  15
TORSDOF 5
ENDMDL
MODEL 4
REMARK VINA RESULT:    -4.690     26.184     26.914
REMARK INTER + INTRA:          -5.960
REMARK INTER:                  -5.808
REMARK INTRA:                  -0.152
REMARK UNBOUND:                -0.173
REMARK  Name = 8467
REMARK  5 active torsions:
REMARK  status: ('A' for Active; 'I' for Inactive)
REMARK    1  A    between atoms: O_1  and  C_4
REMARK    2  A    between atoms: O_1  and  C_8
REMARK    3  A    between atoms: O_2  and  C_6
REMARK    4  A    between atoms: C_7  and  C_12
REMARK    5  A    between atoms: C_8  and  C_11
REMARK                            x       y       z     vdW  Elec       q    Type
REMARK                         _______ _______ _______ _____ _____    ______ ____
ROOT
ATOM      1  C   UNL     1     -20.216  -4.214   4.904  0.00  0.00    +0.000 A 
ATOM      2  C   UNL     1     -21.107  -3.937   3.867  0.00  0.00    +0.000 A 
ATOM      3  C   UNL     1     -19.256  -5.214   4.750  0.00  0.00    +0.000 A 
ATOM      4  C   UNL     1     -21.037  -4.659   2.676  0.00  0.00    +0.000 A 
ATOM      5  C   UNL     1     -19.186  -5.936   3.559  0.00  0.00    +0.000 A 
ATOM      6  C   UNL     1     -20.076  -5.660   2.522  0.00  0.00    +0.000 A 
ATOM      7  H   UNL     1     -21.859  -3.163   3.998  0.00  0.00    +0.000 HD
ATOM      8  H   UNL     1     -18.442  -6.717   3.426  0.00  0.00    +0.000 HD
ATOM      9  H   UNL     1     -20.009  -6.231   1.600  0.00  0.00    +0.000 HD
ENDROOT
BRANCH   4  11
ATOM     10  O   UNL     1     -21.638  -4.381   0.404  0.00  0.00    +0.000 OA
ATOM     11  C   UNL     1     -21.965  -4.370   1.595  0.00  0.00    +0.000 C 
ATOM     12  H   UNL     1     -23.004  -4.135   1.883  0.00  0.00    +0.000 HD
ENDBRANCH   4  11
BRANCH   3  13
ATOM     13  O   UNL     1     -18.381  -5.493   5.756  0.00  0.00    +0.000 OA
ATOM     14  H   UNL     1     -17.490  -5.600   5.380  0.00  0.00    +0.000 HD
ENDBRANCH   3  13
BRANCH   1  15
ATOM     15  O   UNL     1     -20.294  -3.502   6.063  0.00  0.00    +0.000 OA
BRANCH  15  16
ATOM     16  C   UNL     1     -20.886  -2.206   5.989  0.00  0.00    +0.000 C 
ATOM     17  H   UNL     1     -20.639  -1.714   5.041  0.00  0.00    +0.000 HD
ATOM     18  H   UNL     1     -21.975  -2.307   6.062  0.00  0.00    +0.000 HD
BRANCH  16  19
ATOM     19  C   UNL     1     -20.370  -1.363   7.135  0.00  0.00    +0.000 C 
ATOM     20  H   UNL     1     -20.136  -0.348   6.801  0.00  0.00    +0.000 HD
ATOM     21  H   UNL     1     -21.114  -1.307   7.938  0.00  0.00    +0.000 HD
ATOM     22  H   UNL     1     -19.470  -1.809   7.567  0.00  0.00    +0.000 HD
ENDBRANCH  16  19
ENDBRANCH  15  16
ENDBRANCH   1  15
TORSDOF 5
ENDMDL
MODEL 5
REMARK VINA RESULT:    -4.675     10.848     12.850
REMARK INTER + INTRA:          -5.941
REMARK INTER:                  -5.779
REMARK INTRA:                  -0.163
REMARK UNBOUND:                -0.173
REMARK  Name = 8467
REMARK  5 active torsions:
REMARK  status: ('A' for Active; 'I' for Inactive)
REMARK    1  A    between atoms: O_1  and  C_4
REMARK    2  A    between atoms: O_1  and  C_8
REMARK    3  A    between atoms: O_2  and  C_6
REMARK    4  A    between atoms: C_7  and  C_12
REMARK    5  A    between atoms: C_8  and  C_11
REMARK                            x       y       z     vdW  Elec       q    Type
REMARK                         _______ _______ _______ _____ _____    ______ ____
ROOT
ATOM      1  C   UNL     1       3.854  -1.109 -13.991  0.00  0.00    +0.000 A 
ATOM      2  C   UNL     1       4.669  -0.692 -15.044  0.00  0.00    +0.000 A 
ATOM      3  C   UNL     1       3.634  -2.469 -13.775  0.00  0.00    +0.000 A 
ATOM      4  C   UNL     1       5.265  -1.636 -15.880  0.00  0.00    +0.000 A 
ATOM      5  C   UNL     1       4.231  -3.413 -14.611  0.00  0.00    +0.000 A 
ATOM      6  C   UNL     1       5.045  -2.998 -15.663  0.00  0.00    +0.000 A 
ATOM      7  H   UNL     1       4.827   0.370 -15.212  0.00  0.00    +0.000 HD
ATOM      8  H   UNL     1       4.069  -4.477 -14.453  0.00  0.00    +0.000 HD
ATOM      9  H   UNL     1       5.503  -3.745 -16.306  0.00  0.00    +0.000 HD
ENDROOT
BRANCH   4  11
ATOM     10  O   UNL     1       6.703  -1.989 -17.725  0.00  0.00    +0.000 OA
ATOM     11  C   UNL     1       6.115  -1.203 -16.977  0.00  0.00    +0.000 C 
ATOM     12  H   UNL     1       6.219  -0.114 -17.123  0.00  0.00    +0.000 HD
ENDBRANCH   4  11
BRANCH   3  13
ATOM     13  O   UNL     1       2.841  -2.887 -12.750  0.00  0.00    +0.000 OA
ATOM     14  H   UNL     1       2.081  -2.285 -12.671  0.00  0.00    +0.000 HD
ENDBRANCH   3  13
BRANCH   1  15
ATOM     15  O   UNL     1       3.277  -0.177 -13.181  0.00  0.00    +0.000 OA
BRANCH  15  16
ATOM     16  C   UNL     1       2.067   0.422 -13.641  0.00  0.00    +0.000 C 
ATOM     17  H   UNL     1       2.273   1.340 -14.204  0.00  0.00    +0.000 HD
ATOM     18  H   UNL     1       1.546  -0.286 -14.297  0.00  0.00    +0.000 HD
BRANCH  16  19
ATOM     19  C   UNL     1       1.197   0.754 -12.448  0.00  0.00    +0.000 C 
ATOM     20  H   UNL     1       0.334   1.355 -12.748  0.00  0.00    +0.000 HD
ATOM     21  H   UNL     1       0.839  -0.162 -11.965  0.00  0.00    +0.000 HD
ATOM     22  H   UNL     1       1.769   1.307 -11.697  0.00  0.00    +0.000 HD
ENDBRANCH  16  19
ENDBRANCH  15  16
ENDBRANCH   1  15
TORSDOF 5
ENDMDL
MODEL 6
REMARK VINA RESULT:    -4.657     28.093     30.262
REMARK INTER + INTRA:          -5.919
REMARK INTER:                  -5.702
REMARK INTRA:                  -0.217
REMARK UNBOUND:                -0.173
REMARK  Name = 8467
REMARK  5 active torsions:
REMARK  status: ('A' for Active; 'I' for Inactive)
REMARK    1  A    between atoms: O_1  and  C_4
REMARK    2  A    between atoms: O_1  and  C_8
REMARK    3  A    between atoms: O_2  and  C_6
REMARK    4  A    between atoms: C_7  and  C_12
REMARK    5  A    between atoms: C_8  and  C_11
REMARK                            x       y       z     vdW  Elec       q    Type
REMARK                         _______ _______ _______ _____ _____    ______ ____
ROOT
ATOM      1  C   UNL     1      -9.627   9.779  17.316  0.00  0.00    +0.000 A 
ATOM      2  C   UNL     1     -10.840  10.243  17.826  0.00  0.00    +0.000 A 
ATOM      3  C   UNL     1      -8.920   8.785  17.993  0.00  0.00    +0.000 A 
ATOM      4  C   UNL     1     -11.346   9.712  19.012  0.00  0.00    +0.000 A 
ATOM      5  C   UNL     1      -9.427   8.254  19.180  0.00  0.00    +0.000 A 
ATOM      6  C   UNL     1     -10.639   8.718  19.690  0.00  0.00    +0.000 A 
ATOM      7  H   UNL     1     -11.380  11.025  17.297  0.00  0.00    +0.000 HD
ATOM      8  H   UNL     1      -8.887   7.479  19.717  0.00  0.00    +0.000 HD
ATOM      9  H   UNL     1     -11.021   8.294  20.615  0.00  0.00    +0.000 HD
ENDROOT
BRANCH   4  11
ATOM     10  O   UNL     1     -12.927  10.089  20.731  0.00  0.00    +0.000 OA
ATOM     11  C   UNL     1     -12.611  10.195  19.543  0.00  0.00    +0.000 C 
ATOM     12  H   UNL     1     -13.298  10.675  18.826  0.00  0.00    +0.000 HD
ENDBRANCH   4  11
BRANCH   3  13
ATOM     13  O   UNL     1      -7.735   8.324  17.505  0.00  0.00    +0.000 OA
ATOM     14  H   UNL     1      -7.876   7.450  17.103  0.00  0.00    +0.000 HD
ENDBRANCH   3  13
BRANCH   1  15
ATOM     15  O   UNL     1      -9.142  10.305  16.157  0.00  0.00    +0.000 OA
BRANCH  15  16
ATOM     16  C   UNL     1      -8.583  11.615  16.222  0.00  0.00    +0.000 C 
ATOM     17  H   UNL     1      -8.871  12.209  15.346  0.00  0.00    +0.000 HD
ATOM     18  H   UNL     1      -8.953  12.115  17.125  0.00  0.00    +0.000 HD
BRANCH  16  19
ATOM     19  C   UNL     1      -7.075  11.507  16.276  0.00  0.00    +0.000 C 
ATOM     20  H   UNL     1      -6.763  10.478  16.480  0.00  0.00    +0.000 HD
ATOM     21  H   UNL     1      -6.631  11.828  15.328  0.00  0.00    +0.000 HD
ATOM     22  H   UNL     1      -6.669  12.160  17.055  0.00  0.00    +0.000 HD
ENDBRANCH  16  19
ENDBRANCH  15  16
ENDBRANCH   1  15
TORSDOF 5
ENDMDL
MODEL 7
REMARK VINA RESULT:    -4.616     32.750     35.182
REMARK INTER + INTRA:          -5.869
REMARK INTER:                  -5.697
REMARK INTRA:                  -0.172
REMARK UNBOUND:                -0.173
REMARK  Name = 8467
REMARK  5 active torsions:
REMARK  status: ('A' for Active; 'I' for Inactive)
REMARK    1  A    between atoms: O_1  and  C_4
REMARK    2  A    between atoms: O_1  and  C_8
REMARK    3  A    between atoms: O_2  and  C_6
REMARK    4  A    between atoms: C_7  and  C_12
REMARK    5  A    between atoms: C_8  and  C_11
REMARK                            x       y       z     vdW  Elec       q    Type
REMARK                         _______ _______ _______ _____ _____    ______ ____
ROOT
ATOM      1  C   UNL     1      -9.212 -12.239  17.439  0.00  0.00    +0.000 A 
ATOM      2  C   UNL     1     -10.256 -11.377  17.101  0.00  0.00    +0.000 A 
ATOM      3  C   UNL     1      -8.141 -12.416  16.563  0.00  0.00    +0.000 A 
ATOM      4  C   UNL     1     -10.228 -10.692  15.886  0.00  0.00    +0.000 A 
ATOM      5  C   UNL     1      -8.114 -11.731  15.349  0.00  0.00    +0.000 A 
ATOM      6  C   UNL     1      -9.156 -10.869  15.009  0.00  0.00    +0.000 A 
ATOM      7  H   UNL     1     -11.091 -11.252  17.785  0.00  0.00    +0.000 HD
ATOM      8  H   UNL     1      -7.284 -11.859  14.657  0.00  0.00    +0.000 HD
ATOM      9  H   UNL     1      -9.120 -10.342  14.059  0.00  0.00    +0.000 HD
ENDROOT
BRANCH   4  11
ATOM     10  O   UNL     1     -11.300  -9.082  14.524  0.00  0.00    +0.000 OA
ATOM     11  C   UNL     1     -11.314  -9.794  15.533  0.00  0.00    +0.000 C 
ATOM     12  H   UNL     1     -12.180  -9.770  16.217  0.00  0.00    +0.000 HD
ENDBRANCH   4  11
BRANCH   3  13
ATOM     13  O   UNL     1      -7.117 -13.254  16.883  0.00  0.00    +0.000 OA
ATOM     14  H   UNL     1      -6.859 -13.757  16.091  0.00  0.00    +0.000 HD
ENDBRANCH   3  13
BRANCH   1  15
ATOM     15  O   UNL     1      -9.250 -12.903  18.629  0.00  0.00    +0.000 OA
BRANCH  15  16
ATOM     16  C   UNL     1     -10.532 -13.302  19.108  0.00  0.00    +0.000 C 
ATOM     17  H   UNL     1     -11.331 -12.907  18.468  0.00  0.00    +0.000 HD
ATOM     18  H   UNL     1     -10.588 -14.397  19.107  0.00  0.00    +0.000 HD
BRANCH  16  19
ATOM     19  C   UNL     1     -10.718 -12.778  20.516  0.00  0.00    +0.000 C 
ATOM     20  H   UNL     1     -11.249 -11.822  20.511  0.00  0.00    +0.000 HD
ATOM     21  H   UNL     1     -11.286 -13.494  21.121  0.00  0.00    +0.000 HD
ATOM     22  H   UNL     1      -9.750 -12.644  21.007  0.00  0.00    +0.000 HD
ENDBRANCH  16  19
ENDBRANCH  15  16
ENDBRANCH   1  15
TORSDOF 5
ENDMDL
MODEL 8
REMARK VINA RESULT:    -4.334     32.710     34.907
REMARK INTER + INTRA:          -5.521
REMARK INTER:                  -5.274
REMARK INTRA:                  -0.247
REMARK UNBOUND:                -0.173
REMARK  Name = 8467
REMARK  5 active torsions:
REMARK  status: ('A' for Active; 'I' for Inactive)
REMARK    1  A    between atoms: O_1  and  C_4
REMARK    2  A    between atoms: O_1  and  C_8
REMARK    3  A    between atoms: O_2  and  C_6
REMARK    4  A    between atoms: C_7  and  C_12
REMARK    5  A    between atoms: C_8  and  C_11
REMARK                            x       y       z     vdW  Elec       q    Type
REMARK                         _______ _______ _______ _____ _____    ______ ____
ROOT
ATOM      1  C   UNL     1     -11.256 -12.232  16.749  0.00  0.00    +0.000 A 
ATOM      2  C   UNL     1     -10.023 -12.448  16.133  0.00  0.00    +0.000 A 
ATOM      3  C   UNL     1     -11.874 -10.985  16.652  0.00  0.00    +0.000 A 
ATOM      4  C   UNL     1      -9.410 -11.419  15.419  0.00  0.00    +0.000 A 
ATOM      5  C   UNL     1     -11.261  -9.956  15.939  0.00  0.00    +0.000 A 
ATOM      6  C   UNL     1     -10.028 -10.172  15.323  0.00  0.00    +0.000 A 
ATOM      7  H   UNL     1      -9.543 -13.420  16.221  0.00  0.00    +0.000 HD
ATOM      8  H   UNL     1     -11.732  -8.980  15.855  0.00  0.00    +0.000 HD
ATOM      9  H   UNL     1      -9.563  -9.360  14.770  0.00  0.00    +0.000 HD
ENDROOT
BRANCH   4  11
ATOM     10  O   UNL     1      -7.881 -11.297  13.617  0.00  0.00    +0.000 OA
ATOM     11  C   UNL     1      -8.126 -11.645  14.776  0.00  0.00    +0.000 C 
ATOM     12  H   UNL     1      -7.353 -12.152  15.379  0.00  0.00    +0.000 HD
ENDBRANCH   4  11
BRANCH   3  13
ATOM     13  O   UNL     1     -13.078 -10.762  17.250  0.00  0.00    +0.000 OA
ATOM     14  H   UNL     1     -12.945 -10.683  18.210  0.00  0.00    +0.000 HD
ENDBRANCH   3  13
BRANCH   1  15
ATOM     15  O   UNL     1     -11.846 -13.245  17.443  0.00  0.00    +0.000 OA
BRANCH  15  16
ATOM     16  C   UNL     1     -12.220 -14.405  16.704  0.00  0.00    +0.000 C 
ATOM     17  H   UNL     1     -11.597 -14.519  15.808  0.00  0.00    +0.000 HD
ATOM     18  H   UNL     1     -12.091 -15.289  17.339  0.00  0.00    +0.000 HD
BRANCH  16  19
ATOM     19  C   UNL     1     -13.670 -14.279  16.287  0.00  0.00    +0.000 C 
ATOM     20  H   UNL     1     -13.822 -14.664  15.275  0.00  0.00    +0.000 HD
ATOM     21  H   UNL     1     -14.318 -14.831  16.977  0.00  0.00    +0.000 HD
ATOM     22  H   UNL     1     -13.990 -13.233  16.320  0.00  0.00    +0.000 HD
ENDBRANCH  16  19
ENDBRANCH  15  16
ENDBRANCH   1  15
TORSDOF 5
ENDMDL
MODEL 9
REMARK VINA RESULT:    -4.258     20.692     21.456
REMARK INTER + INTRA:          -5.427
REMARK INTER:                  -5.255
REMARK INTRA:                  -0.172
REMARK UNBOUND:                -0.173
REMARK  Name = 8467
REMARK  5 active torsions:
REMARK  status: ('A' for Active; 'I' for Inactive)
REMARK    1  A    between atoms: O_1  and  C_4
REMARK    2  A    between atoms: O_1  and  C_8
REMARK    3  A    between atoms: O_2  and  C_6
REMARK    4  A    between atoms: C_7  and  C_12
REMARK    5  A    between atoms: C_8  and  C_11
REMARK                            x       y       z     vdW  Elec       q    Type
REMARK                         _______ _______ _______ _____ _____    ______ ____
ROOT
ATOM      1  C   UNL     1      15.635   7.088   0.225  0.00  0.00    +0.000 A 
ATOM      2  C   UNL     1      14.823   7.909   1.007  0.00  0.00    +0.000 A 
ATOM      3  C   UNL     1      16.944   7.473  -0.065  0.00  0.00    +0.000 A 
ATOM      4  C   UNL     1      15.320   9.116   1.499  0.00  0.00    +0.000 A 
ATOM      5  C   UNL     1      17.441   8.680   0.428  0.00  0.00    +0.000 A 
ATOM      6  C   UNL     1      16.629   9.502   1.209  0.00  0.00    +0.000 A 
ATOM      7  H   UNL     1      13.800   7.607   1.220  0.00  0.00    +0.000 HD
ATOM      8  H   UNL     1      18.459   8.992   0.210  0.00  0.00    +0.000 HD
ATOM      9  H   UNL     1      17.031  10.439   1.586  0.00  0.00    +0.000 HD
ENDROOT
BRANCH   4  11
ATOM     10  O   UNL     1      14.525   9.994   3.548  0.00  0.00    +0.000 OA
ATOM     11  C   UNL     1      14.474   9.972   2.314  0.00  0.00    +0.000 C 
ATOM     12  H   UNL     1      13.764  10.624   1.777  0.00  0.00    +0.000 HD
ENDBRANCH   4  11
BRANCH   3  13
ATOM     13  O   UNL     1      17.746   6.679  -0.827  0.00  0.00    +0.000 OA
ATOM     14  H   UNL     1      17.684   6.963  -1.755  0.00  0.00    +0.000 HD
ENDBRANCH   3  13
BRANCH   1  15
ATOM     15  O   UNL     1      15.139   5.911  -0.251  0.00  0.00    +0.000 OA
BRANCH  15  16
ATOM     16  C   UNL     1      14.438   5.958  -1.492  0.00  0.00    +0.000 C 
ATOM     17  H   UNL     1      13.359   5.843  -1.339  0.00  0.00    +0.000 HD
ATOM     18  H   UNL     1      14.626   6.926  -1.971  0.00  0.00    +0.000 HD
BRANCH  16  19
ATOM     19  C   UNL     1      14.936   4.838  -2.381  0.00  0.00    +0.000 C 
ATOM     20  H   UNL     1      14.139   4.117  -2.586  0.00  0.00    +0.000 HD
ATOM     21  H   UNL     1      15.305   5.237  -3.333  0.00  0.00    +0.000 HD
ATOM     22  H   UNL     1      15.773   4.316  -1.909  0.00  0.00    +0.000 HD
ENDBRANCH  16  19
ENDBRANCH  15  16
ENDBRANCH   1  15
TORSDOF 5
ENDMDL
MODEL 10
REMARK VINA RESULT:    -4.150     14.703     17.032
REMARK INTER + INTRA:          -5.293
REMARK INTER:                  -5.120
REMARK INTRA:                  -0.173
REMARK UNBOUND:                -0.173
REMARK  Name = 8467
REMARK  5 active torsions:
REMARK  status: ('A' for Active; 'I' for Inactive)
REMARK    1  A    between atoms: O_1  and  C_4
REMARK    2  A    between atoms: O_1  and  C_8
REMARK    3  A    between atoms: O_2  and  C_6
REMARK    4  A    between atoms: C_7  and  C_12
REMARK    5  A    between atoms: C_8  and  C_11
REMARK                            x       y       z     vdW  Elec       q    Type
REMARK                         _______ _______ _______ _____ _____    ______ ____
ROOT
ATOM      1  C   UNL     1     -13.288  -3.602  -4.182  0.00  0.00    +0.000 A 
ATOM      2  C   UNL     1     -13.285  -2.501  -5.038  0.00  0.00    +0.000 A 
ATOM      3  C   UNL     1     -13.121  -3.419  -2.809  0.00  0.00    +0.000 A 
ATOM      4  C   UNL     1     -13.116  -1.216  -4.521  0.00  0.00    +0.000 A 
ATOM      5  C   UNL     1     -12.952  -2.134  -2.292  0.00  0.00    +0.000 A 
ATOM      6  C   UNL     1     -12.949  -1.033  -3.148  0.00  0.00    +0.000 A 
ATOM      7  H   UNL     1     -13.406  -2.653  -6.108  0.00  0.00    +0.000 HD
ATOM      8  H   UNL     1     -12.822  -1.977  -1.224  0.00  0.00    +0.000 HD
ATOM      9  H   UNL     1     -12.816  -0.038  -2.730  0.00  0.00    +0.000 HD
ENDROOT
BRANCH   4  11
ATOM     10  O   UNL     1     -12.905  -0.157  -6.626  0.00  0.00    +0.000 OA
ATOM     11  C   UNL     1     -13.113  -0.068  -5.413  0.00  0.00    +0.000 C 
ATOM     12  H   UNL     1     -13.312   0.916  -4.954  0.00  0.00    +0.000 HD
ENDBRANCH   4  11
BRANCH   3  13
ATOM     13  O   UNL     1     -13.122  -4.487  -1.963  0.00  0.00    +0.000 OA
ATOM     14  H   UNL     1     -13.356  -5.288  -2.464  0.00  0.00    +0.000 HD
ENDBRANCH   3  13
BRANCH   1  15
ATOM     15  O   UNL     1     -13.454  -4.852  -4.697  0.00  0.00    +0.000 OA
BRANCH  15  16
ATOM     16  C   UNL     1     -12.970  -5.077  -6.020  0.00  0.00    +0.000 C 
ATOM     17  H   UNL     1     -13.771  -5.438  -6.676  0.00  0.00    +0.000 HD
ATOM     18  H   UNL     1     -12.581  -4.135  -6.422  0.00  0.00    +0.000 HD
BRANCH  16  19
ATOM     19  C   UNL     1     -11.865  -6.111  -5.971  0.00  0.00    +0.000 C 
ATOM     20  H   UNL     1     -12.238  -7.065  -5.588  0.00  0.00    +0.000 HD
ATOM     21  H   UNL     1     -11.443  -6.272  -6.969  0.00  0.00    +0.000 HD
ATOM     22  H   UNL     1     -11.046  -5.769  -5.331  0.00  0.00    +0.000 HD
ENDBRANCH  16  19
ENDBRANCH  15  16
ENDBRANCH   1  15
TORSDOF 5
ENDMDL
