MODEL 1
REMARK VINA RESULT:    -4.194      0.000      0.000
REMARK INTER + INTRA:          -5.877
REMARK INTER:                  -5.539
REMARK INTRA:                  -0.338
REMARK UNBOUND:                -0.335
REMARK  Name = 62572
REMARK  7 active torsions:
REMARK  status: ('A' for Active; 'I' for Inactive)
REMARK    1  A    between atoms: O_1  and  C_7
REMARK    2  A    between atoms: O_1  and  C_8
REMARK    3  A    between atoms: O_2  and  C_4
REMARK    4  A    between atoms: C_4  and  C_5
REMARK    5  A    between atoms: C_4  and  C_6
REMARK    6  A    between atoms: C_5  and  C_7
REMARK    7  A    between atoms: C_8  and  C_9
REMARK                            x       y       z     vdW  Elec       q    Type
REMARK                         _______ _______ _______ _____ _____    ______ ____
ROOT
ATOM      1  C   UNL     1       3.910   9.469   0.322  0.00  0.00    +0.000 C 
ATOM      2  H   UNL     1       3.023   9.021  -0.145  0.00  0.00    +0.000 HD
ATOM      3  H   UNL     1       4.802   8.968  -0.068  0.00  0.00    +0.000 HD
ENDROOT
BRANCH   1   5
ATOM      4  O   UNL     1       2.837   9.367   2.505  0.00  0.00    +0.000 OA
ATOM      5  C   UNL     1       3.830   9.204   1.810  0.00  0.00    +0.000 C 
BRANCH   5   6
ATOM      6  O   UNL     1       5.047   8.759   2.245  0.00  0.00    +0.000 OA
BRANCH   6   7
ATOM      7  C   UNL     1       5.092   8.316   3.605  0.00  0.00    +0.000 C 
ATOM      8  H   UNL     1       6.000   8.699   4.084  0.00  0.00    +0.000 HD
ATOM      9  H   UNL     1       4.213   8.691   4.140  0.00  0.00    +0.000 HD
BRANCH   7  10
ATOM     10  C   UNL     1       5.100   6.803   3.630  0.00  0.00    +0.000 C 
ATOM     11  H   UNL     1       5.270   6.429   4.643  0.00  0.00    +0.000 HD
ATOM     12  H   UNL     1       4.147   6.406   3.263  0.00  0.00    +0.000 HD
ATOM     13  H   UNL     1       5.883   6.410   2.972  0.00  0.00    +0.000 HD
ENDBRANCH   7  10
ENDBRANCH   6   7
ENDBRANCH   5   6
ENDBRANCH   1   5
BRANCH   1  14
ATOM     14  C   UNL     1       3.933  10.963  -0.005  0.00  0.00    +0.000 C 
ATOM     15  H   UNL     1       4.959  11.346  -0.013  0.00  0.00    +0.000 HD
BRANCH  14  16
ATOM     16  C   UNL     1       3.275  11.241  -1.351  0.00  0.00    +0.000 C 
ATOM     17  H   UNL     1       2.966  12.290  -1.412  0.00  0.00    +0.000 HD
ATOM     18  H   UNL     1       2.369  10.639  -1.478  0.00  0.00    +0.000 HD
ATOM     19  H   UNL     1       3.959  11.030  -2.179  0.00  0.00    +0.000 HD
ENDBRANCH  14  16
BRANCH  14  20
ATOM     20  O   UNL     1       3.211  11.662   1.006  0.00  0.00    +0.000 OA
ATOM     21  H   UNL     1       2.926  12.514   0.635  0.00  0.00    +0.000 HD
ENDBRANCH  14  20
ENDBRANCH   1  14
TORSDOF 7
ENDMDL
MODEL 2
REMARK VINA RESULT:    -3.773     13.066     14.159
REMARK INTER + INTRA:          -5.321
REMARK INTER:                  -4.706
REMARK INTRA:                  -0.615
REMARK UNBOUND:                -0.335
REMARK  Name = 62572
REMARK  7 active torsions:
REMARK  status: ('A' for Active; 'I' for Inactive)
REMARK    1  A    between atoms: O_1  and  C_7
REMARK    2  A    between atoms: O_1  and  C_8
REMARK    3  A    between atoms: O_2  and  C_4
REMARK    4  A    between atoms: C_4  and  C_5
REMARK    5  A    between atoms: C_4  and  C_6
REMARK    6  A    between atoms: C_5  and  C_7
REMARK    7  A    between atoms: C_8  and  C_9
REMARK                            x       y       z     vdW  Elec       q    Type
REMARK                         _______ _______ _______ _____ _____    ______ ____
ROOT
ATOM      1  C   UNL     1      -2.912   8.545  -9.100  0.00  0.00    +0.000 C 
ATOM      2  H   UNL     1      -3.866   8.894  -8.683  0.00  0.00    +0.000 HD
ATOM      3  H   UNL     1      -2.117   8.747  -8.374  0.00  0.00    +0.000 HD
ENDROOT
BRANCH   1   5
ATOM      4  O   UNL     1      -3.470   9.708 -11.166  0.00  0.00    +0.000 OA
ATOM      5  C   UNL     1      -2.631   9.356 -10.348  0.00  0.00    +0.000 C 
BRANCH   5   6
ATOM      6  O   UNL     1      -1.292   9.623 -10.408  0.00  0.00    +0.000 OA
BRANCH   6   7
ATOM      7  C   UNL     1      -0.796   9.999 -11.697  0.00  0.00    +0.000 C 
ATOM      8  H   UNL     1      -1.617  10.404 -12.300  0.00  0.00    +0.000 HD
ATOM      9  H   UNL     1      -0.019  10.762 -11.581  0.00  0.00    +0.000 HD
BRANCH   7  10
ATOM     10  C   UNL     1      -0.218   8.777 -12.377  0.00  0.00    +0.000 C 
ATOM     11  H   UNL     1      -0.254   8.881 -13.466  0.00  0.00    +0.000 HD
ATOM     12  H   UNL     1       0.823   8.622 -12.072  0.00  0.00    +0.000 HD
ATOM     13  H   UNL     1      -0.771   7.877 -12.090  0.00  0.00    +0.000 HD
ENDBRANCH   7  10
ENDBRANCH   6   7
ENDBRANCH   5   6
ENDBRANCH   1   5
BRANCH   1  14
ATOM     14  C   UNL     1      -3.022   7.048  -9.390  0.00  0.00    +0.000 C 
ATOM     15  H   UNL     1      -2.364   6.472  -8.730  0.00  0.00    +0.000 HD
BRANCH  14  16
ATOM     16  C   UNL     1      -4.457   6.561  -9.227  0.00  0.00    +0.000 C 
ATOM     17  H   UNL     1      -4.584   6.073  -8.255  0.00  0.00    +0.000 HD
ATOM     18  H   UNL     1      -4.709   5.815  -9.989  0.00  0.00    +0.000 HD
ATOM     19  H   UNL     1      -5.168   7.390  -9.297  0.00  0.00    +0.000 HD
ENDBRANCH  14  16
BRANCH  14  20
ATOM     20  O   UNL     1      -2.612   6.812 -10.734  0.00  0.00    +0.000 OA
ATOM     21  H   UNL     1      -1.672   6.565 -10.721  0.00  0.00    +0.000 HD
ENDBRANCH  14  20
ENDBRANCH   1  14
TORSDOF 7
ENDMDL
MODEL 3
REMARK VINA RESULT:    -3.737     27.046     28.332
REMARK INTER + INTRA:          -5.273
REMARK INTER:                  -4.915
REMARK INTRA:                  -0.358
REMARK UNBOUND:                -0.335
REMARK  Name = 62572
REMARK  7 active torsions:
REMARK  status: ('A' for Active; 'I' for Inactive)
REMARK    1  A    between atoms: O_1  and  C_7
REMARK    2  A    between atoms: O_1  and  C_8
REMARK    3  A    between atoms: O_2  and  C_4
REMARK    4  A    between atoms: C_4  and  C_5
REMARK    5  A    between atoms: C_4  and  C_6
REMARK    6  A    between atoms: C_5  and  C_7
REMARK    7  A    between atoms: C_8  and  C_9
REMARK                            x       y       z     vdW  Elec       q    Type
REMARK                         _______ _______ _______ _____ _____    ______ ____
ROOT
ATOM      1  C   UNL     1      -8.656 -11.380  15.006  0.00  0.00    +0.000 C 
ATOM      2  H   UNL     1      -7.932 -11.431  14.183  0.00  0.00    +0.000 HD
ATOM      3  H   UNL     1      -9.295 -12.268  14.966  0.00  0.00    +0.000 HD
ENDROOT
BRANCH   1   5
ATOM      4  O   UNL     1      -9.123  -9.063  14.419  0.00  0.00    +0.000 OA
ATOM      5  C   UNL     1      -9.525 -10.161  14.778  0.00  0.00    +0.000 C 
BRANCH   5   6
ATOM      6  O   UNL     1     -10.825 -10.490  15.043  0.00  0.00    +0.000 OA
BRANCH   6   7
ATOM      7  C   UNL     1     -11.315 -10.081  16.324  0.00  0.00    +0.000 C 
ATOM      8  H   UNL     1     -10.507  -9.600  16.888  0.00  0.00    +0.000 HD
ATOM      9  H   UNL     1     -12.138  -9.370  16.190  0.00  0.00    +0.000 HD
BRANCH   7  10
ATOM     10  C   UNL     1     -11.808 -11.299  17.075  0.00  0.00    +0.000 C 
ATOM     11  H   UNL     1     -11.975 -11.067  18.131  0.00  0.00    +0.000 HD
ATOM     12  H   UNL     1     -12.745 -11.665  16.642  0.00  0.00    +0.000 HD
ATOM     13  H   UNL     1     -11.083 -12.116  17.003  0.00  0.00    +0.000 HD
ENDBRANCH   7  10
ENDBRANCH   6   7
ENDBRANCH   5   6
ENDBRANCH   1   5
BRANCH   1  14
ATOM     14  C   UNL     1      -7.892 -11.313  16.329  0.00  0.00    +0.000 C 
ATOM     15  H   UNL     1      -8.568 -11.085  17.160  0.00  0.00    +0.000 HD
BRANCH  14  16
ATOM     16  C   UNL     1      -7.165 -12.623  16.610  0.00  0.00    +0.000 C 
ATOM     17  H   UNL     1      -6.343 -12.456  17.314  0.00  0.00    +0.000 HD
ATOM     18  H   UNL     1      -6.718 -13.029  15.696  0.00  0.00    +0.000 HD
ATOM     19  H   UNL     1      -7.842 -13.371  17.034  0.00  0.00    +0.000 HD
ENDBRANCH  14  16
BRANCH  14  20
ATOM     20  O   UNL     1      -6.928 -10.267  16.246  0.00  0.00    +0.000 OA
ATOM     21  H   UNL     1      -6.045 -10.674  16.237  0.00  0.00    +0.000 HD
ENDBRANCH  14  20
ENDBRANCH   1  14
TORSDOF 7
ENDMDL
MODEL 4
REMARK VINA RESULT:    -3.622     13.041     14.189
REMARK INTER + INTRA:          -5.122
REMARK INTER:                  -4.622
REMARK INTRA:                  -0.500
REMARK UNBOUND:                -0.335
REMARK  Name = 62572
REMARK  7 active torsions:
REMARK  status: ('A' for Active; 'I' for Inactive)
REMARK    1  A    between atoms: O_1  and  C_7
REMARK    2  A    between atoms: O_1  and  C_8
REMARK    3  A    between atoms: O_2  and  C_4
REMARK    4  A    between atoms: C_4  and  C_5
REMARK    5  A    between atoms: C_4  and  C_6
REMARK    6  A    between atoms: C_5  and  C_7
REMARK    7  A    between atoms: C_8  and  C_9
REMARK                            x       y       z     vdW  Elec       q    Type
REMARK                         _______ _______ _______ _____ _____    ______ ____
ROOT
ATOM      1  C   UNL     1      -1.827   9.477 -12.403  0.00  0.00    +0.000 C 
ATOM      2  H   UNL     1      -1.920  10.542 -12.654  0.00  0.00    +0.000 HD
ATOM      3  H   UNL     1      -2.772   8.977 -12.637  0.00  0.00    +0.000 HD
ENDROOT
BRANCH   1   5
ATOM      4  O   UNL     1      -1.031  10.217 -10.223  0.00  0.00    +0.000 OA
ATOM      5  C   UNL     1      -1.595   9.376 -10.910  0.00  0.00    +0.000 C 
BRANCH   5   6
ATOM      6  O   UNL     1      -2.116   8.195 -10.462  0.00  0.00    +0.000 OA
BRANCH   6   7
ATOM      7  C   UNL     1      -2.853   8.270  -9.237  0.00  0.00    +0.000 C 
ATOM      8  H   UNL     1      -2.162   8.463  -8.408  0.00  0.00    +0.000 HD
ATOM      9  H   UNL     1      -3.582   9.085  -9.300  0.00  0.00    +0.000 HD
BRANCH   7  10
ATOM     10  C   UNL     1      -3.569   6.957  -9.011  0.00  0.00    +0.000 C 
ATOM     11  H   UNL     1      -3.696   6.759  -7.943  0.00  0.00    +0.000 HD
ATOM     12  H   UNL     1      -4.555   6.969  -9.488  0.00  0.00    +0.000 HD
ATOM     13  H   UNL     1      -3.009   6.129  -9.459  0.00  0.00    +0.000 HD
ENDBRANCH   7  10
ENDBRANCH   6   7
ENDBRANCH   5   6
ENDBRANCH   1   5
BRANCH   1  14
ATOM     14  C   UNL     1      -0.676   8.880 -13.213  0.00  0.00    +0.000 C 
ATOM     15  H   UNL     1      -1.020   8.035 -13.819  0.00  0.00    +0.000 HD
BRANCH  14  16
ATOM     16  C   UNL     1      -0.040   9.929 -14.119  0.00  0.00    +0.000 C 
ATOM     17  H   UNL     1      -0.271  10.936 -13.753  0.00  0.00    +0.000 HD
ATOM     18  H   UNL     1      -0.441   9.865 -15.136  0.00  0.00    +0.000 HD
ATOM     19  H   UNL     1       1.047   9.813 -14.159  0.00  0.00    +0.000 HD
ENDBRANCH  14  16
BRANCH  14  20
ATOM     20  O   UNL     1       0.316   8.399 -12.310  0.00  0.00    +0.000 OA
ATOM     21  H   UNL     1       0.911   9.138 -12.098  0.00  0.00    +0.000 HD
ENDBRANCH  14  20
ENDBRANCH   1  14
TORSDOF 7
ENDMDL
MODEL 5
REMARK VINA RESULT:    -3.597     27.523     28.131
REMARK INTER + INTRA:          -5.089
REMARK INTER:                  -4.504
REMARK INTRA:                  -0.585
REMARK UNBOUND:                -0.335
REMARK  Name = 62572
REMARK  7 active torsions:
REMARK  status: ('A' for Active; 'I' for Inactive)
REMARK    1  A    between atoms: O_1  and  C_7
REMARK    2  A    between atoms: O_1  and  C_8
REMARK    3  A    between atoms: O_2  and  C_4
REMARK    4  A    between atoms: C_4  and  C_5
REMARK    5  A    between atoms: C_4  and  C_6
REMARK    6  A    between atoms: C_5  and  C_7
REMARK    7  A    between atoms: C_8  and  C_9
REMARK                            x       y       z     vdW  Elec       q    Type
REMARK                         _______ _______ _______ _____ _____    ______ ____
ROOT
ATOM      1  C   UNL     1     -20.767  -1.311   5.357  0.00  0.00    +0.000 C 
ATOM      2  H   UNL     1     -21.515  -0.507   5.326  0.00  0.00    +0.000 HD
ATOM      3  H   UNL     1     -19.889  -0.994   4.786  0.00  0.00    +0.000 HD
ENDROOT
BRANCH   1   5
ATOM      4  O   UNL     1     -22.555  -2.809   4.657  0.00  0.00    +0.000 OA
ATOM      5  C   UNL     1     -21.366  -2.521   4.673  0.00  0.00    +0.000 C 
BRANCH   5   6
ATOM      6  O   UNL     1     -20.361  -3.236   4.082  0.00  0.00    +0.000 OA
BRANCH   6   7
ATOM      7  C   UNL     1     -20.483  -4.659   4.171  0.00  0.00    +0.000 C 
ATOM      8  H   UNL     1     -21.282  -4.914   4.877  0.00  0.00    +0.000 HD
ATOM      9  H   UNL     1     -20.726  -5.067   3.184  0.00  0.00    +0.000 HD
BRANCH   7  10
ATOM     10  C   UNL     1     -19.170  -5.236   4.655  0.00  0.00    +0.000 C 
ATOM     11  H   UNL     1     -18.685  -4.562   5.366  0.00  0.00    +0.000 HD
ATOM     12  H   UNL     1     -19.331  -6.205   5.140  0.00  0.00    +0.000 HD
ATOM     13  H   UNL     1     -18.491  -5.410   3.814  0.00  0.00    +0.000 HD
ENDBRANCH   7  10
ENDBRANCH   6   7
ENDBRANCH   5   6
ENDBRANCH   1   5
BRANCH   1  14
ATOM     14  C   UNL     1     -20.403  -1.586   6.816  0.00  0.00    +0.000 C 
ATOM     15  H   UNL     1     -19.327  -1.464   6.981  0.00  0.00    +0.000 HD
BRANCH  14  16
ATOM     16  C   UNL     1     -21.169  -0.664   7.757  0.00  0.00    +0.000 C 
ATOM     17  H   UNL     1     -20.513  -0.310   8.560  0.00  0.00    +0.000 HD
ATOM     18  H   UNL     1     -21.998  -1.193   8.239  0.00  0.00    +0.000 HD
ATOM     19  H   UNL     1     -21.568   0.205   7.224  0.00  0.00    +0.000 HD
ENDBRANCH  14  16
BRANCH  14  20
ATOM     20  O   UNL     1     -20.745  -2.935   7.125  0.00  0.00    +0.000 OA
ATOM     21  H   UNL     1     -21.682  -3.065   6.901  0.00  0.00    +0.000 HD
ENDBRANCH  14  20
ENDBRANCH   1  14
TORSDOF 7
ENDMDL
MODEL 6
REMARK VINA RESULT:    -3.576     27.547     28.310
REMARK INTER + INTRA:          -5.060
REMARK INTER:                  -4.455
REMARK INTRA:                  -0.606
REMARK UNBOUND:                -0.335
REMARK  Name = 62572
REMARK  7 active torsions:
REMARK  status: ('A' for Active; 'I' for Inactive)
REMARK    1  A    between atoms: O_1  and  C_7
REMARK    2  A    between atoms: O_1  and  C_8
REMARK    3  A    between atoms: O_2  and  C_4
REMARK    4  A    between atoms: C_4  and  C_5
REMARK    5  A    between atoms: C_4  and  C_6
REMARK    6  A    between atoms: C_5  and  C_7
REMARK    7  A    between atoms: C_8  and  C_9
REMARK                            x       y       z     vdW  Elec       q    Type
REMARK                         _______ _______ _______ _____ _____    ______ ____
ROOT
ATOM      1  C   UNL     1     -20.909  -1.941   5.018  0.00  0.00    +0.000 C 
ATOM      2  H   UNL     1     -20.009  -1.724   4.427  0.00  0.00    +0.000 HD
ATOM      3  H   UNL     1     -21.785  -1.583   4.468  0.00  0.00    +0.000 HD
ENDROOT
BRANCH   1   5
ATOM      4  O   UNL     1     -19.770  -0.748   6.809  0.00  0.00    +0.000 OA
ATOM      5  C   UNL     1     -20.808  -1.159   6.310  0.00  0.00    +0.000 C 
BRANCH   5   6
ATOM      6  O   UNL     1     -22.064  -0.994   6.824  0.00  0.00    +0.000 OA
BRANCH   6   7
ATOM      7  C   UNL     1     -22.128  -0.780   8.238  0.00  0.00    +0.000 C 
ATOM      8  H   UNL     1     -21.126  -0.546   8.617  0.00  0.00    +0.000 HD
ATOM      9  H   UNL     1     -22.802   0.057   8.451  0.00  0.00    +0.000 HD
BRANCH   7  10
ATOM     10  C   UNL     1     -22.645  -2.037   8.903  0.00  0.00    +0.000 C 
ATOM     11  H   UNL     1     -23.624  -1.864   9.359  0.00  0.00    +0.000 HD
ATOM     12  H   UNL     1     -22.734  -2.850   8.174  0.00  0.00    +0.000 HD
ATOM     13  H   UNL     1     -21.950  -2.378   9.677  0.00  0.00    +0.000 HD
ENDBRANCH   7  10
ENDBRANCH   6   7
ENDBRANCH   5   6
ENDBRANCH   1   5
BRANCH   1  14
ATOM     14  C   UNL     1     -20.988  -3.450   5.254  0.00  0.00    +0.000 C 
ATOM     15  H   UNL     1     -22.011  -3.815   5.110  0.00  0.00    +0.000 HD
BRANCH  14  16
ATOM     16  C   UNL     1     -20.043  -4.201   4.324  0.00  0.00    +0.000 C 
ATOM     17  H   UNL     1     -20.542  -4.419   3.372  0.00  0.00    +0.000 HD
ATOM     18  H   UNL     1     -19.753  -5.166   4.753  0.00  0.00    +0.000 HD
ATOM     19  H   UNL     1     -19.140  -3.619   4.120  0.00  0.00    +0.000 HD
ENDBRANCH  14  16
BRANCH  14  20
ATOM     20  O   UNL     1     -20.610  -3.721   6.601  0.00  0.00    +0.000 OA
ATOM     21  H   UNL     1     -19.745  -4.164   6.586  0.00  0.00    +0.000 HD
ENDBRANCH  14  20
ENDBRANCH   1  14
TORSDOF 7
ENDMDL
MODEL 7
REMARK VINA RESULT:    -3.523     18.471     19.364
REMARK INTER + INTRA:          -4.991
REMARK INTER:                  -4.335
REMARK INTRA:                  -0.656
REMARK UNBOUND:                -0.335
REMARK  Name = 62572
REMARK  7 active torsions:
REMARK  status: ('A' for Active; 'I' for Inactive)
REMARK    1  A    between atoms: O_1  and  C_7
REMARK    2  A    between atoms: O_1  and  C_8
REMARK    3  A    between atoms: O_2  and  C_4
REMARK    4  A    between atoms: C_4  and  C_5
REMARK    5  A    between atoms: C_4  and  C_6
REMARK    6  A    between atoms: C_5  and  C_7
REMARK    7  A    between atoms: C_8  and  C_9
REMARK                            x       y       z     vdW  Elec       q    Type
REMARK                         _______ _______ _______ _____ _____    ______ ____
ROOT
ATOM      1  C   UNL     1       2.241  -1.485 -14.484  0.00  0.00    +0.000 C 
ATOM      2  H   UNL     1       2.768  -1.429 -15.446  0.00  0.00    +0.000 HD
ATOM      3  H   UNL     1       1.200  -1.184 -14.636  0.00  0.00    +0.000 HD
ENDROOT
BRANCH   1   5
ATOM      4  O   UNL     1       2.295   0.213 -12.739  0.00  0.00    +0.000 OA
ATOM      5  C   UNL     1       2.889  -0.488 -13.547  0.00  0.00    +0.000 C 
BRANCH   5   6
ATOM      6  O   UNL     1       4.240  -0.500 -13.755  0.00  0.00    +0.000 OA
BRANCH   6   7
ATOM      7  C   UNL     1       4.672  -0.001 -15.025  0.00  0.00    +0.000 C 
ATOM      8  H   UNL     1       3.804   0.122 -15.683  0.00  0.00    +0.000 HD
ATOM      9  H   UNL     1       5.164   0.968 -14.888  0.00  0.00    +0.000 HD
BRANCH   7  10
ATOM     10  C   UNL     1       5.643  -0.987 -15.638  0.00  0.00    +0.000 C 
ATOM     11  H   UNL     1       6.160  -0.546 -16.495  0.00  0.00    +0.000 HD
ATOM     12  H   UNL     1       6.389  -1.301 -14.900  0.00  0.00    +0.000 HD
ATOM     13  H   UNL     1       5.120  -1.891 -15.966  0.00  0.00    +0.000 HD
ENDBRANCH   7  10
ENDBRANCH   6   7
ENDBRANCH   5   6
ENDBRANCH   1   5
BRANCH   1  14
ATOM     14  C   UNL     1       2.328  -2.919 -13.960  0.00  0.00    +0.000 C 
ATOM     15  H   UNL     1       1.336  -3.384 -13.929  0.00  0.00    +0.000 HD
BRANCH  14  16
ATOM     16  C   UNL     1       3.259  -3.763 -14.821  0.00  0.00    +0.000 C 
ATOM     17  H   UNL     1       2.682  -4.337 -15.554  0.00  0.00    +0.000 HD
ATOM     18  H   UNL     1       3.806  -4.491 -14.212  0.00  0.00    +0.000 HD
ATOM     19  H   UNL     1       3.981  -3.138 -15.357  0.00  0.00    +0.000 HD
ENDBRANCH  14  16
BRANCH  14  20
ATOM     20  O   UNL     1       2.840  -2.889 -12.630  0.00  0.00    +0.000 OA
ATOM     21  H   UNL     1       3.786  -2.672 -12.680  0.00  0.00    +0.000 HD
ENDBRANCH  14  20
ENDBRANCH   1  14
TORSDOF 7
ENDMDL
MODEL 8
REMARK VINA RESULT:    -3.465     14.772     15.939
REMARK INTER + INTRA:          -4.914
REMARK INTER:                  -4.356
REMARK INTRA:                  -0.557
REMARK UNBOUND:                -0.335
REMARK  Name = 62572
REMARK  7 active torsions:
REMARK  status: ('A' for Active; 'I' for Inactive)
REMARK    1  A    between atoms: O_1  and  C_7
REMARK    2  A    between atoms: O_1  and  C_8
REMARK    3  A    between atoms: O_2  and  C_4
REMARK    4  A    between atoms: C_4  and  C_5
REMARK    5  A    between atoms: C_4  and  C_6
REMARK    6  A    between atoms: C_5  and  C_7
REMARK    7  A    between atoms: C_8  and  C_9
REMARK                            x       y       z     vdW  Elec       q    Type
REMARK                         _______ _______ _______ _____ _____    ______ ____
ROOT
ATOM      1  C   UNL     1      -9.094   4.032  -5.169  0.00  0.00    +0.000 C 
ATOM      2  H   UNL     1     -10.172   3.887  -5.321  0.00  0.00    +0.000 HD
ATOM      3  H   UNL     1      -8.799   3.525  -4.245  0.00  0.00    +0.000 HD
ENDROOT
BRANCH   1   5
ATOM      4  O   UNL     1      -7.938   6.010  -4.345  0.00  0.00    +0.000 OA
ATOM      5  C   UNL     1      -8.849   5.516  -4.993  0.00  0.00    +0.000 C 
BRANCH   5   6
ATOM      6  O   UNL     1      -9.814   6.205  -5.673  0.00  0.00    +0.000 OA
BRANCH   6   7
ATOM      7  C   UNL     1      -9.415   7.482  -6.183  0.00  0.00    +0.000 C 
ATOM      8  H   UNL     1      -8.390   7.699  -5.861  0.00  0.00    +0.000 HD
ATOM      9  H   UNL     1      -9.457   7.467  -7.277  0.00  0.00    +0.000 HD
BRANCH   7  10
ATOM     10  C   UNL     1     -10.354   8.541  -5.648  0.00  0.00    +0.000 C 
ATOM     11  H   UNL     1     -11.326   8.109  -5.393  0.00  0.00    +0.000 HD
ATOM     12  H   UNL     1      -9.933   9.013  -4.754  0.00  0.00    +0.000 HD
ATOM     13  H   UNL     1     -10.503   9.334  -6.387  0.00  0.00    +0.000 HD
ENDBRANCH   7  10
ENDBRANCH   6   7
ENDBRANCH   5   6
ENDBRANCH   1   5
BRANCH   1  14
ATOM     14  C   UNL     1      -8.347   3.457  -6.373  0.00  0.00    +0.000 C 
ATOM     15  H   UNL     1      -7.768   2.572  -6.088  0.00  0.00    +0.000 HD
BRANCH  14  16
ATOM     16  C   UNL     1      -9.313   3.092  -7.494  0.00  0.00    +0.000 C 
ATOM     17  H   UNL     1      -9.033   3.609  -8.419  0.00  0.00    +0.000 HD
ATOM     18  H   UNL     1     -10.333   3.409  -7.254  0.00  0.00    +0.000 HD
ATOM     19  H   UNL     1      -9.313   2.014  -7.684  0.00  0.00    +0.000 HD
ENDBRANCH  14  16
BRANCH  14  20
ATOM     20  O   UNL     1      -7.438   4.440  -6.859  0.00  0.00    +0.000 OA
ATOM     21  H   UNL     1      -6.995   4.842  -6.092  0.00  0.00    +0.000 HD
ENDBRANCH  14  20
ENDBRANCH   1  14
TORSDOF 7
ENDMDL
MODEL 9
REMARK VINA RESULT:    -3.392     27.982     28.776
REMARK INTER + INTRA:          -4.817
REMARK INTER:                  -4.451
REMARK INTRA:                  -0.366
REMARK UNBOUND:                -0.335
REMARK  Name = 62572
REMARK  7 active torsions:
REMARK  status: ('A' for Active; 'I' for Inactive)
REMARK    1  A    between atoms: O_1  and  C_7
REMARK    2  A    between atoms: O_1  and  C_8
REMARK    3  A    between atoms: O_2  and  C_4
REMARK    4  A    between atoms: C_4  and  C_5
REMARK    5  A    between atoms: C_4  and  C_6
REMARK    6  A    between atoms: C_5  and  C_7
REMARK    7  A    between atoms: C_8  and  C_9
REMARK                            x       y       z     vdW  Elec       q    Type
REMARK                         _______ _______ _______ _____ _____    ______ ____
ROOT
ATOM      1  C   UNL     1     -21.920  -2.196   8.046  0.00  0.00    +0.000 C 
ATOM      2  H   UNL     1     -21.497  -2.458   9.024  0.00  0.00    +0.000 HD
ATOM      3  H   UNL     1     -22.566  -3.014   7.712  0.00  0.00    +0.000 HD
ENDROOT
BRANCH   1   5
ATOM      4  O   UNL     1     -19.961  -1.154   7.042  0.00  0.00    +0.000 OA
ATOM      5  C   UNL     1     -20.772  -2.070   7.067  0.00  0.00    +0.000 C 
BRANCH   5   6
ATOM      6  O   UNL     1     -20.794  -3.142   6.220  0.00  0.00    +0.000 OA
BRANCH   6   7
ATOM      7  C   UNL     1     -20.683  -2.830   4.827  0.00  0.00    +0.000 C 
ATOM      8  H   UNL     1     -19.833  -2.155   4.672  0.00  0.00    +0.000 HD
ATOM      9  H   UNL     1     -20.522  -3.753   4.259  0.00  0.00    +0.000 HD
BRANCH   7  10
ATOM     10  C   UNL     1     -21.959  -2.160   4.369  0.00  0.00    +0.000 C 
ATOM     11  H   UNL     1     -22.332  -1.467   5.128  0.00  0.00    +0.000 HD
ATOM     12  H   UNL     1     -21.790  -1.606   3.439  0.00  0.00    +0.000 HD
ATOM     13  H   UNL     1     -22.733  -2.905   4.160  0.00  0.00    +0.000 HD
ENDBRANCH   7  10
ENDBRANCH   6   7
ENDBRANCH   5   6
ENDBRANCH   1   5
BRANCH   1  14
ATOM     14  C   UNL     1     -22.711  -0.894   8.186  0.00  0.00    +0.000 C 
ATOM     15  H   UNL     1     -22.932  -0.462   7.204  0.00  0.00    +0.000 HD
BRANCH  14  16
ATOM     16  C   UNL     1     -24.013  -1.123   8.945  0.00  0.00    +0.000 C 
ATOM     17  H   UNL     1     -23.859  -1.846   9.754  0.00  0.00    +0.000 HD
ATOM     18  H   UNL     1     -24.782  -1.545   8.289  0.00  0.00    +0.000 HD
ATOM     19  H   UNL     1     -24.391  -0.191   9.377  0.00  0.00    +0.000 HD
ENDBRANCH  14  16
BRANCH  14  20
ATOM     20  O   UNL     1     -21.921   0.044   8.912  0.00  0.00    +0.000 OA
ATOM     21  H   UNL     1     -22.463   0.837   9.063  0.00  0.00    +0.000 HD
ENDBRANCH  14  20
ENDBRANCH   1  14
TORSDOF 7
ENDMDL
MODEL 10
REMARK VINA RESULT:    -3.303     14.560     15.476
REMARK INTER + INTRA:          -4.700
REMARK INTER:                  -4.365
REMARK INTRA:                  -0.335
REMARK UNBOUND:                -0.335
REMARK  Name = 62572
REMARK  7 active torsions:
REMARK  status: ('A' for Active; 'I' for Inactive)
REMARK    1  A    between atoms: O_1  and  C_7
REMARK    2  A    between atoms: O_1  and  C_8
REMARK    3  A    between atoms: O_2  and  C_4
REMARK    4  A    between atoms: C_4  and  C_5
REMARK    5  A    between atoms: C_4  and  C_6
REMARK    6  A    between atoms: C_5  and  C_7
REMARK    7  A    between atoms: C_8  and  C_9
REMARK                            x       y       z     vdW  Elec       q    Type
REMARK                         _______ _______ _______ _____ _____    ______ ____
ROOT
ATOM      1  C   UNL     1      -9.764   7.193  -6.714  0.00  0.00    +0.000 C 
ATOM      2  H   UNL     1     -10.584   6.577  -6.322  0.00  0.00    +0.000 HD
ATOM      3  H   UNL     1      -9.808   7.182  -7.807  0.00  0.00    +0.000 HD
ENDROOT
BRANCH   1   5
ATOM      4  O   UNL     1      -7.502   6.343  -7.015  0.00  0.00    +0.000 OA
ATOM      5  C   UNL     1      -8.462   6.550  -6.285  0.00  0.00    +0.000 C 
BRANCH   5   6
ATOM      6  O   UNL     1      -8.539   6.240  -4.957  0.00  0.00    +0.000 OA
BRANCH   6   7
ATOM      7  C   UNL     1      -8.074   4.934  -4.601  0.00  0.00    +0.000 C 
ATOM      8  H   UNL     1      -7.167   4.702  -5.170  0.00  0.00    +0.000 HD
ATOM      9  H   UNL     1      -7.848   4.907  -3.529  0.00  0.00    +0.000 HD
BRANCH   7  10
ATOM     10  C   UNL     1      -9.153   3.922  -4.923  0.00  0.00    +0.000 C 
ATOM     11  H   UNL     1     -10.028   4.410  -5.362  0.00  0.00    +0.000 HD
ATOM     12  H   UNL     1      -8.778   3.171  -5.627  0.00  0.00    +0.000 HD
ATOM     13  H   UNL     1      -9.462   3.386  -4.020  0.00  0.00    +0.000 HD
ENDBRANCH   7  10
ENDBRANCH   6   7
ENDBRANCH   5   6
ENDBRANCH   1   5
BRANCH   1  14
ATOM     14  C   UNL     1      -9.917   8.616  -6.173  0.00  0.00    +0.000 C 
ATOM     15  H   UNL     1      -8.939   9.064  -5.968  0.00  0.00    +0.000 HD
BRANCH  14  16
ATOM     16  C   UNL     1     -10.685   9.495  -7.152  0.00  0.00    +0.000 C 
ATOM     17  H   UNL     1     -10.001  10.184  -7.660  0.00  0.00    +0.000 HD
ATOM     18  H   UNL     1     -11.424  10.114  -6.631  0.00  0.00    +0.000 HD
ATOM     19  H   UNL     1     -11.199   8.894  -7.908  0.00  0.00    +0.000 HD
ENDBRANCH  14  16
BRANCH  14  20
ATOM     20  O   UNL     1     -10.642   8.562  -4.947  0.00  0.00    +0.000 OA
ATOM     21  H   UNL     1     -11.566   8.798  -5.135  0.00  0.00    +0.000 HD
ENDBRANCH  14  20
ENDBRANCH   1  14
TORSDOF 7
ENDMDL
