MODEL 1
REMARK VINA RESULT:    -4.725      0.000      0.000
REMARK INTER + INTRA:          -7.217
REMARK INTER:                  -6.794
REMARK INTRA:                  -0.423
REMARK UNBOUND:                -0.282
REMARK  Name = 7797
REMARK  9 active torsions:
REMARK  status: ('A' for Active; 'I' for Inactive)
REMARK    1  A    between atoms: O_1  and  C_9
REMARK    2  A    between atoms: O_1  and  C_10
REMARK    3  A    between atoms: C_3  and  C_4
REMARK    4  A    between atoms: C_3  and  C_5
REMARK    5  A    between atoms: C_4  and  C_6
REMARK    6  A    between atoms: C_5  and  C_7
REMARK    7  A    between atoms: C_6  and  C_8
REMARK    8  A    between atoms: C_7  and  C_9
REMARK    9  A    between atoms: C_10  and  C_11
REMARK                            x       y       z     vdW  Elec       q    Type
REMARK                         _______ _______ _______ _____ _____    ______ ____
ROOT
ATOM      1  C   UNL     1       3.557   8.708   1.777  0.00  0.00    +0.000 C 
ATOM      2  H   UNL     1       3.370   7.632   1.663  0.00  0.00    +0.000 HD
ATOM      3  H   UNL     1       2.658   9.133   2.239  0.00  0.00    +0.000 HD
ENDROOT
BRANCH   1   4
ATOM      4  C   UNL     1       4.759   8.924   2.703  0.00  0.00    +0.000 C 
ATOM      5  H   UNL     1       5.086   9.969   2.642  0.00  0.00    +0.000 HD
ATOM      6  H   UNL     1       4.457   8.738   3.741  0.00  0.00    +0.000 HD
BRANCH   4   7
ATOM      7  C   UNL     1       5.918   7.997   2.332  0.00  0.00    +0.000 C 
ATOM      8  H   UNL     1       5.840   7.714   1.275  0.00  0.00    +0.000 HD
ATOM      9  H   UNL     1       6.868   8.532   2.453  0.00  0.00    +0.000 HD
BRANCH   7  10
ATOM     10  C   UNL     1       5.923   6.739   3.199  0.00  0.00    +0.000 C 
ATOM     11  H   UNL     1       6.915   6.272   3.172  0.00  0.00    +0.000 HD
ATOM     12  H   UNL     1       5.210   6.009   2.800  0.00  0.00    +0.000 HD
BRANCH  10  13
ATOM     13  C   UNL     1       5.557   7.054   4.640  0.00  0.00    +0.000 C 
ATOM     14  H   UNL     1       4.614   7.608   4.693  0.00  0.00    +0.000 HD
ATOM     15  H   UNL     1       6.337   7.666   5.105  0.00  0.00    +0.000 HD
ATOM     16  H   UNL     1       5.449   6.137   5.228  0.00  0.00    +0.000 HD
ENDBRANCH  10  13
ENDBRANCH   7  10
ENDBRANCH   4   7
ENDBRANCH   1   4
BRANCH   1  17
ATOM     17  C   UNL     1       3.763   9.336   0.398  0.00  0.00    +0.000 C 
ATOM     18  H   UNL     1       4.701   8.970  -0.035  0.00  0.00    +0.000 HD
ATOM     19  H   UNL     1       2.933   9.046  -0.258  0.00  0.00    +0.000 HD
BRANCH  17  21
ATOM     20  O   UNL     1       3.168  11.561   1.179  0.00  0.00    +0.000 OA
ATOM     21  C   UNL     1       3.825  10.846   0.435  0.00  0.00    +0.000 C 
BRANCH  21  22
ATOM     22  O   UNL     1       4.709  11.277  -0.515  0.00  0.00    +0.000 OA
BRANCH  22  23
ATOM     23  C   UNL     1       6.048  11.491  -0.059  0.00  0.00    +0.000 C 
ATOM     24  H   UNL     1       6.191  12.557   0.154  0.00  0.00    +0.000 HD
ATOM     25  H   UNL     1       6.212  10.917   0.860  0.00  0.00    +0.000 HD
BRANCH  23  26
ATOM     26  C   UNL     1       7.008  11.051  -1.111  0.00  0.00    +0.000 C 
ATOM     27  H   UNL     1       6.889   9.987  -1.335  0.00  0.00    +0.000 HD
ATOM     28  H   UNL     1       6.862  11.621  -2.035  0.00  0.00    +0.000 HD
ATOM     29  H   UNL     1       8.042  11.227  -0.794  0.00  0.00    +0.000 HD
ENDBRANCH  23  26
ENDBRANCH  22  23
ENDBRANCH  21  22
ENDBRANCH  17  21
ENDBRANCH   1  17
TORSDOF 9
ENDMDL
MODEL 2
REMARK VINA RESULT:    -4.463     27.072     28.456
REMARK INTER + INTRA:          -6.832
REMARK INTER:                  -6.453
REMARK INTRA:                  -0.380
REMARK UNBOUND:                -0.282
REMARK  Name = 7797
REMARK  9 active torsions:
REMARK  status: ('A' for Active; 'I' for Inactive)
REMARK    1  A    between atoms: O_1  and  C_9
REMARK    2  A    between atoms: O_1  and  C_10
REMARK    3  A    between atoms: C_3  and  C_4
REMARK    4  A    between atoms: C_3  and  C_5
REMARK    5  A    between atoms: C_4  and  C_6
REMARK    6  A    between atoms: C_5  and  C_7
REMARK    7  A    between atoms: C_6  and  C_8
REMARK    8  A    between atoms: C_7  and  C_9
REMARK    9  A    between atoms: C_10  and  C_11
REMARK                            x       y       z     vdW  Elec       q    Type
REMARK                         _______ _______ _______ _____ _____    ______ ____
ROOT
ATOM      1  C   UNL     1     -20.639  -3.891   5.759  0.00  0.00    +0.000 C 
ATOM      2  H   UNL     1     -19.812  -3.822   6.479  0.00  0.00    +0.000 HD
ATOM      3  H   UNL     1     -21.229  -4.769   6.046  0.00  0.00    +0.000 HD
ENDROOT
BRANCH   1   4
ATOM      4  C   UNL     1     -21.510  -2.634   5.857  0.00  0.00    +0.000 C 
ATOM      5  H   UNL     1     -21.349  -2.006   4.974  0.00  0.00    +0.000 HD
ATOM      6  H   UNL     1     -22.568  -2.924   5.862  0.00  0.00    +0.000 HD
BRANCH   4   7
ATOM      7  C   UNL     1     -21.192  -1.836   7.124  0.00  0.00    +0.000 C 
ATOM      8  H   UNL     1     -22.109  -1.372   7.508  0.00  0.00    +0.000 HD
ATOM      9  H   UNL     1     -20.825  -2.517   7.903  0.00  0.00    +0.000 HD
BRANCH   7  10
ATOM     10  C   UNL     1     -20.147  -0.755   6.852  0.00  0.00    +0.000 C 
ATOM     11  H   UNL     1     -19.142  -1.190   6.894  0.00  0.00    +0.000 HD
ATOM     12  H   UNL     1     -20.199   0.017   7.628  0.00  0.00    +0.000 HD
BRANCH  10  13
ATOM     13  C   UNL     1     -20.356  -0.108   5.492  0.00  0.00    +0.000 C 
ATOM     14  H   UNL     1     -19.440  -0.146   4.894  0.00  0.00    +0.000 HD
ATOM     15  H   UNL     1     -20.641   0.942   5.612  0.00  0.00    +0.000 HD
ATOM     16  H   UNL     1     -21.151  -0.613   4.935  0.00  0.00    +0.000 HD
ENDBRANCH  10  13
ENDBRANCH   7  10
ENDBRANCH   4   7
ENDBRANCH   1   4
BRANCH   1  17
ATOM     17  C   UNL     1     -20.071  -4.099   4.355  0.00  0.00    +0.000 C 
ATOM     18  H   UNL     1     -20.893  -4.255   3.647  0.00  0.00    +0.000 HD
ATOM     19  H   UNL     1     -19.511  -3.205   4.055  0.00  0.00    +0.000 HD
BRANCH  17  21
ATOM     20  O   UNL     1     -18.375  -5.657   5.136  0.00  0.00    +0.000 OA
ATOM     21  C   UNL     1     -19.143  -5.288   4.258  0.00  0.00    +0.000 C 
BRANCH  21  22
ATOM     22  O   UNL     1     -19.281  -5.860   3.024  0.00  0.00    +0.000 OA
BRANCH  22  23
ATOM     23  C   UNL     1     -18.918  -5.030   1.917  0.00  0.00    +0.000 C 
ATOM     24  H   UNL     1     -19.321  -5.462   0.994  0.00  0.00    +0.000 HD
ATOM     25  H   UNL     1     -19.344  -4.030   2.060  0.00  0.00    +0.000 HD
BRANCH  23  26
ATOM     26  C   UNL     1     -17.433  -4.940   1.828  0.00  0.00    +0.000 C 
ATOM     27  H   UNL     1     -16.952  -5.599   2.557  0.00  0.00    +0.000 HD
ATOM     28  H   UNL     1     -17.085  -5.215   0.826  0.00  0.00    +0.000 HD
ATOM     29  H   UNL     1     -17.092  -3.915   2.007  0.00  0.00    +0.000 HD
ENDBRANCH  23  26
ENDBRANCH  22  23
ENDBRANCH  21  22
ENDBRANCH  17  21
ENDBRANCH   1  17
TORSDOF 9
ENDMDL
MODEL 3
REMARK VINA RESULT:    -4.397     13.339     14.776
REMARK INTER + INTRA:          -6.736
REMARK INTER:                  -6.396
REMARK INTRA:                  -0.340
REMARK UNBOUND:                -0.282
REMARK  Name = 7797
REMARK  9 active torsions:
REMARK  status: ('A' for Active; 'I' for Inactive)
REMARK    1  A    between atoms: O_1  and  C_9
REMARK    2  A    between atoms: O_1  and  C_10
REMARK    3  A    between atoms: C_3  and  C_4
REMARK    4  A    between atoms: C_3  and  C_5
REMARK    5  A    between atoms: C_4  and  C_6
REMARK    6  A    between atoms: C_5  and  C_7
REMARK    7  A    between atoms: C_6  and  C_8
REMARK    8  A    between atoms: C_7  and  C_9
REMARK    9  A    between atoms: C_10  and  C_11
REMARK                            x       y       z     vdW  Elec       q    Type
REMARK                         _______ _______ _______ _____ _____    ______ ____
ROOT
ATOM      1  C   UNL     1      -2.391   9.781 -10.460  0.00  0.00    +0.000 C 
ATOM      2  H   UNL     1      -2.883   9.052 -11.117  0.00  0.00    +0.000 HD
ATOM      3  H   UNL     1      -2.994  10.696 -10.502  0.00  0.00    +0.000 HD
ENDROOT
BRANCH   1   4
ATOM      4  C   UNL     1      -2.373   9.246  -9.024  0.00  0.00    +0.000 C 
ATOM      5  H   UNL     1      -1.337   9.078  -8.708  0.00  0.00    +0.000 HD
ATOM      6  H   UNL     1      -2.800   9.998  -8.350  0.00  0.00    +0.000 HD
BRANCH   4   7
ATOM      7  C   UNL     1      -3.167   7.943  -8.908  0.00  0.00    +0.000 C 
ATOM      8  H   UNL     1      -2.838   7.389  -8.020  0.00  0.00    +0.000 HD
ATOM      9  H   UNL     1      -4.231   8.174  -8.769  0.00  0.00    +0.000 HD
BRANCH   7  10
ATOM     10  C   UNL     1      -2.989   7.071 -10.150  0.00  0.00    +0.000 C 
ATOM     11  H   UNL     1      -2.525   6.118  -9.871  0.00  0.00    +0.000 HD
ATOM     12  H   UNL     1      -2.315   7.566 -10.858  0.00  0.00    +0.000 HD
BRANCH  10  13
ATOM     13  C   UNL     1      -4.319   6.800 -10.835  0.00  0.00    +0.000 C 
ATOM     14  H   UNL     1      -4.875   6.014 -10.314  0.00  0.00    +0.000 HD
ATOM     15  H   UNL     1      -4.154   6.473 -11.866  0.00  0.00    +0.000 HD
ATOM     16  H   UNL     1      -4.939   7.701 -10.860  0.00  0.00    +0.000 HD
ENDBRANCH  10  13
ENDBRANCH   7  10
ENDBRANCH   4   7
ENDBRANCH   1   4
BRANCH   1  17
ATOM     17  C   UNL     1      -0.988  10.075 -10.990  0.00  0.00    +0.000 C 
ATOM     18  H   UNL     1      -0.925  11.126 -11.298  0.00  0.00    +0.000 HD
ATOM     19  H   UNL     1      -0.255   9.897 -10.194  0.00  0.00    +0.000 HD
BRANCH  17  21
ATOM     20  O   UNL     1      -0.286   8.041 -12.123  0.00  0.00    +0.000 OA
ATOM     21  C   UNL     1      -0.608   9.220 -12.178  0.00  0.00    +0.000 C 
BRANCH  21  22
ATOM     22  O   UNL     1      -0.654   9.985 -13.309  0.00  0.00    +0.000 OA
BRANCH  22  23
ATOM     23  C   UNL     1      -0.488   9.274 -14.540  0.00  0.00    +0.000 C 
ATOM     24  H   UNL     1      -0.579   8.199 -14.351  0.00  0.00    +0.000 HD
ATOM     25  H   UNL     1      -1.271   9.581 -15.243  0.00  0.00    +0.000 HD
BRANCH  23  26
ATOM     26  C   UNL     1       0.854   9.577 -15.113  0.00  0.00    +0.000 C 
ATOM     27  H   UNL     1       1.363  10.358 -14.540  0.00  0.00    +0.000 HD
ATOM     28  H   UNL     1       1.486   8.682 -15.120  0.00  0.00    +0.000 HD
ATOM     29  H   UNL     1       0.769   9.908 -16.154  0.00  0.00    +0.000 HD
ENDBRANCH  23  26
ENDBRANCH  22  23
ENDBRANCH  21  22
ENDBRANCH  17  21
ENDBRANCH   1  17
TORSDOF 9
ENDMDL
MODEL 4
REMARK VINA RESULT:    -4.371      1.682      3.004
REMARK INTER + INTRA:          -6.698
REMARK INTER:                  -6.091
REMARK INTRA:                  -0.607
REMARK UNBOUND:                -0.282
REMARK  Name = 7797
REMARK  9 active torsions:
REMARK  status: ('A' for Active; 'I' for Inactive)
REMARK    1  A    between atoms: O_1  and  C_9
REMARK    2  A    between atoms: O_1  and  C_10
REMARK    3  A    between atoms: C_3  and  C_4
REMARK    4  A    between atoms: C_3  and  C_5
REMARK    5  A    between atoms: C_4  and  C_6
REMARK    6  A    between atoms: C_5  and  C_7
REMARK    7  A    between atoms: C_6  and  C_8
REMARK    8  A    between atoms: C_7  and  C_9
REMARK    9  A    between atoms: C_10  and  C_11
REMARK                            x       y       z     vdW  Elec       q    Type
REMARK                         _______ _______ _______ _____ _____    ______ ____
ROOT
ATOM      1  C   UNL     1       8.095   9.697   1.366  0.00  0.00    +0.000 C 
ATOM      2  H   UNL     1       7.898  10.773   1.468  0.00  0.00    +0.000 HD
ATOM      3  H   UNL     1       9.171   9.593   1.184  0.00  0.00    +0.000 HD
ENDROOT
BRANCH   1   4
ATOM      4  C   UNL     1       7.726   8.983   2.670  0.00  0.00    +0.000 C 
ATOM      5  H   UNL     1       8.618   8.504   3.092  0.00  0.00    +0.000 HD
ATOM      6  H   UNL     1       7.375   9.719   3.403  0.00  0.00    +0.000 HD
BRANCH   4   7
ATOM      7  C   UNL     1       6.637   7.932   2.438  0.00  0.00    +0.000 C 
ATOM      8  H   UNL     1       5.736   8.416   2.040  0.00  0.00    +0.000 HD
ATOM      9  H   UNL     1       6.978   7.213   1.682  0.00  0.00    +0.000 HD
BRANCH   7  10
ATOM     10  C   UNL     1       6.292   7.194   3.730  0.00  0.00    +0.000 C 
ATOM     11  H   UNL     1       6.432   7.861   4.589  0.00  0.00    +0.000 HD
ATOM     12  H   UNL     1       6.970   6.344   3.866  0.00  0.00    +0.000 HD
BRANCH  10  13
ATOM     13  C   UNL     1       4.858   6.689   3.717  0.00  0.00    +0.000 C 
ATOM     14  H   UNL     1       4.592   6.239   4.679  0.00  0.00    +0.000 HD
ATOM     15  H   UNL     1       4.731   5.928   2.940  0.00  0.00    +0.000 HD
ATOM     16  H   UNL     1       4.157   7.503   3.513  0.00  0.00    +0.000 HD
ENDBRANCH  10  13
ENDBRANCH   7  10
ENDBRANCH   4   7
ENDBRANCH   1   4
BRANCH   1  17
ATOM     17  C   UNL     1       7.323   9.153   0.164  0.00  0.00    +0.000 C 
ATOM     18  H   UNL     1       8.030   8.787  -0.590  0.00  0.00    +0.000 HD
ATOM     19  H   UNL     1       6.689   8.319   0.489  0.00  0.00    +0.000 HD
BRANCH  17  21
ATOM     20  O   UNL     1       6.834  11.165  -1.112  0.00  0.00    +0.000 OA
ATOM     21  C   UNL     1       6.437  10.187  -0.493  0.00  0.00    +0.000 C 
BRANCH  21  22
ATOM     22  O   UNL     1       5.129   9.867  -0.257  0.00  0.00    +0.000 OA
BRANCH  22  23
ATOM     23  C   UNL     1       4.467  10.667   0.727  0.00  0.00    +0.000 C 
ATOM     24  H   UNL     1       5.217  11.176   1.343  0.00  0.00    +0.000 HD
ATOM     25  H   UNL     1       3.847  11.418   0.225  0.00  0.00    +0.000 HD
BRANCH  23  26
ATOM     26  C   UNL     1       3.614   9.796   1.585  0.00  0.00    +0.000 C 
ATOM     27  H   UNL     1       2.852   9.281   0.993  0.00  0.00    +0.000 HD
ATOM     28  H   UNL     1       4.221   9.044   2.101  0.00  0.00    +0.000 HD
ATOM     29  H   UNL     1       3.115  10.383   2.363  0.00  0.00    +0.000 HD
ENDBRANCH  23  26
ENDBRANCH  22  23
ENDBRANCH  21  22
ENDBRANCH  17  21
ENDBRANCH   1  17
TORSDOF 9
ENDMDL
MODEL 5
REMARK VINA RESULT:    -4.201     14.086     15.959
REMARK INTER + INTRA:          -6.448
REMARK INTER:                  -6.149
REMARK INTRA:                  -0.299
REMARK UNBOUND:                -0.282
REMARK  Name = 7797
REMARK  9 active torsions:
REMARK  status: ('A' for Active; 'I' for Inactive)
REMARK    1  A    between atoms: O_1  and  C_9
REMARK    2  A    between atoms: O_1  and  C_10
REMARK    3  A    between atoms: C_3  and  C_4
REMARK    4  A    between atoms: C_3  and  C_5
REMARK    5  A    between atoms: C_4  and  C_6
REMARK    6  A    between atoms: C_5  and  C_7
REMARK    7  A    between atoms: C_6  and  C_8
REMARK    8  A    between atoms: C_7  and  C_9
REMARK    9  A    between atoms: C_10  and  C_11
REMARK                            x       y       z     vdW  Elec       q    Type
REMARK                         _______ _______ _______ _____ _____    ______ ____
ROOT
ATOM      1  C   UNL     1      -8.285  10.905   7.237  0.00  0.00    +0.000 C 
ATOM      2  H   UNL     1      -7.191  10.981   7.305  0.00  0.00    +0.000 HD
ATOM      3  H   UNL     1      -8.692  11.751   7.803  0.00  0.00    +0.000 HD
ENDROOT
BRANCH   1   4
ATOM      4  C   UNL     1      -8.716  11.016   5.771  0.00  0.00    +0.000 C 
ATOM      5  H   UNL     1      -9.114  10.052   5.431  0.00  0.00    +0.000 HD
ATOM      6  H   UNL     1      -9.526  11.751   5.684  0.00  0.00    +0.000 HD
BRANCH   4   7
ATOM      7  C   UNL     1      -7.546  11.435   4.879  0.00  0.00    +0.000 C 
ATOM      8  H   UNL     1      -6.605  11.067   5.307  0.00  0.00    +0.000 HD
ATOM      9  H   UNL     1      -7.654  10.970   3.890  0.00  0.00    +0.000 HD
BRANCH   7  10
ATOM     10  C   UNL     1      -7.478  12.954   4.727  0.00  0.00    +0.000 C 
ATOM     11  H   UNL     1      -8.325  13.418   5.246  0.00  0.00    +0.000 HD
ATOM     12  H   UNL     1      -7.557  13.226   3.669  0.00  0.00    +0.000 HD
BRANCH  10  13
ATOM     13  C   UNL     1      -6.180  13.513   5.288  0.00  0.00    +0.000 C 
ATOM     14  H   UNL     1      -6.214  14.605   5.341  0.00  0.00    +0.000 HD
ATOM     15  H   UNL     1      -5.338  13.229   4.650  0.00  0.00    +0.000 HD
ATOM     16  H   UNL     1      -5.989  13.126   6.294  0.00  0.00    +0.000 HD
ENDBRANCH  10  13
ENDBRANCH   7  10
ENDBRANCH   4   7
ENDBRANCH   1   4
BRANCH   1  17
ATOM     17  C   UNL     1      -8.743   9.597   7.883  0.00  0.00    +0.000 C 
ATOM     18  H   UNL     1      -9.223   8.964   7.127  0.00  0.00    +0.000 HD
ATOM     19  H   UNL     1      -7.870   9.068   8.284  0.00  0.00    +0.000 HD
BRANCH  17  21
ATOM     20  O   UNL     1     -10.923  10.022   8.872  0.00  0.00    +0.000 OA
ATOM     21  C   UNL     1      -9.728   9.803   9.011  0.00  0.00    +0.000 C 
BRANCH  21  22
ATOM     22  O   UNL     1      -9.060   9.734  10.202  0.00  0.00    +0.000 OA
BRANCH  22  23
ATOM     23  C   UNL     1      -8.714   8.416  10.638  0.00  0.00    +0.000 C 
ATOM     24  H   UNL     1      -8.621   7.759   9.766  0.00  0.00    +0.000 HD
ATOM     25  H   UNL     1      -7.753   8.450  11.165  0.00  0.00    +0.000 HD
BRANCH  23  26
ATOM     26  C   UNL     1      -9.774   7.900  11.550  0.00  0.00    +0.000 C 
ATOM     27  H   UNL     1     -10.678   7.632  10.995  0.00  0.00    +0.000 HD
ATOM     28  H   UNL     1      -9.424   7.016  12.095  0.00  0.00    +0.000 HD
ATOM     29  H   UNL     1     -10.038   8.648  12.305  0.00  0.00    +0.000 HD
ENDBRANCH  23  26
ENDBRANCH  22  23
ENDBRANCH  21  22
ENDBRANCH  17  21
ENDBRANCH   1  17
TORSDOF 9
ENDMDL
MODEL 6
REMARK VINA RESULT:    -4.136     13.769     15.477
REMARK INTER + INTRA:          -6.352
REMARK INTER:                  -5.710
REMARK INTRA:                  -0.643
REMARK UNBOUND:                -0.282
REMARK  Name = 7797
REMARK  9 active torsions:
REMARK  status: ('A' for Active; 'I' for Inactive)
REMARK    1  A    between atoms: O_1  and  C_9
REMARK    2  A    between atoms: O_1  and  C_10
REMARK    3  A    between atoms: C_3  and  C_4
REMARK    4  A    between atoms: C_3  and  C_5
REMARK    5  A    between atoms: C_4  and  C_6
REMARK    6  A    between atoms: C_5  and  C_7
REMARK    7  A    between atoms: C_6  and  C_8
REMARK    8  A    between atoms: C_7  and  C_9
REMARK    9  A    between atoms: C_10  and  C_11
REMARK                            x       y       z     vdW  Elec       q    Type
REMARK                         _______ _______ _______ _____ _____    ______ ____
ROOT
ATOM      1  C   UNL     1      -0.244   8.772 -12.291  0.00  0.00    +0.000 C 
ATOM      2  H   UNL     1       0.151   8.893 -13.308  0.00  0.00    +0.000 HD
ATOM      3  H   UNL     1       0.624   8.758 -11.620  0.00  0.00    +0.000 HD
ENDROOT
BRANCH   1   4
ATOM      4  C   UNL     1      -1.141   9.964 -11.942  0.00  0.00    +0.000 C 
ATOM      5  H   UNL     1      -0.722  10.878 -12.379  0.00  0.00    +0.000 HD
ATOM      6  H   UNL     1      -2.132   9.816 -12.387  0.00  0.00    +0.000 HD
BRANCH   4   7
ATOM      7  C   UNL     1      -1.278  10.130 -10.427  0.00  0.00    +0.000 C 
ATOM      8  H   UNL     1      -0.648   9.390  -9.916  0.00  0.00    +0.000 HD
ATOM      9  H   UNL     1      -0.913  11.123 -10.133  0.00  0.00    +0.000 HD
BRANCH   7  10
ATOM     10  C   UNL     1      -2.728   9.963  -9.978  0.00  0.00    +0.000 C 
ATOM     11  H   UNL     1      -3.311   9.485 -10.774  0.00  0.00    +0.000 HD
ATOM     12  H   UNL     1      -3.177  10.945  -9.793  0.00  0.00    +0.000 HD
BRANCH  10  13
ATOM     13  C   UNL     1      -2.827   9.125  -8.713  0.00  0.00    +0.000 C 
ATOM     14  H   UNL     1      -1.920   9.220  -8.108  0.00  0.00    +0.000 HD
ATOM     15  H   UNL     1      -2.956   8.068  -8.968  0.00  0.00    +0.000 HD
ATOM     16  H   UNL     1      -3.681   9.434  -8.103  0.00  0.00    +0.000 HD
ENDBRANCH  10  13
ENDBRANCH   7  10
ENDBRANCH   4   7
ENDBRANCH   1   4
BRANCH   1  17
ATOM     17  C   UNL     1      -0.982   7.437 -12.190  0.00  0.00    +0.000 C 
ATOM     18  H   UNL     1      -0.254   6.620 -12.121  0.00  0.00    +0.000 HD
ATOM     19  H   UNL     1      -1.603   7.434 -11.286  0.00  0.00    +0.000 HD
BRANCH  17  21
ATOM     20  O   UNL     1      -1.565   7.315 -14.548  0.00  0.00    +0.000 OA
ATOM     21  C   UNL     1      -1.879   7.161 -13.376  0.00  0.00    +0.000 C 
BRANCH  21  22
ATOM     22  O   UNL     1      -3.099   6.743 -12.923  0.00  0.00    +0.000 OA
BRANCH  22  23
ATOM     23  C   UNL     1      -3.264   6.754 -11.501  0.00  0.00    +0.000 C 
ATOM     24  H   UNL     1      -2.838   5.836 -11.080  0.00  0.00    +0.000 HD
ATOM     25  H   UNL     1      -2.736   7.618 -11.083  0.00  0.00    +0.000 HD
BRANCH  23  26
ATOM     26  C   UNL     1      -4.715   6.837 -11.171  0.00  0.00    +0.000 C 
ATOM     27  H   UNL     1      -5.301   7.168 -12.034  0.00  0.00    +0.000 HD
ATOM     28  H   UNL     1      -5.097   5.864 -10.843  0.00  0.00    +0.000 HD
ATOM     29  H   UNL     1      -4.888   7.536 -10.345  0.00  0.00    +0.000 HD
ENDBRANCH  23  26
ENDBRANCH  22  23
ENDBRANCH  21  22
ENDBRANCH  17  21
ENDBRANCH   1  17
TORSDOF 9
ENDMDL
MODEL 7
REMARK VINA RESULT:    -4.063      3.847      5.069
REMARK INTER + INTRA:          -6.245
REMARK INTER:                  -5.754
REMARK INTRA:                  -0.491
REMARK UNBOUND:                -0.282
REMARK  Name = 7797
REMARK  9 active torsions:
REMARK  status: ('A' for Active; 'I' for Inactive)
REMARK    1  A    between atoms: O_1  and  C_9
REMARK    2  A    between atoms: O_1  and  C_10
REMARK    3  A    between atoms: C_3  and  C_4
REMARK    4  A    between atoms: C_3  and  C_5
REMARK    5  A    between atoms: C_4  and  C_6
REMARK    6  A    between atoms: C_5  and  C_7
REMARK    7  A    between atoms: C_6  and  C_8
REMARK    8  A    between atoms: C_7  and  C_9
REMARK    9  A    between atoms: C_10  and  C_11
REMARK                            x       y       z     vdW  Elec       q    Type
REMARK                         _______ _______ _______ _____ _____    ______ ____
ROOT
ATOM      1  C   UNL     1       6.619   8.834   5.388  0.00  0.00    +0.000 C 
ATOM      2  H   UNL     1       6.209   8.918   6.404  0.00  0.00    +0.000 HD
ATOM      3  H   UNL     1       6.020   9.499   4.754  0.00  0.00    +0.000 HD
ENDROOT
BRANCH   1   4
ATOM      4  C   UNL     1       8.079   9.299   5.384  0.00  0.00    +0.000 C 
ATOM      5  H   UNL     1       8.738   8.442   5.563  0.00  0.00    +0.000 HD
ATOM      6  H   UNL     1       8.330   9.700   4.394  0.00  0.00    +0.000 HD
BRANCH   4   7
ATOM      7  C   UNL     1       8.322  10.371   6.449  0.00  0.00    +0.000 C 
ATOM      8  H   UNL     1       8.732  11.273   5.977  0.00  0.00    +0.000 HD
ATOM      9  H   UNL     1       7.366  10.653   6.909  0.00  0.00    +0.000 HD
BRANCH   7  10
ATOM     10  C   UNL     1       9.285   9.875   7.526  0.00  0.00    +0.000 C 
ATOM     11  H   UNL     1      10.028  10.650   7.746  0.00  0.00    +0.000 HD
ATOM     12  H   UNL     1       9.830   8.997   7.162  0.00  0.00    +0.000 HD
BRANCH  10  13
ATOM     13  C   UNL     1       8.549   9.509   8.805  0.00  0.00    +0.000 C 
ATOM     14  H   UNL     1       7.474   9.684   8.703  0.00  0.00    +0.000 HD
ATOM     15  H   UNL     1       8.914  10.115   9.639  0.00  0.00    +0.000 HD
ATOM     16  H   UNL     1       8.702   8.455   9.058  0.00  0.00    +0.000 HD
ENDBRANCH  10  13
ENDBRANCH   7  10
ENDBRANCH   4   7
ENDBRANCH   1   4
BRANCH   1  17
ATOM     17  C   UNL     1       6.464   7.394   4.898  0.00  0.00    +0.000 C 
ATOM     18  H   UNL     1       7.440   7.008   4.580  0.00  0.00    +0.000 HD
ATOM     19  H   UNL     1       6.088   6.771   5.718  0.00  0.00    +0.000 HD
BRANCH  17  21
ATOM     20  O   UNL     1       4.780   6.301   3.525  0.00  0.00    +0.000 OA
ATOM     21  C   UNL     1       5.511   7.260   3.732  0.00  0.00    +0.000 C 
BRANCH  21  22
ATOM     22  O   UNL     1       5.622   8.368   2.938  0.00  0.00    +0.000 OA
BRANCH  22  23
ATOM     23  C   UNL     1       6.336   8.177   1.713  0.00  0.00    +0.000 C 
ATOM     24  H   UNL     1       6.637   7.127   1.630  0.00  0.00    +0.000 HD
ATOM     25  H   UNL     1       5.682   8.430   0.871  0.00  0.00    +0.000 HD
BRANCH  23  26
ATOM     26  C   UNL     1       7.542   9.053   1.699  0.00  0.00    +0.000 C 
ATOM     27  H   UNL     1       8.306   8.665   1.019  0.00  0.00    +0.000 HD
ATOM     28  H   UNL     1       7.281  10.071   1.388  0.00  0.00    +0.000 HD
ATOM     29  H   UNL     1       7.977   9.134   2.702  0.00  0.00    +0.000 HD
ENDBRANCH  23  26
ENDBRANCH  22  23
ENDBRANCH  21  22
ENDBRANCH  17  21
ENDBRANCH   1  17
TORSDOF 9
ENDMDL
MODEL 8
REMARK VINA RESULT:    -4.047     13.326     14.518
REMARK INTER + INTRA:          -6.221
REMARK INTER:                  -5.733
REMARK INTRA:                  -0.488
REMARK UNBOUND:                -0.282
REMARK  Name = 7797
REMARK  9 active torsions:
REMARK  status: ('A' for Active; 'I' for Inactive)
REMARK    1  A    between atoms: O_1  and  C_9
REMARK    2  A    between atoms: O_1  and  C_10
REMARK    3  A    between atoms: C_3  and  C_4
REMARK    4  A    between atoms: C_3  and  C_5
REMARK    5  A    between atoms: C_4  and  C_6
REMARK    6  A    between atoms: C_5  and  C_7
REMARK    7  A    between atoms: C_6  and  C_8
REMARK    8  A    between atoms: C_7  and  C_9
REMARK    9  A    between atoms: C_10  and  C_11
REMARK                            x       y       z     vdW  Elec       q    Type
REMARK                         _______ _______ _______ _____ _____    ______ ____
ROOT
ATOM      1  C   UNL     1      -6.783  13.898   7.331  0.00  0.00    +0.000 C 
ATOM      2  H   UNL     1      -7.089  14.947   7.438  0.00  0.00    +0.000 HD
ATOM      3  H   UNL     1      -7.699  13.298   7.404  0.00  0.00    +0.000 HD
ENDROOT
BRANCH   1   4
ATOM      4  C   UNL     1      -6.141  13.688   5.956  0.00  0.00    +0.000 C 
ATOM      5  H   UNL     1      -5.650  14.614   5.635  0.00  0.00    +0.000 HD
ATOM      6  H   UNL     1      -5.364  12.917   6.031  0.00  0.00    +0.000 HD
BRANCH   4   7
ATOM      7  C   UNL     1      -7.182  13.267   4.917  0.00  0.00    +0.000 C 
ATOM      8  H   UNL     1      -8.184  13.553   5.261  0.00  0.00    +0.000 HD
ATOM      9  H   UNL     1      -6.999  13.804   3.977  0.00  0.00    +0.000 HD
BRANCH   7  10
ATOM     10  C   UNL     1      -7.139  11.761   4.665  0.00  0.00    +0.000 C 
ATOM     11  H   UNL     1      -6.176  11.355   4.997  0.00  0.00    +0.000 HD
ATOM     12  H   UNL     1      -7.222  11.560   3.590  0.00  0.00    +0.000 HD
BRANCH  10  13
ATOM     13  C   UNL     1      -8.263  11.042   5.393  0.00  0.00    +0.000 C 
ATOM     14  H   UNL     1      -8.770  11.713   6.093  0.00  0.00    +0.000 HD
ATOM     15  H   UNL     1      -7.866  10.195   5.962  0.00  0.00    +0.000 HD
ATOM     16  H   UNL     1      -9.006  10.657   4.687  0.00  0.00    +0.000 HD
ENDBRANCH  10  13
ENDBRANCH   7  10
ENDBRANCH   4   7
ENDBRANCH   1   4
BRANCH   1  17
ATOM     17  C   UNL     1      -5.843  13.526   8.478  0.00  0.00    +0.000 C 
ATOM     18  H   UNL     1      -4.868  13.230   8.071  0.00  0.00    +0.000 HD
ATOM     19  H   UNL     1      -5.704  14.397   9.129  0.00  0.00    +0.000 HD
BRANCH  17  21
ATOM     20  O   UNL     1      -5.904  12.052  10.411  0.00  0.00    +0.000 OA
ATOM     21  C   UNL     1      -6.358  12.385   9.325  0.00  0.00    +0.000 C 
BRANCH  21  22
ATOM     22  O   UNL     1      -7.388  11.773   8.667  0.00  0.00    +0.000 OA
BRANCH  22  23
ATOM     23  C   UNL     1      -8.254  10.977   9.483  0.00  0.00    +0.000 C 
ATOM     24  H   UNL     1      -7.969  11.096  10.534  0.00  0.00    +0.000 HD
ATOM     25  H   UNL     1      -9.287  11.318   9.351  0.00  0.00    +0.000 HD
BRANCH  23  26
ATOM     26  C   UNL     1      -8.136   9.546   9.084  0.00  0.00    +0.000 C 
ATOM     27  H   UNL     1      -7.155   9.335   8.648  0.00  0.00    +0.000 HD
ATOM     28  H   UNL     1      -8.284   8.887   9.947  0.00  0.00    +0.000 HD
ATOM     29  H   UNL     1      -8.907   9.280   8.352  0.00  0.00    +0.000 HD
ENDBRANCH  23  26
ENDBRANCH  22  23
ENDBRANCH  21  22
ENDBRANCH  17  21
ENDBRANCH   1  17
TORSDOF 9
ENDMDL
MODEL 9
REMARK VINA RESULT:    -3.901     15.970     17.418
REMARK INTER + INTRA:          -6.008
REMARK INTER:                  -5.403
REMARK INTRA:                  -0.605
REMARK UNBOUND:                -0.282
REMARK  Name = 7797
REMARK  9 active torsions:
REMARK  status: ('A' for Active; 'I' for Inactive)
REMARK    1  A    between atoms: O_1  and  C_9
REMARK    2  A    between atoms: O_1  and  C_10
REMARK    3  A    between atoms: C_3  and  C_4
REMARK    4  A    between atoms: C_3  and  C_5
REMARK    5  A    between atoms: C_4  and  C_6
REMARK    6  A    between atoms: C_5  and  C_7
REMARK    7  A    between atoms: C_6  and  C_8
REMARK    8  A    between atoms: C_7  and  C_9
REMARK    9  A    between atoms: C_10  and  C_11
REMARK                            x       y       z     vdW  Elec       q    Type
REMARK                         _______ _______ _______ _____ _____    ______ ____
ROOT
ATOM      1  C   UNL     1      12.866  -3.162   8.736  0.00  0.00    +0.000 C 
ATOM      2  H   UNL     1      12.803  -4.258   8.755  0.00  0.00    +0.000 HD
ATOM      3  H   UNL     1      13.918  -2.907   8.919  0.00  0.00    +0.000 HD
ENDROOT
BRANCH   1   4
ATOM      4  C   UNL     1      12.448  -2.648   7.355  0.00  0.00    +0.000 C 
ATOM      5  H   UNL     1      11.425  -2.257   7.403  0.00  0.00    +0.000 HD
ATOM      6  H   UNL     1      13.100  -1.816   7.062  0.00  0.00    +0.000 HD
BRANCH   4   7
ATOM      7  C   UNL     1      12.528  -3.757   6.303  0.00  0.00    +0.000 C 
ATOM      8  H   UNL     1      11.647  -4.405   6.382  0.00  0.00    +0.000 HD
ATOM      9  H   UNL     1      12.512  -3.311   5.300  0.00  0.00    +0.000 HD
BRANCH   7  10
ATOM     10  C   UNL     1      13.795  -4.594   6.474  0.00  0.00    +0.000 C 
ATOM     11  H   UNL     1      13.589  -5.639   6.215  0.00  0.00    +0.000 HD
ATOM     12  H   UNL     1      14.115  -4.576   7.522  0.00  0.00    +0.000 HD
BRANCH  10  13
ATOM     13  C   UNL     1      14.927  -4.076   5.600  0.00  0.00    +0.000 C 
ATOM     14  H   UNL     1      15.846  -3.952   6.181  0.00  0.00    +0.000 HD
ATOM     15  H   UNL     1      14.661  -3.104   5.173  0.00  0.00    +0.000 HD
ATOM     16  H   UNL     1      15.133  -4.765   4.775  0.00  0.00    +0.000 HD
ENDBRANCH  10  13
ENDBRANCH   7  10
ENDBRANCH   4   7
ENDBRANCH   1   4
BRANCH   1  17
ATOM     17  C   UNL     1      12.004  -2.585   9.860  0.00  0.00    +0.000 C 
ATOM     18  H   UNL     1      12.635  -2.365  10.729  0.00  0.00    +0.000 HD
ATOM     19  H   UNL     1      11.539  -1.654   9.516  0.00  0.00    +0.000 HD
BRANCH  17  21
ATOM     20  O   UNL     1       9.837  -3.175  10.793  0.00  0.00    +0.000 OA
ATOM     21  C   UNL     1      10.906  -3.522  10.308  0.00  0.00    +0.000 C 
BRANCH  21  22
ATOM     22  O   UNL     1      11.313  -4.812  10.112  0.00  0.00    +0.000 OA
BRANCH  22  23
ATOM     23  C   UNL     1      10.305  -5.712   9.642  0.00  0.00    +0.000 C 
ATOM     24  H   UNL     1      10.162  -6.510  10.379  0.00  0.00    +0.000 HD
ATOM     25  H   UNL     1       9.363  -5.166   9.518  0.00  0.00    +0.000 HD
BRANCH  23  26
ATOM     26  C   UNL     1      10.729  -6.296   8.338  0.00  0.00    +0.000 C 
ATOM     27  H   UNL     1       9.920  -6.251   7.602  0.00  0.00    +0.000 HD
ATOM     28  H   UNL     1      11.597  -5.762   7.935  0.00  0.00    +0.000 HD
ATOM     29  H   UNL     1      11.033  -7.341   8.459  0.00  0.00    +0.000 HD
ENDBRANCH  23  26
ENDBRANCH  22  23
ENDBRANCH  21  22
ENDBRANCH  17  21
ENDBRANCH   1  17
TORSDOF 9
ENDMDL
MODEL 10
REMARK VINA RESULT:    -3.828      4.992      6.100
REMARK INTER + INTRA:          -5.900
REMARK INTER:                  -5.618
REMARK INTRA:                  -0.282
REMARK UNBOUND:                -0.282
REMARK  Name = 7797
REMARK  9 active torsions:
REMARK  status: ('A' for Active; 'I' for Inactive)
REMARK    1  A    between atoms: O_1  and  C_9
REMARK    2  A    between atoms: O_1  and  C_10
REMARK    3  A    between atoms: C_3  and  C_4
REMARK    4  A    between atoms: C_3  and  C_5
REMARK    5  A    between atoms: C_4  and  C_6
REMARK    6  A    between atoms: C_5  and  C_7
REMARK    7  A    between atoms: C_6  and  C_8
REMARK    8  A    between atoms: C_7  and  C_9
REMARK    9  A    between atoms: C_10  and  C_11
REMARK                            x       y       z     vdW  Elec       q    Type
REMARK                         _______ _______ _______ _____ _____    ______ ____
ROOT
ATOM      1  C   UNL     1       6.867   9.261   5.897  0.00  0.00    +0.000 C 
ATOM      2  H   UNL     1       6.258  10.120   5.585  0.00  0.00    +0.000 HD
ATOM      3  H   UNL     1       6.289   8.733   6.666  0.00  0.00    +0.000 HD
ENDROOT
BRANCH   1   4
ATOM      4  C   UNL     1       7.095   8.332   4.701  0.00  0.00    +0.000 C 
ATOM      5  H   UNL     1       6.842   8.859   3.773  0.00  0.00    +0.000 HD
ATOM      6  H   UNL     1       8.157   8.065   4.643  0.00  0.00    +0.000 HD
BRANCH   4   7
ATOM      7  C   UNL     1       6.252   7.060   4.818  0.00  0.00    +0.000 C 
ATOM      8  H   UNL     1       6.887   6.226   5.143  0.00  0.00    +0.000 HD
ATOM      9  H   UNL     1       5.484   7.200   5.589  0.00  0.00    +0.000 HD
BRANCH   7  10
ATOM     10  C   UNL     1       5.588   6.708   3.488  0.00  0.00    +0.000 C 
ATOM     11  H   UNL     1       5.023   5.774   3.590  0.00  0.00    +0.000 HD
ATOM     12  H   UNL     1       6.354   6.542   2.722  0.00  0.00    +0.000 HD
BRANCH  10  13
ATOM     13  C   UNL     1       4.652   7.812   3.024  0.00  0.00    +0.000 C 
ATOM     14  H   UNL     1       4.697   7.934   1.937  0.00  0.00    +0.000 HD
ATOM     15  H   UNL     1       4.931   8.765   3.485  0.00  0.00    +0.000 HD
ATOM     16  H   UNL     1       3.616   7.591   3.301  0.00  0.00    +0.000 HD
ENDBRANCH  10  13
ENDBRANCH   7  10
ENDBRANCH   4   7
ENDBRANCH   1   4
BRANCH   1  17
ATOM     17  C   UNL     1       8.177   9.764   6.504  0.00  0.00    +0.000 C 
ATOM     18  H   UNL     1       8.420   9.169   7.393  0.00  0.00    +0.000 HD
ATOM     19  H   UNL     1       8.983   9.648   5.770  0.00  0.00    +0.000 HD
BRANCH  17  21
ATOM     20  O   UNL     1       7.401  11.675   7.792  0.00  0.00    +0.000 OA
ATOM     21  C   UNL     1       8.124  11.217   6.918  0.00  0.00    +0.000 C 
BRANCH  21  22
ATOM     22  O   UNL     1       8.988  11.933   6.137  0.00  0.00    +0.000 OA
BRANCH  22  23
ATOM     23  C   UNL     1      10.023  11.172   5.507  0.00  0.00    +0.000 C 
ATOM     24  H   UNL     1       9.842  10.104   5.678  0.00  0.00    +0.000 HD
ATOM     25  H   UNL     1      10.011  11.368   4.429  0.00  0.00    +0.000 HD
BRANCH  23  26
ATOM     26  C   UNL     1      11.344  11.560   6.079  0.00  0.00    +0.000 C 
ATOM     27  H   UNL     1      11.750  10.766   6.713  0.00  0.00    +0.000 HD
ATOM     28  H   UNL     1      12.065  11.774   5.283  0.00  0.00    +0.000 HD
ATOM     29  H   UNL     1      11.257  12.473   6.678  0.00  0.00    +0.000 HD
ENDBRANCH  23  26
ENDBRANCH  22  23
ENDBRANCH  21  22
ENDBRANCH  17  21
ENDBRANCH   1  17
TORSDOF 9
ENDMDL
