MODEL 1
REMARK VINA RESULT:    -4.652      0.000      0.000
REMARK INTER + INTRA:          -8.350
REMARK INTER:                  -7.745
REMARK INTRA:                  -0.605
REMARK UNBOUND:                -0.978
REMARK  Name = 31251
REMARK  11 active torsions:
REMARK  status: ('A' for Active; 'I' for Inactive)
REMARK    1  A    between atoms: O_1  and  C_11
REMARK    2  A    between atoms: O_1  and  C_12
REMARK    3  A    between atoms: C_3  and  C_4
REMARK    4  A    between atoms: C_3  and  C_5
REMARK    5  A    between atoms: C_4  and  C_6
REMARK    6  A    between atoms: C_5  and  C_7
REMARK    7  A    between atoms: C_6  and  C_8
REMARK    8  A    between atoms: C_7  and  C_9
REMARK    9  A    between atoms: C_8  and  C_10
REMARK   10  A    between atoms: C_9  and  C_11
REMARK   11  A    between atoms: C_12  and  C_13
REMARK                            x       y       z     vdW  Elec       q    Type
REMARK                         _______ _______ _______ _____ _____    ______ ____
ROOT
ATOM      1  C   UNL     1       4.605   8.794   2.828  0.00  0.00    +0.000 C 
ATOM      2  H   UNL     1       4.988   9.813   2.962  0.00  0.00    +0.000 HD
ATOM      3  H   UNL     1       4.146   8.492   3.776  0.00  0.00    +0.000 HD
ENDROOT
BRANCH   1   4
ATOM      4  C   UNL     1       5.766   7.853   2.494  0.00  0.00    +0.000 C 
ATOM      5  H   UNL     1       5.458   7.166   1.696  0.00  0.00    +0.000 HD
ATOM      6  H   UNL     1       6.605   8.439   2.100  0.00  0.00    +0.000 HD
BRANCH   4   7
ATOM      7  C   UNL     1       6.252   7.037   3.696  0.00  0.00    +0.000 C 
ATOM      8  H   UNL     1       7.273   6.686   3.495  0.00  0.00    +0.000 HD
ATOM      9  H   UNL     1       5.626   6.142   3.801  0.00  0.00    +0.000 HD
BRANCH   7  10
ATOM     10  C   UNL     1       6.236   7.820   5.010  0.00  0.00    +0.000 C 
ATOM     11  H   UNL     1       6.124   7.124   5.851  0.00  0.00    +0.000 HD
ATOM     12  H   UNL     1       5.367   8.488   5.027  0.00  0.00    +0.000 HD
BRANCH  10  13
ATOM     13  C   UNL     1       7.516   8.639   5.183  0.00  0.00    +0.000 C 
ATOM     14  H   UNL     1       8.360   7.972   5.390  0.00  0.00    +0.000 HD
ATOM     15  H   UNL     1       7.744   9.175   4.255  0.00  0.00    +0.000 HD
BRANCH  13  16
ATOM     16  C   UNL     1       7.384   9.645   6.317  0.00  0.00    +0.000 C 
ATOM     17  H   UNL     1       7.402   9.144   7.290  0.00  0.00    +0.000 HD
ATOM     18  H   UNL     1       6.448  10.207   6.236  0.00  0.00    +0.000 HD
ATOM     19  H   UNL     1       8.213  10.360   6.286  0.00  0.00    +0.000 HD
ENDBRANCH  13  16
ENDBRANCH  10  13
ENDBRANCH   7  10
ENDBRANCH   4   7
ENDBRANCH   1   4
BRANCH   1  20
ATOM     20  C   UNL     1       3.550   8.784   1.717  0.00  0.00    +0.000 C 
ATOM     21  H   UNL     1       2.616   9.218   2.096  0.00  0.00    +0.000 HD
ATOM     22  H   UNL     1       3.322   7.747   1.439  0.00  0.00    +0.000 HD
BRANCH  20  23
ATOM     23  C   UNL     1       4.002   9.552   0.477  0.00  0.00    +0.000 C 
ATOM     24  H   UNL     1       5.012   9.236   0.195  0.00  0.00    +0.000 HD
ATOM     25  H   UNL     1       3.319   9.341  -0.353  0.00  0.00    +0.000 HD
BRANCH  23  27
ATOM     26  O   UNL     1       3.088  11.673   1.179  0.00  0.00    +0.000 OA
ATOM     27  C   UNL     1       4.023  11.044   0.697  0.00  0.00    +0.000 C 
BRANCH  27  28
ATOM     28  O   UNL     1       5.213  11.563   0.282  0.00  0.00    +0.000 OA
BRANCH  28  29
ATOM     29  C   UNL     1       6.232  10.604  -0.020  0.00  0.00    +0.000 C 
ATOM     30  H   UNL     1       5.769   9.631  -0.222  0.00  0.00    +0.000 HD
ATOM     31  H   UNL     1       6.913  10.513   0.833  0.00  0.00    +0.000 HD
BRANCH  29  32
ATOM     32  C   UNL     1       6.998  11.067  -1.240  0.00  0.00    +0.000 C 
ATOM     33  H   UNL     1       8.053  10.785  -1.170  0.00  0.00    +0.000 HD
ATOM     34  H   UNL     1       6.575  10.631  -2.151  0.00  0.00    +0.000 HD
ATOM     35  H   UNL     1       6.931  12.155  -1.348  0.00  0.00    +0.000 HD
ENDBRANCH  29  32
ENDBRANCH  28  29
ENDBRANCH  27  28
ENDBRANCH  23  27
ENDBRANCH  20  23
ENDBRANCH   1  20
TORSDOF 11
ENDMDL
MODEL 2
REMARK VINA RESULT:    -4.556      1.920      4.040
REMARK INTER + INTRA:          -8.198
REMARK INTER:                  -7.570
REMARK INTRA:                  -0.628
REMARK UNBOUND:                -0.978
REMARK  Name = 31251
REMARK  11 active torsions:
REMARK  status: ('A' for Active; 'I' for Inactive)
REMARK    1  A    between atoms: O_1  and  C_11
REMARK    2  A    between atoms: O_1  and  C_12
REMARK    3  A    between atoms: C_3  and  C_4
REMARK    4  A    between atoms: C_3  and  C_5
REMARK    5  A    between atoms: C_4  and  C_6
REMARK    6  A    between atoms: C_5  and  C_7
REMARK    7  A    between atoms: C_6  and  C_8
REMARK    8  A    between atoms: C_7  and  C_9
REMARK    9  A    between atoms: C_8  and  C_10
REMARK   10  A    between atoms: C_9  and  C_11
REMARK   11  A    between atoms: C_12  and  C_13
REMARK                            x       y       z     vdW  Elec       q    Type
REMARK                         _______ _______ _______ _____ _____    ______ ____
ROOT
ATOM      1  C   UNL     1       6.236   7.579   2.449  0.00  0.00    +0.000 C 
ATOM      2  H   UNL     1       6.688   6.580   2.412  0.00  0.00    +0.000 HD
ATOM      3  H   UNL     1       5.744   7.749   1.485  0.00  0.00    +0.000 HD
ENDROOT
BRANCH   1   4
ATOM      4  C   UNL     1       7.331   8.627   2.661  0.00  0.00    +0.000 C 
ATOM      5  H   UNL     1       6.985   9.372   3.389  0.00  0.00    +0.000 HD
ATOM      6  H   UNL     1       8.214   8.145   3.099  0.00  0.00    +0.000 HD
BRANCH   4   7
ATOM      7  C   UNL     1       7.745   9.344   1.373  0.00  0.00    +0.000 C 
ATOM      8  H   UNL     1       8.842   9.353   1.309  0.00  0.00    +0.000 HD
ATOM      9  H   UNL     1       7.423  10.392   1.423  0.00  0.00    +0.000 HD
BRANCH   7  10
ATOM     10  C   UNL     1       7.171   8.703   0.108  0.00  0.00    +0.000 C 
ATOM     11  H   UNL     1       6.219   9.183  -0.148  0.00  0.00    +0.000 HD
ATOM     12  H   UNL     1       6.957   7.644   0.300  0.00  0.00    +0.000 HD
BRANCH  10  13
ATOM     13  C   UNL     1       8.144   8.824  -1.066  0.00  0.00    +0.000 C 
ATOM     14  H   UNL     1       8.957   8.097  -0.951  0.00  0.00    +0.000 HD
ATOM     15  H   UNL     1       7.628   8.589  -2.004  0.00  0.00    +0.000 HD
BRANCH  13  16
ATOM     16  C   UNL     1       8.733  10.223  -1.160  0.00  0.00    +0.000 C 
ATOM     17  H   UNL     1       9.797  10.219  -0.903  0.00  0.00    +0.000 HD
ATOM     18  H   UNL     1       8.217  10.912  -0.482  0.00  0.00    +0.000 HD
ATOM     19  H   UNL     1       8.630  10.609  -2.179  0.00  0.00    +0.000 HD
ENDBRANCH  13  16
ENDBRANCH  10  13
ENDBRANCH   7  10
ENDBRANCH   4   7
ENDBRANCH   1   4
BRANCH   1  20
ATOM     20  C   UNL     1       5.197   7.630   3.575  0.00  0.00    +0.000 C 
ATOM     21  H   UNL     1       5.702   7.511   4.542  0.00  0.00    +0.000 HD
ATOM     22  H   UNL     1       4.509   6.781   3.476  0.00  0.00    +0.000 HD
BRANCH  20  23
ATOM     23  C   UNL     1       4.400   8.932   3.573  0.00  0.00    +0.000 C 
ATOM     24  H   UNL     1       3.835   9.020   4.507  0.00  0.00    +0.000 HD
ATOM     25  H   UNL     1       5.088   9.782   3.491  0.00  0.00    +0.000 HD
BRANCH  23  27
ATOM     26  O   UNL     1       2.866   8.033   1.941  0.00  0.00    +0.000 OA
ATOM     27  C   UNL     1       3.423   9.010   2.426  0.00  0.00    +0.000 C 
BRANCH  27  28
ATOM     28  O   UNL     1       3.269  10.305   2.029  0.00  0.00    +0.000 OA
BRANCH  28  29
ATOM     29  C   UNL     1       4.076  10.710   0.918  0.00  0.00    +0.000 C 
ATOM     30  H   UNL     1       4.262   9.847   0.269  0.00  0.00    +0.000 HD
ATOM     31  H   UNL     1       5.031  11.102   1.285  0.00  0.00    +0.000 HD
BRANCH  29  32
ATOM     32  C   UNL     1       3.344  11.784   0.143  0.00  0.00    +0.000 C 
ATOM     33  H   UNL     1       3.189  12.674   0.760  0.00  0.00    +0.000 HD
ATOM     34  H   UNL     1       3.909  12.066  -0.751  0.00  0.00    +0.000 HD
ATOM     35  H   UNL     1       2.370  11.418  -0.199  0.00  0.00    +0.000 HD
ENDBRANCH  29  32
ENDBRANCH  28  29
ENDBRANCH  27  28
ENDBRANCH  23  27
ENDBRANCH  20  23
ENDBRANCH   1  20
TORSDOF 11
ENDMDL
MODEL 3
REMARK VINA RESULT:    -4.552     14.176     15.972
REMARK INTER + INTRA:          -8.191
REMARK INTER:                  -7.365
REMARK INTRA:                  -0.826
REMARK UNBOUND:                -0.978
REMARK  Name = 31251
REMARK  11 active torsions:
REMARK  status: ('A' for Active; 'I' for Inactive)
REMARK    1  A    between atoms: O_1  and  C_11
REMARK    2  A    between atoms: O_1  and  C_12
REMARK    3  A    between atoms: C_3  and  C_4
REMARK    4  A    between atoms: C_3  and  C_5
REMARK    5  A    between atoms: C_4  and  C_6
REMARK    6  A    between atoms: C_5  and  C_7
REMARK    7  A    between atoms: C_6  and  C_8
REMARK    8  A    between atoms: C_7  and  C_9
REMARK    9  A    between atoms: C_8  and  C_10
REMARK   10  A    between atoms: C_9  and  C_11
REMARK   11  A    between atoms: C_12  and  C_13
REMARK                            x       y       z     vdW  Elec       q    Type
REMARK                         _______ _______ _______ _____ _____    ______ ____
ROOT
ATOM      1  C   UNL     1      -2.711   9.807  -9.859  0.00  0.00    +0.000 C 
ATOM      2  H   UNL     1      -3.123  10.790  -9.599  0.00  0.00    +0.000 HD
ATOM      3  H   UNL     1      -3.378   9.362 -10.606  0.00  0.00    +0.000 HD
ENDROOT
BRANCH   1   4
ATOM      4  C   UNL     1      -2.672   8.923  -8.609  0.00  0.00    +0.000 C 
ATOM      5  H   UNL     1      -1.628   8.703  -8.353  0.00  0.00    +0.000 HD
ATOM      6  H   UNL     1      -3.095   9.477  -7.762  0.00  0.00    +0.000 HD
BRANCH   4   7
ATOM      7  C   UNL     1      -3.435   7.606  -8.772  0.00  0.00    +0.000 C 
ATOM      8  H   UNL     1      -4.512   7.821  -8.791  0.00  0.00    +0.000 HD
ATOM      9  H   UNL     1      -3.255   6.973  -7.894  0.00  0.00    +0.000 HD
BRANCH   7  10
ATOM     10  C   UNL     1      -3.052   6.832 -10.035  0.00  0.00    +0.000 C 
ATOM     11  H   UNL     1      -2.738   5.817  -9.763  0.00  0.00    +0.000 HD
ATOM     12  H   UNL     1      -2.193   7.317 -10.514  0.00  0.00    +0.000 HD
BRANCH  10  13
ATOM     13  C   UNL     1      -4.219   6.767 -11.021  0.00  0.00    +0.000 C 
ATOM     14  H   UNL     1      -4.716   5.793 -10.946  0.00  0.00    +0.000 HD
ATOM     15  H   UNL     1      -4.962   7.533 -10.771  0.00  0.00    +0.000 HD
BRANCH  13  16
ATOM     16  C   UNL     1      -3.751   6.980 -12.453  0.00  0.00    +0.000 C 
ATOM     17  H   UNL     1      -3.351   6.053 -12.877  0.00  0.00    +0.000 HD
ATOM     18  H   UNL     1      -2.970   7.745 -12.501  0.00  0.00    +0.000 HD
ATOM     19  H   UNL     1      -4.587   7.308 -13.080  0.00  0.00    +0.000 HD
ENDBRANCH  13  16
ENDBRANCH  10  13
ENDBRANCH   7  10
ENDBRANCH   4   7
ENDBRANCH   1   4
BRANCH   1  20
ATOM     20  C   UNL     1      -1.310   9.980 -10.456  0.00  0.00    +0.000 C 
ATOM     21  H   UNL     1      -0.652   9.188 -10.077  0.00  0.00    +0.000 HD
ATOM     22  H   UNL     1      -0.882  10.931 -10.115  0.00  0.00    +0.000 HD
BRANCH  20  23
ATOM     23  C   UNL     1      -1.320   9.948 -11.983  0.00  0.00    +0.000 C 
ATOM     24  H   UNL     1      -2.345   9.810 -12.343  0.00  0.00    +0.000 HD
ATOM     25  H   UNL     1      -0.931  10.896 -12.371  0.00  0.00    +0.000 HD
BRANCH  23  27
ATOM     26  O   UNL     1      -0.331   7.746 -11.994  0.00  0.00    +0.000 OA
ATOM     27  C   UNL     1      -0.473   8.832 -12.543  0.00  0.00    +0.000 C 
BRANCH  27  28
ATOM     28  O   UNL     1       0.093   9.219 -13.722  0.00  0.00    +0.000 OA
BRANCH  28  29
ATOM     29  C   UNL     1      -0.111  10.589 -14.082  0.00  0.00    +0.000 C 
ATOM     30  H   UNL     1       0.033  11.224 -13.201  0.00  0.00    +0.000 HD
ATOM     31  H   UNL     1      -1.131  10.719 -14.462  0.00  0.00    +0.000 HD
BRANCH  29  32
ATOM     32  C   UNL     1       0.887  10.969 -15.155  0.00  0.00    +0.000 C 
ATOM     33  H   UNL     1       1.245  11.993 -15.011  0.00  0.00    +0.000 HD
ATOM     34  H   UNL     1       1.744  10.289 -15.142  0.00  0.00    +0.000 HD
ATOM     35  H   UNL     1       0.434  10.891 -16.149  0.00  0.00    +0.000 HD
ENDBRANCH  29  32
ENDBRANCH  28  29
ENDBRANCH  27  28
ENDBRANCH  23  27
ENDBRANCH  20  23
ENDBRANCH   1  20
TORSDOF 11
ENDMDL
MODEL 4
REMARK VINA RESULT:    -4.423      2.533      4.531
REMARK INTER + INTRA:          -7.986
REMARK INTER:                  -7.255
REMARK INTRA:                  -0.731
REMARK UNBOUND:                -0.978
REMARK  Name = 31251
REMARK  11 active torsions:
REMARK  status: ('A' for Active; 'I' for Inactive)
REMARK    1  A    between atoms: O_1  and  C_11
REMARK    2  A    between atoms: O_1  and  C_12
REMARK    3  A    between atoms: C_3  and  C_4
REMARK    4  A    between atoms: C_3  and  C_5
REMARK    5  A    between atoms: C_4  and  C_6
REMARK    6  A    between atoms: C_5  and  C_7
REMARK    7  A    between atoms: C_6  and  C_8
REMARK    8  A    between atoms: C_7  and  C_9
REMARK    9  A    between atoms: C_8  and  C_10
REMARK   10  A    between atoms: C_9  and  C_11
REMARK   11  A    between atoms: C_12  and  C_13
REMARK                            x       y       z     vdW  Elec       q    Type
REMARK                         _______ _______ _______ _____ _____    ______ ____
ROOT
ATOM      1  C   UNL     1       4.859   8.509   3.270  0.00  0.00    +0.000 C 
ATOM      2  H   UNL     1       4.482   8.221   4.259  0.00  0.00    +0.000 HD
ATOM      3  H   UNL     1       5.233   9.536   3.352  0.00  0.00    +0.000 HD
ENDROOT
BRANCH   1   4
ATOM      4  C   UNL     1       3.717   8.456   2.252  0.00  0.00    +0.000 C 
ATOM      5  H   UNL     1       3.874   7.606   1.576  0.00  0.00    +0.000 HD
ATOM      6  H   UNL     1       2.773   8.271   2.778  0.00  0.00    +0.000 HD
BRANCH   4   7
ATOM      7  C   UNL     1       3.581   9.736   1.423  0.00  0.00    +0.000 C 
ATOM      8  H   UNL     1       4.362  10.443   1.733  0.00  0.00    +0.000 HD
ATOM      9  H   UNL     1       2.618  10.212   1.648  0.00  0.00    +0.000 HD
BRANCH   7  10
ATOM     10  C   UNL     1       3.683   9.498  -0.085  0.00  0.00    +0.000 C 
ATOM     11  H   UNL     1       2.882   8.821  -0.406  0.00  0.00    +0.000 HD
ATOM     12  H   UNL     1       4.635   9.003  -0.313  0.00  0.00    +0.000 HD
BRANCH  10  13
ATOM     13  C   UNL     1       3.591  10.813  -0.861  0.00  0.00    +0.000 C 
ATOM     14  H   UNL     1       4.520  10.982  -1.418  0.00  0.00    +0.000 HD
ATOM     15  H   UNL     1       2.778  10.759  -1.593  0.00  0.00    +0.000 HD
BRANCH  13  16
ATOM     16  C   UNL     1       3.345  11.992   0.068  0.00  0.00    +0.000 C 
ATOM     17  H   UNL     1       3.604  11.739   1.101  0.00  0.00    +0.000 HD
ATOM     18  H   UNL     1       2.295  12.300   0.042  0.00  0.00    +0.000 HD
ATOM     19  H   UNL     1       3.957  12.848  -0.236  0.00  0.00    +0.000 HD
ENDBRANCH  13  16
ENDBRANCH  10  13
ENDBRANCH   7  10
ENDBRANCH   4   7
ENDBRANCH   1   4
BRANCH   1  20
ATOM     20  C   UNL     1       6.004   7.575   2.865  0.00  0.00    +0.000 C 
ATOM     21  H   UNL     1       5.624   6.549   2.778  0.00  0.00    +0.000 HD
ATOM     22  H   UNL     1       6.761   7.559   3.659  0.00  0.00    +0.000 HD
BRANCH  20  23
ATOM     23  C   UNL     1       6.657   7.990   1.550  0.00  0.00    +0.000 C 
ATOM     24  H   UNL     1       7.076   7.109   1.051  0.00  0.00    +0.000 HD
ATOM     25  H   UNL     1       5.905   8.445   0.895  0.00  0.00    +0.000 HD
BRANCH  23  27
ATOM     26  O   UNL     1       8.159   9.366   2.846  0.00  0.00    +0.000 OA
ATOM     27  C   UNL     1       7.770   8.989   1.747  0.00  0.00    +0.000 C 
BRANCH  27  28
ATOM     28  O   UNL     1       8.257   9.393   0.539  0.00  0.00    +0.000 OA
BRANCH  28  29
ATOM     29  C   UNL     1       7.298   9.456  -0.522  0.00  0.00    +0.000 C 
ATOM     30  H   UNL     1       6.310   9.178  -0.138  0.00  0.00    +0.000 HD
ATOM     31  H   UNL     1       7.589   8.761  -1.318  0.00  0.00    +0.000 HD
BRANCH  29  32
ATOM     32  C   UNL     1       7.256  10.868  -1.065  0.00  0.00    +0.000 C 
ATOM     33  H   UNL     1       6.899  11.569  -0.305  0.00  0.00    +0.000 HD
ATOM     34  H   UNL     1       8.250  11.183  -1.399  0.00  0.00    +0.000 HD
ATOM     35  H   UNL     1       6.596  10.927  -1.937  0.00  0.00    +0.000 HD
ENDBRANCH  29  32
ENDBRANCH  28  29
ENDBRANCH  27  28
ENDBRANCH  23  27
ENDBRANCH  20  23
ENDBRANCH   1  20
TORSDOF 11
ENDMDL
MODEL 5
REMARK VINA RESULT:    -4.321      2.724      5.834
REMARK INTER + INTRA:          -7.825
REMARK INTER:                  -7.213
REMARK INTRA:                  -0.612
REMARK UNBOUND:                -0.978
REMARK  Name = 31251
REMARK  11 active torsions:
REMARK  status: ('A' for Active; 'I' for Inactive)
REMARK    1  A    between atoms: O_1  and  C_11
REMARK    2  A    between atoms: O_1  and  C_12
REMARK    3  A    between atoms: C_3  and  C_4
REMARK    4  A    between atoms: C_3  and  C_5
REMARK    5  A    between atoms: C_4  and  C_6
REMARK    6  A    between atoms: C_5  and  C_7
REMARK    7  A    between atoms: C_6  and  C_8
REMARK    8  A    between atoms: C_7  and  C_9
REMARK    9  A    between atoms: C_8  and  C_10
REMARK   10  A    between atoms: C_9  and  C_11
REMARK   11  A    between atoms: C_12  and  C_13
REMARK                            x       y       z     vdW  Elec       q    Type
REMARK                         _______ _______ _______ _____ _____    ______ ____
ROOT
ATOM      1  C   UNL     1       6.949   8.685   0.724  0.00  0.00    +0.000 C 
ATOM      2  H   UNL     1       7.486   7.846   0.265  0.00  0.00    +0.000 HD
ATOM      3  H   UNL     1       5.884   8.550   0.502  0.00  0.00    +0.000 HD
ENDROOT
BRANCH   1   4
ATOM      4  C   UNL     1       7.440  10.000   0.111  0.00  0.00    +0.000 C 
ATOM      5  H   UNL     1       7.816  10.653   0.909  0.00  0.00    +0.000 HD
ATOM      6  H   UNL     1       8.286   9.795  -0.555  0.00  0.00    +0.000 HD
BRANCH   4   7
ATOM      7  C   UNL     1       6.358  10.746  -0.675  0.00  0.00    +0.000 C 
ATOM      8  H   UNL     1       5.684  10.010  -1.135  0.00  0.00    +0.000 HD
ATOM      9  H   UNL     1       6.827  11.301  -1.497  0.00  0.00    +0.000 HD
BRANCH   7  10
ATOM     10  C   UNL     1       5.540  11.714   0.182  0.00  0.00    +0.000 C 
ATOM     11  H   UNL     1       5.650  12.733  -0.208  0.00  0.00    +0.000 HD
ATOM     12  H   UNL     1       5.932  11.716   1.206  0.00  0.00    +0.000 HD
BRANCH  10  13
ATOM     13  C   UNL     1       4.061  11.323   0.202  0.00  0.00    +0.000 C 
ATOM     14  H   UNL     1       3.930  10.393   0.768  0.00  0.00    +0.000 HD
ATOM     15  H   UNL     1       3.477  12.099   0.710  0.00  0.00    +0.000 HD
BRANCH  13  16
ATOM     16  C   UNL     1       3.516  11.133  -1.205  0.00  0.00    +0.000 C 
ATOM     17  H   UNL     1       4.329  11.003  -1.927  0.00  0.00    +0.000 HD
ATOM     18  H   UNL     1       2.917  11.996  -1.513  0.00  0.00    +0.000 HD
ATOM     19  H   UNL     1       2.878  10.244  -1.247  0.00  0.00    +0.000 HD
ENDBRANCH  13  16
ENDBRANCH  10  13
ENDBRANCH   7  10
ENDBRANCH   4   7
ENDBRANCH   1   4
BRANCH   1  20
ATOM     20  C   UNL     1       7.167   8.667   2.240  0.00  0.00    +0.000 C 
ATOM     21  H   UNL     1       7.068   9.686   2.635  0.00  0.00    +0.000 HD
ATOM     22  H   UNL     1       8.193   8.346   2.458  0.00  0.00    +0.000 HD
BRANCH  20  23
ATOM     23  C   UNL     1       6.185   7.745   2.959  0.00  0.00    +0.000 C 
ATOM     24  H   UNL     1       5.159   8.069   2.756  0.00  0.00    +0.000 HD
ATOM     25  H   UNL     1       6.312   6.720   2.594  0.00  0.00    +0.000 HD
BRANCH  23  27
ATOM     26  O   UNL     1       6.654   6.731   5.099  0.00  0.00    +0.000 OA
ATOM     27  C   UNL     1       6.387   7.738   4.454  0.00  0.00    +0.000 C 
BRANCH  27  28
ATOM     28  O   UNL     1       6.228   8.996   4.955  0.00  0.00    +0.000 OA
BRANCH  28  29
ATOM     29  C   UNL     1       7.057   9.323   6.075  0.00  0.00    +0.000 C 
ATOM     30  H   UNL     1       7.132   8.455   6.739  0.00  0.00    +0.000 HD
ATOM     31  H   UNL     1       6.615  10.164   6.623  0.00  0.00    +0.000 HD
BRANCH  29  32
ATOM     32  C   UNL     1       8.433   9.705   5.574  0.00  0.00    +0.000 C 
ATOM     33  H   UNL     1       8.395  10.634   4.998  0.00  0.00    +0.000 HD
ATOM     34  H   UNL     1       9.126   9.835   6.412  0.00  0.00    +0.000 HD
ATOM     35  H   UNL     1       8.847   8.913   4.940  0.00  0.00    +0.000 HD
ENDBRANCH  29  32
ENDBRANCH  28  29
ENDBRANCH  27  28
ENDBRANCH  23  27
ENDBRANCH  20  23
ENDBRANCH   1  20
TORSDOF 11
ENDMDL
MODEL 6
REMARK VINA RESULT:    -4.300     13.836     15.900
REMARK INTER + INTRA:          -7.792
REMARK INTER:                  -7.250
REMARK INTRA:                  -0.543
REMARK UNBOUND:                -0.978
REMARK  Name = 31251
REMARK  11 active torsions:
REMARK  status: ('A' for Active; 'I' for Inactive)
REMARK    1  A    between atoms: O_1  and  C_11
REMARK    2  A    between atoms: O_1  and  C_12
REMARK    3  A    between atoms: C_3  and  C_4
REMARK    4  A    between atoms: C_3  and  C_5
REMARK    5  A    between atoms: C_4  and  C_6
REMARK    6  A    between atoms: C_5  and  C_7
REMARK    7  A    between atoms: C_6  and  C_8
REMARK    8  A    between atoms: C_7  and  C_9
REMARK    9  A    between atoms: C_8  and  C_10
REMARK   10  A    between atoms: C_9  and  C_11
REMARK   11  A    between atoms: C_12  and  C_13
REMARK                            x       y       z     vdW  Elec       q    Type
REMARK                         _______ _______ _______ _____ _____    ______ ____
ROOT
ATOM      1  C   UNL     1      -8.591  10.985   6.902  0.00  0.00    +0.000 C 
ATOM      2  H   UNL     1      -8.520  11.808   7.623  0.00  0.00    +0.000 HD
ATOM      3  H   UNL     1      -7.569  10.721   6.608  0.00  0.00    +0.000 HD
ENDROOT
BRANCH   1   4
ATOM      4  C   UNL     1      -9.376  11.451   5.672  0.00  0.00    +0.000 C 
ATOM      5  H   UNL     1     -10.041  10.644   5.340  0.00  0.00    +0.000 HD
ATOM      6  H   UNL     1     -10.018  12.295   5.952  0.00  0.00    +0.000 HD
BRANCH   4   7
ATOM      7  C   UNL     1      -8.481  11.874   4.504  0.00  0.00    +0.000 C 
ATOM      8  H   UNL     1      -8.853  12.826   4.100  0.00  0.00    +0.000 HD
ATOM      9  H   UNL     1      -8.567  11.134   3.697  0.00  0.00    +0.000 HD
BRANCH   7  10
ATOM     10  C   UNL     1      -7.009  12.028   4.888  0.00  0.00    +0.000 C 
ATOM     11  H   UNL     1      -6.377  11.575   4.114  0.00  0.00    +0.000 HD
ATOM     12  H   UNL     1      -6.816  11.484   5.821  0.00  0.00    +0.000 HD
BRANCH  10  13
ATOM     13  C   UNL     1      -6.634  13.500   5.068  0.00  0.00    +0.000 C 
ATOM     14  H   UNL     1      -5.809  13.759   4.394  0.00  0.00    +0.000 HD
ATOM     15  H   UNL     1      -7.485  14.137   4.801  0.00  0.00    +0.000 HD
BRANCH  13  16
ATOM     16  C   UNL     1      -6.220  13.799   6.501  0.00  0.00    +0.000 C 
ATOM     17  H   UNL     1      -5.306  13.259   6.766  0.00  0.00    +0.000 HD
ATOM     18  H   UNL     1      -7.008  13.510   7.205  0.00  0.00    +0.000 HD
ATOM     19  H   UNL     1      -6.031  14.870   6.624  0.00  0.00    +0.000 HD
ENDBRANCH  13  16
ENDBRANCH  10  13
ENDBRANCH   7  10
ENDBRANCH   4   7
ENDBRANCH   1   4
BRANCH   1  20
ATOM     20  C   UNL     1      -9.266   9.779   7.563  0.00  0.00    +0.000 C 
ATOM     21  H   UNL     1      -9.908   9.273   6.831  0.00  0.00    +0.000 HD
ATOM     22  H   UNL     1      -9.925  10.126   8.369  0.00  0.00    +0.000 HD
BRANCH  20  23
ATOM     23  C   UNL     1      -8.255   8.784   8.129  0.00  0.00    +0.000 C 
ATOM     24  H   UNL     1      -8.677   7.774   8.101  0.00  0.00    +0.000 HD
ATOM     25  H   UNL     1      -7.343   8.805   7.522  0.00  0.00    +0.000 HD
BRANCH  23  27
ATOM     26  O   UNL     1      -7.089   9.978   9.873  0.00  0.00    +0.000 OA
ATOM     27  C   UNL     1      -7.875   9.093   9.555  0.00  0.00    +0.000 C 
BRANCH  27  28
ATOM     28  O   UNL     1      -8.528   8.252  10.407  0.00  0.00    +0.000 OA
BRANCH  28  29
ATOM     29  C   UNL     1      -9.499   8.869  11.258  0.00  0.00    +0.000 C 
ATOM     30  H   UNL     1      -9.913   9.753  10.760  0.00  0.00    +0.000 HD
ATOM     31  H   UNL     1      -9.023   9.170  12.198  0.00  0.00    +0.000 HD
BRANCH  29  32
ATOM     32  C   UNL     1     -10.607   7.877  11.541  0.00  0.00    +0.000 C 
ATOM     33  H   UNL     1     -11.033   7.490  10.610  0.00  0.00    +0.000 HD
ATOM     34  H   UNL     1     -10.232   7.038  12.135  0.00  0.00    +0.000 HD
ATOM     35  H   UNL     1     -11.406   8.347  12.125  0.00  0.00    +0.000 HD
ENDBRANCH  29  32
ENDBRANCH  28  29
ENDBRANCH  27  28
ENDBRANCH  23  27
ENDBRANCH  20  23
ENDBRANCH   1  20
TORSDOF 11
ENDMDL
MODEL 7
REMARK VINA RESULT:    -4.003     15.056     16.762
REMARK INTER + INTRA:          -7.321
REMARK INTER:                  -6.789
REMARK INTRA:                  -0.532
REMARK UNBOUND:                -0.978
REMARK  Name = 31251
REMARK  11 active torsions:
REMARK  status: ('A' for Active; 'I' for Inactive)
REMARK    1  A    between atoms: O_1  and  C_11
REMARK    2  A    between atoms: O_1  and  C_12
REMARK    3  A    between atoms: C_3  and  C_4
REMARK    4  A    between atoms: C_3  and  C_5
REMARK    5  A    between atoms: C_4  and  C_6
REMARK    6  A    between atoms: C_5  and  C_7
REMARK    7  A    between atoms: C_6  and  C_8
REMARK    8  A    between atoms: C_7  and  C_9
REMARK    9  A    between atoms: C_8  and  C_10
REMARK   10  A    between atoms: C_9  and  C_11
REMARK   11  A    between atoms: C_12  and  C_13
REMARK                            x       y       z     vdW  Elec       q    Type
REMARK                         _______ _______ _______ _____ _____    ______ ____
ROOT
ATOM      1  C   UNL     1      -5.519   6.350  -9.950  0.00  0.00    +0.000 C 
ATOM      2  H   UNL     1      -5.099   5.771 -10.781  0.00  0.00    +0.000 HD
ATOM      3  H   UNL     1      -5.664   7.376 -10.308  0.00  0.00    +0.000 HD
ENDROOT
BRANCH   1   4
ATOM      4  C   UNL     1      -4.533   6.349  -8.778  0.00  0.00    +0.000 C 
ATOM      5  H   UNL     1      -4.956   6.929  -7.948  0.00  0.00    +0.000 HD
ATOM      6  H   UNL     1      -4.406   5.322  -8.414  0.00  0.00    +0.000 HD
BRANCH   4   7
ATOM      7  C   UNL     1      -3.159   6.922  -9.138  0.00  0.00    +0.000 C 
ATOM      8  H   UNL     1      -2.386   6.199  -8.843  0.00  0.00    +0.000 HD
ATOM      9  H   UNL     1      -2.982   7.831  -8.550  0.00  0.00    +0.000 HD
BRANCH   7  10
ATOM     10  C   UNL     1      -3.005   7.247 -10.625  0.00  0.00    +0.000 C 
ATOM     11  H   UNL     1      -3.996   7.307 -11.093  0.00  0.00    +0.000 HD
ATOM     12  H   UNL     1      -2.462   6.434 -11.122  0.00  0.00    +0.000 HD
BRANCH  10  13
ATOM     13  C   UNL     1      -2.255   8.564 -10.830  0.00  0.00    +0.000 C 
ATOM     14  H   UNL     1      -1.184   8.413 -10.655  0.00  0.00    +0.000 HD
ATOM     15  H   UNL     1      -2.372   8.902 -11.866  0.00  0.00    +0.000 HD
BRANCH  13  16
ATOM     16  C   UNL     1      -2.767   9.648  -9.893  0.00  0.00    +0.000 C 
ATOM     17  H   UNL     1      -2.266  10.602 -10.087  0.00  0.00    +0.000 HD
ATOM     18  H   UNL     1      -2.596   9.375  -8.847  0.00  0.00    +0.000 HD
ATOM     19  H   UNL     1      -3.843   9.793 -10.035  0.00  0.00    +0.000 HD
ENDBRANCH  13  16
ENDBRANCH  10  13
ENDBRANCH   7  10
ENDBRANCH   4   7
ENDBRANCH   1   4
BRANCH   1  20
ATOM     20  C   UNL     1      -6.868   5.753  -9.537  0.00  0.00    +0.000 C 
ATOM     21  H   UNL     1      -7.306   5.217 -10.388  0.00  0.00    +0.000 HD
ATOM     22  H   UNL     1      -7.565   6.563  -9.287  0.00  0.00    +0.000 HD
BRANCH  20  23
ATOM     23  C   UNL     1      -6.745   4.805  -8.347  0.00  0.00    +0.000 C 
ATOM     24  H   UNL     1      -6.921   3.775  -8.676  0.00  0.00    +0.000 HD
ATOM     25  H   UNL     1      -5.736   4.876  -7.925  0.00  0.00    +0.000 HD
BRANCH  23  27
ATOM     26  O   UNL     1      -8.025   6.260  -6.908  0.00  0.00    +0.000 OA
ATOM     27  C   UNL     1      -7.733   5.121  -7.251  0.00  0.00    +0.000 C 
BRANCH  27  28
ATOM     28  O   UNL     1      -8.230   3.967  -6.720  0.00  0.00    +0.000 OA
BRANCH  28  29
ATOM     29  C   UNL     1      -8.445   3.983  -5.306  0.00  0.00    +0.000 C 
ATOM     30  H   UNL     1      -8.197   4.974  -4.909  0.00  0.00    +0.000 HD
ATOM     31  H   UNL     1      -7.805   3.230  -4.831  0.00  0.00    +0.000 HD
BRANCH  29  32
ATOM     32  C   UNL     1      -9.899   3.669  -5.025  0.00  0.00    +0.000 C 
ATOM     33  H   UNL     1     -10.007   2.669  -4.593  0.00  0.00    +0.000 HD
ATOM     34  H   UNL     1     -10.325   4.402  -4.333  0.00  0.00    +0.000 HD
ATOM     35  H   UNL     1     -10.490   3.720  -5.946  0.00  0.00    +0.000 HD
ENDBRANCH  29  32
ENDBRANCH  28  29
ENDBRANCH  27  28
ENDBRANCH  23  27
ENDBRANCH  20  23
ENDBRANCH   1  20
TORSDOF 11
ENDMDL
MODEL 8
REMARK VINA RESULT:    -4.001     14.601     16.253
REMARK INTER + INTRA:          -7.319
REMARK INTER:                  -6.884
REMARK INTRA:                  -0.434
REMARK UNBOUND:                -0.978
REMARK  Name = 31251
REMARK  11 active torsions:
REMARK  status: ('A' for Active; 'I' for Inactive)
REMARK    1  A    between atoms: O_1  and  C_11
REMARK    2  A    between atoms: O_1  and  C_12
REMARK    3  A    between atoms: C_3  and  C_4
REMARK    4  A    between atoms: C_3  and  C_5
REMARK    5  A    between atoms: C_4  and  C_6
REMARK    6  A    between atoms: C_5  and  C_7
REMARK    7  A    between atoms: C_6  and  C_8
REMARK    8  A    between atoms: C_7  and  C_9
REMARK    9  A    between atoms: C_8  and  C_10
REMARK   10  A    between atoms: C_9  and  C_11
REMARK   11  A    between atoms: C_12  and  C_13
REMARK                            x       y       z     vdW  Elec       q    Type
REMARK                         _______ _______ _______ _____ _____    ______ ____
ROOT
ATOM      1  C   UNL     1      -3.538   7.350  -9.611  0.00  0.00    +0.000 C 
ATOM      2  H   UNL     1      -2.757   6.803 -10.153  0.00  0.00    +0.000 HD
ATOM      3  H   UNL     1      -4.171   7.840 -10.359  0.00  0.00    +0.000 HD
ENDROOT
BRANCH   1   4
ATOM      4  C   UNL     1      -2.890   8.407  -8.712  0.00  0.00    +0.000 C 
ATOM      5  H   UNL     1      -3.384   8.401  -7.733  0.00  0.00    +0.000 HD
ATOM      6  H   UNL     1      -1.841   8.140  -8.538  0.00  0.00    +0.000 HD
BRANCH   4   7
ATOM      7  C   UNL     1      -2.952   9.822  -9.295  0.00  0.00    +0.000 C 
ATOM      8  H   UNL     1      -2.237  10.458  -8.756  0.00  0.00    +0.000 HD
ATOM      9  H   UNL     1      -3.949  10.244  -9.113  0.00  0.00    +0.000 HD
BRANCH   7  10
ATOM     10  C   UNL     1      -2.649   9.878 -10.793  0.00  0.00    +0.000 C 
ATOM     11  H   UNL     1      -3.248  10.669 -11.260  0.00  0.00    +0.000 HD
ATOM     12  H   UNL     1      -2.944   8.931 -11.261  0.00  0.00    +0.000 HD
BRANCH  10  13
ATOM     13  C   UNL     1      -1.163  10.133 -11.049  0.00  0.00    +0.000 C 
ATOM     14  H   UNL     1      -1.023  11.143 -11.452  0.00  0.00    +0.000 HD
ATOM     15  H   UNL     1      -0.607  10.079 -10.106  0.00  0.00    +0.000 HD
BRANCH  13  16
ATOM     16  C   UNL     1      -0.584   9.120 -12.025  0.00  0.00    +0.000 C 
ATOM     17  H   UNL     1      -1.379   8.596 -12.564  0.00  0.00    +0.000 HD
ATOM     18  H   UNL     1       0.027   8.377 -11.502  0.00  0.00    +0.000 HD
ATOM     19  H   UNL     1       0.051   9.624 -12.761  0.00  0.00    +0.000 HD
ENDBRANCH  13  16
ENDBRANCH  10  13
ENDBRANCH   7  10
ENDBRANCH   4   7
ENDBRANCH   1   4
BRANCH   1  20
ATOM     20  C   UNL     1      -4.377   6.366  -8.790  0.00  0.00    +0.000 C 
ATOM     21  H   UNL     1      -4.569   6.791  -7.796  0.00  0.00    +0.000 HD
ATOM     22  H   UNL     1      -3.806   5.443  -8.629  0.00  0.00    +0.000 HD
BRANCH  20  23
ATOM     23  C   UNL     1      -5.705   6.029  -9.464  0.00  0.00    +0.000 C 
ATOM     24  H   UNL     1      -6.135   6.934  -9.905  0.00  0.00    +0.000 HD
ATOM     25  H   UNL     1      -5.535   5.292 -10.258  0.00  0.00    +0.000 HD
BRANCH  23  27
ATOM     26  O   UNL     1      -6.753   4.270  -8.186  0.00  0.00    +0.000 OA
ATOM     27  C   UNL     1      -6.713   5.453  -8.500  0.00  0.00    +0.000 C 
BRANCH  27  28
ATOM     28  O   UNL     1      -7.547   6.435  -8.052  0.00  0.00    +0.000 OA
BRANCH  28  29
ATOM     29  C   UNL     1      -7.785   6.444  -6.641  0.00  0.00    +0.000 C 
ATOM     30  H   UNL     1      -7.021   7.054  -6.146  0.00  0.00    +0.000 HD
ATOM     31  H   UNL     1      -7.738   5.419  -6.256  0.00  0.00    +0.000 HD
BRANCH  29  32
ATOM     32  C   UNL     1      -9.156   7.029  -6.377  0.00  0.00    +0.000 C 
ATOM     33  H   UNL     1      -9.333   7.908  -7.002  0.00  0.00    +0.000 HD
ATOM     34  H   UNL     1      -9.936   6.287  -6.577  0.00  0.00    +0.000 HD
ATOM     35  H   UNL     1      -9.256   7.318  -5.325  0.00  0.00    +0.000 HD
ENDBRANCH  29  32
ENDBRANCH  28  29
ENDBRANCH  27  28
ENDBRANCH  23  27
ENDBRANCH  20  23
ENDBRANCH   1  20
TORSDOF 11
ENDMDL
MODEL 9
REMARK VINA RESULT:    -3.964     15.798     17.151
REMARK INTER + INTRA:          -7.260
REMARK INTER:                  -6.281
REMARK INTRA:                  -0.978
REMARK UNBOUND:                -0.978
REMARK  Name = 31251
REMARK  11 active torsions:
REMARK  status: ('A' for Active; 'I' for Inactive)
REMARK    1  A    between atoms: O_1  and  C_11
REMARK    2  A    between atoms: O_1  and  C_12
REMARK    3  A    between atoms: C_3  and  C_4
REMARK    4  A    between atoms: C_3  and  C_5
REMARK    5  A    between atoms: C_4  and  C_6
REMARK    6  A    between atoms: C_5  and  C_7
REMARK    7  A    between atoms: C_6  and  C_8
REMARK    8  A    between atoms: C_7  and  C_9
REMARK    9  A    between atoms: C_8  and  C_10
REMARK   10  A    between atoms: C_9  and  C_11
REMARK   11  A    between atoms: C_12  and  C_13
REMARK                            x       y       z     vdW  Elec       q    Type
REMARK                         _______ _______ _______ _____ _____    ______ ____
ROOT
ATOM      1  C   UNL     1      13.648  -3.426   8.799  0.00  0.00    +0.000 C 
ATOM      2  H   UNL     1      14.607  -2.898   8.743  0.00  0.00    +0.000 HD
ATOM      3  H   UNL     1      13.851  -4.490   8.629  0.00  0.00    +0.000 HD
ENDROOT
BRANCH   1   4
ATOM      4  C   UNL     1      12.712  -2.899   7.708  0.00  0.00    +0.000 C 
ATOM      5  H   UNL     1      11.671  -3.048   8.021  0.00  0.00    +0.000 HD
ATOM      6  H   UNL     1      12.857  -1.818   7.598  0.00  0.00    +0.000 HD
BRANCH   4   7
ATOM      7  C   UNL     1      12.924  -3.570   6.348  0.00  0.00    +0.000 C 
ATOM      8  H   UNL     1      13.333  -2.829   5.648  0.00  0.00    +0.000 HD
ATOM      9  H   UNL     1      11.952  -3.883   5.944  0.00  0.00    +0.000 HD
BRANCH   7  10
ATOM     10  C   UNL     1      13.858  -4.781   6.405  0.00  0.00    +0.000 C 
ATOM     11  H   UNL     1      13.270  -5.703   6.316  0.00  0.00    +0.000 HD
ATOM     12  H   UNL     1      14.358  -4.810   7.380  0.00  0.00    +0.000 HD
BRANCH  10  13
ATOM     13  C   UNL     1      14.906  -4.725   5.293  0.00  0.00    +0.000 C 
ATOM     14  H   UNL     1      15.580  -5.586   5.373  0.00  0.00    +0.000 HD
ATOM     15  H   UNL     1      14.416  -4.784   4.315  0.00  0.00    +0.000 HD
BRANCH  13  16
ATOM     16  C   UNL     1      15.723  -3.444   5.362  0.00  0.00    +0.000 C 
ATOM     17  H   UNL     1      15.879  -3.133   6.400  0.00  0.00    +0.000 HD
ATOM     18  H   UNL     1      15.221  -2.629   4.830  0.00  0.00    +0.000 HD
ATOM     19  H   UNL     1      16.705  -3.595   4.901  0.00  0.00    +0.000 HD
ENDBRANCH  13  16
ENDBRANCH  10  13
ENDBRANCH   7  10
ENDBRANCH   4   7
ENDBRANCH   1   4
BRANCH   1  20
ATOM     20  C   UNL     1      13.036  -3.235  10.191  0.00  0.00    +0.000 C 
ATOM     21  H   UNL     1      13.694  -2.595  10.794  0.00  0.00    +0.000 HD
ATOM     22  H   UNL     1      12.988  -4.203  10.705  0.00  0.00    +0.000 HD
BRANCH  20  23
ATOM     23  C   UNL     1      11.640  -2.621  10.135  0.00  0.00    +0.000 C 
ATOM     24  H   UNL     1      11.595  -1.746  10.791  0.00  0.00    +0.000 HD
ATOM     25  H   UNL     1      11.420  -2.306   9.108  0.00  0.00    +0.000 HD
BRANCH  23  27
ATOM     26  O   UNL     1       9.438  -3.244  10.901  0.00  0.00    +0.000 OA
ATOM     27  C   UNL     1      10.565  -3.587  10.567  0.00  0.00    +0.000 C 
BRANCH  27  28
ATOM     28  O   UNL     1      11.041  -4.864  10.530  0.00  0.00    +0.000 OA
BRANCH  28  29
ATOM     29  C   UNL     1      10.247  -5.795   9.787  0.00  0.00    +0.000 C 
ATOM     30  H   UNL     1       9.237  -5.391   9.655  0.00  0.00    +0.000 HD
ATOM     31  H   UNL     1      10.191  -6.744  10.332  0.00  0.00    +0.000 HD
BRANCH  29  32
ATOM     32  C   UNL     1      10.888  -6.020   8.434  0.00  0.00    +0.000 C 
ATOM     33  H   UNL     1      10.702  -5.173   7.768  0.00  0.00    +0.000 HD
ATOM     34  H   UNL     1      11.968  -6.159   8.538  0.00  0.00    +0.000 HD
ATOM     35  H   UNL     1      10.494  -6.929   7.967  0.00  0.00    +0.000 HD
ENDBRANCH  29  32
ENDBRANCH  28  29
ENDBRANCH  27  28
ENDBRANCH  23  27
ENDBRANCH  20  23
ENDBRANCH   1  20
TORSDOF 11
ENDMDL
MODEL 10
REMARK VINA RESULT:    -3.951     15.196     16.912
REMARK INTER + INTRA:          -7.240
REMARK INTER:                  -6.780
REMARK INTRA:                  -0.460
REMARK UNBOUND:                -0.978
REMARK  Name = 31251
REMARK  11 active torsions:
REMARK  status: ('A' for Active; 'I' for Inactive)
REMARK    1  A    between atoms: O_1  and  C_11
REMARK    2  A    between atoms: O_1  and  C_12
REMARK    3  A    between atoms: C_3  and  C_4
REMARK    4  A    between atoms: C_3  and  C_5
REMARK    5  A    between atoms: C_4  and  C_6
REMARK    6  A    between atoms: C_5  and  C_7
REMARK    7  A    between atoms: C_6  and  C_8
REMARK    8  A    between atoms: C_7  and  C_9
REMARK    9  A    between atoms: C_8  and  C_10
REMARK   10  A    between atoms: C_9  and  C_11
REMARK   11  A    between atoms: C_12  and  C_13
REMARK                            x       y       z     vdW  Elec       q    Type
REMARK                         _______ _______ _______ _____ _____    ______ ____
ROOT
ATOM      1  C   UNL     1      -6.970   5.667  -9.506  0.00  0.00    +0.000 C 
ATOM      2  H   UNL     1      -7.156   4.746 -10.073  0.00  0.00    +0.000 HD
ATOM      3  H   UNL     1      -7.779   6.366  -9.747  0.00  0.00    +0.000 HD
ENDROOT
BRANCH   1   4
ATOM      4  C   UNL     1      -5.627   6.266  -9.933  0.00  0.00    +0.000 C 
ATOM      5  H   UNL     1      -5.225   5.690 -10.776  0.00  0.00    +0.000 HD
ATOM      6  H   UNL     1      -5.786   7.288 -10.297  0.00  0.00    +0.000 HD
BRANCH   4   7
ATOM      7  C   UNL     1      -4.589   6.295  -8.808  0.00  0.00    +0.000 C 
ATOM      8  H   UNL     1      -4.466   5.277  -8.413  0.00  0.00    +0.000 HD
ATOM      9  H   UNL     1      -4.968   6.910  -7.983  0.00  0.00    +0.000 HD
BRANCH   7  10
ATOM     10  C   UNL     1      -3.227   6.833  -9.250  0.00  0.00    +0.000 C 
ATOM     11  H   UNL     1      -2.458   6.066  -9.089  0.00  0.00    +0.000 HD
ATOM     12  H   UNL     1      -2.956   7.696  -8.631  0.00  0.00    +0.000 HD
BRANCH  10  13
ATOM     13  C   UNL     1      -3.245   7.245 -10.723  0.00  0.00    +0.000 C 
ATOM     14  H   UNL     1      -4.098   6.779 -11.229  0.00  0.00    +0.000 HD
ATOM     15  H   UNL     1      -3.371   8.331 -10.805  0.00  0.00    +0.000 HD
BRANCH  13  16
ATOM     16  C   UNL     1      -1.961   6.841 -11.431  0.00  0.00    +0.000 C 
ATOM     17  H   UNL     1      -1.781   5.765 -11.334  0.00  0.00    +0.000 HD
ATOM     18  H   UNL     1      -1.099   7.373 -11.016  0.00  0.00    +0.000 HD
ATOM     19  H   UNL     1      -2.026   7.079 -12.498  0.00  0.00    +0.000 HD
ENDBRANCH  13  16
ENDBRANCH  10  13
ENDBRANCH   7  10
ENDBRANCH   4   7
ENDBRANCH   1   4
BRANCH   1  20
ATOM     20  C   UNL     1      -6.984   5.358  -8.006  0.00  0.00    +0.000 C 
ATOM     21  H   UNL     1      -5.963   5.423  -7.610  0.00  0.00    +0.000 HD
ATOM     22  H   UNL     1      -7.313   4.323  -7.849  0.00  0.00    +0.000 HD
BRANCH  20  23
ATOM     23  C   UNL     1      -7.895   6.302  -7.225  0.00  0.00    +0.000 C 
ATOM     24  H   UNL     1      -7.355   7.227  -6.993  0.00  0.00    +0.000 HD
ATOM     25  H   UNL     1      -8.774   6.547  -7.832  0.00  0.00    +0.000 HD
BRANCH  23  27
ATOM     26  O   UNL     1      -8.293   4.509  -5.660  0.00  0.00    +0.000 OA
ATOM     27  C   UNL     1      -8.375   5.702  -5.928  0.00  0.00    +0.000 C 
BRANCH  27  28
ATOM     28  O   UNL     1      -8.901   6.672  -5.127  0.00  0.00    +0.000 OA
BRANCH  28  29
ATOM     29  C   UNL     1      -9.644   7.692  -5.803  0.00  0.00    +0.000 C 
ATOM     30  H   UNL     1      -9.535   7.567  -6.886  0.00  0.00    +0.000 HD
ATOM     31  H   UNL     1      -9.262   8.677  -5.510  0.00  0.00    +0.000 HD
BRANCH  29  32
ATOM     32  C   UNL     1     -11.103   7.575  -5.419  0.00  0.00    +0.000 C 
ATOM     33  H   UNL     1     -11.211   7.361  -4.352  0.00  0.00    +0.000 HD
ATOM     34  H   UNL     1     -11.639   8.501  -5.652  0.00  0.00    +0.000 HD
ATOM     35  H   UNL     1     -11.589   6.776  -5.990  0.00  0.00    +0.000 HD
ENDBRANCH  29  32
ENDBRANCH  28  29
ENDBRANCH  27  28
ENDBRANCH  23  27
ENDBRANCH  20  23
ENDBRANCH   1  20
TORSDOF 11
ENDMDL
