MODEL 1
REMARK VINA RESULT:    -3.914      0.000      0.000
REMARK INTER + INTRA:          -5.065
REMARK INTER:                  -4.873
REMARK INTRA:                  -0.193
REMARK UNBOUND:                -0.122
REMARK  Name = 7342
REMARK  6 active torsions:
REMARK  status: ('A' for Active; 'I' for Inactive)
REMARK    1  A    between atoms: O_1  and  C_6
REMARK    2  A    between atoms: O_1  and  C_7
REMARK    3  A    between atoms: C_3  and  C_4
REMARK    4  A    between atoms: C_3  and  C_5
REMARK    5  A    between atoms: C_3  and  C_6
REMARK    6  A    between atoms: C_7  and  C_8
REMARK                            x       y       z     vdW  Elec       q    Type
REMARK                         _______ _______ _______ _____ _____    ______ ____
ROOT
ATOM      1  C   UNL     1       4.286   9.670   1.168  0.00  0.00    +0.000 C 
ATOM      2  H   UNL     1       5.376   9.602   1.278  0.00  0.00    +0.000 HD
ENDROOT
BRANCH   1   3
ATOM      3  C   UNL     1       3.622   9.422   2.517  0.00  0.00    +0.000 C 
ATOM      4  H   UNL     1       3.848   8.418   2.887  0.00  0.00    +0.000 HD
ATOM      5  H   UNL     1       2.533   9.525   2.449  0.00  0.00    +0.000 HD
ATOM      6  H   UNL     1       3.972  10.145   3.262  0.00  0.00    +0.000 HD
ENDBRANCH   1   3
BRANCH   1   7
ATOM      7  C   UNL     1       3.860   8.617   0.147  0.00  0.00    +0.000 C 
ATOM      8  H   UNL     1       3.450   7.733   0.647  0.00  0.00    +0.000 HD
ATOM      9  H   UNL     1       4.714   8.298  -0.459  0.00  0.00    +0.000 HD
ATOM     10  H   UNL     1       3.097   9.006  -0.535  0.00  0.00    +0.000 HD
ENDBRANCH   1   7
BRANCH   1  12
ATOM     11  O   UNL     1       3.076  11.783   1.156  0.00  0.00    +0.000 OA
ATOM     12  C   UNL     1       3.944  11.065   0.676  0.00  0.00    +0.000 C 
BRANCH  12  13
ATOM     13  O   UNL     1       4.760  11.390  -0.371  0.00  0.00    +0.000 OA
BRANCH  13  14
ATOM     14  C   UNL     1       6.124  11.656  -0.031  0.00  0.00    +0.000 C 
ATOM     15  H   UNL     1       6.291  12.739  -0.010  0.00  0.00    +0.000 HD
ATOM     16  H   UNL     1       6.344  11.236   0.957  0.00  0.00    +0.000 HD
BRANCH  14  17
ATOM     17  C   UNL     1       7.025  11.020  -1.068  0.00  0.00    +0.000 C 
ATOM     18  H   UNL     1       8.076  11.100  -0.777  0.00  0.00    +0.000 HD
ATOM     19  H   UNL     1       6.774   9.963  -1.201  0.00  0.00    +0.000 HD
ATOM     20  H   UNL     1       6.891  11.503  -2.042  0.00  0.00    +0.000 HD
ENDBRANCH  14  17
ENDBRANCH  13  14
ENDBRANCH  12  13
ENDBRANCH   1  12
TORSDOF 6
ENDMDL
MODEL 2
REMARK VINA RESULT:    -3.782     12.641     13.230
REMARK INTER + INTRA:          -4.899
REMARK INTER:                  -4.706
REMARK INTRA:                  -0.193
REMARK UNBOUND:                -0.122
REMARK  Name = 7342
REMARK  6 active torsions:
REMARK  status: ('A' for Active; 'I' for Inactive)
REMARK    1  A    between atoms: O_1  and  C_6
REMARK    2  A    between atoms: O_1  and  C_7
REMARK    3  A    between atoms: C_3  and  C_4
REMARK    4  A    between atoms: C_3  and  C_5
REMARK    5  A    between atoms: C_3  and  C_6
REMARK    6  A    between atoms: C_7  and  C_8
REMARK                            x       y       z     vdW  Elec       q    Type
REMARK                         _______ _______ _______ _____ _____    ______ ____
ROOT
ATOM      1  C   UNL     1      -2.785   7.197 -10.128  0.00  0.00    +0.000 C 
ATOM      2  H   UNL     1      -1.838   6.649 -10.214  0.00  0.00    +0.000 HD
ENDROOT
BRANCH   1   3
ATOM      3  C   UNL     1      -3.561   6.685  -8.921  0.00  0.00    +0.000 C 
ATOM      4  H   UNL     1      -4.481   7.259  -8.773  0.00  0.00    +0.000 HD
ATOM      5  H   UNL     1      -2.963   6.754  -8.005  0.00  0.00    +0.000 HD
ATOM      6  H   UNL     1      -3.836   5.632  -9.053  0.00  0.00    +0.000 HD
ENDBRANCH   1   3
BRANCH   1   7
ATOM      7  C   UNL     1      -3.568   6.966 -11.419  0.00  0.00    +0.000 C 
ATOM      8  H   UNL     1      -3.191   7.608 -12.222  0.00  0.00    +0.000 HD
ATOM      9  H   UNL     1      -4.629   7.191 -11.274  0.00  0.00    +0.000 HD
ATOM     10  H   UNL     1      -3.493   5.926 -11.752  0.00  0.00    +0.000 HD
ENDBRANCH   1   7
BRANCH   1  12
ATOM     11  O   UNL     1      -2.429   9.250  -8.869  0.00  0.00    +0.000 OA
ATOM     12  C   UNL     1      -2.467   8.670  -9.947  0.00  0.00    +0.000 C 
BRANCH  12  13
ATOM     13  O   UNL     1      -2.224   9.236 -11.166  0.00  0.00    +0.000 OA
BRANCH  13  14
ATOM     14  C   UNL     1      -0.879   9.674 -11.386  0.00  0.00    +0.000 C 
ATOM     15  H   UNL     1      -0.888  10.704 -11.760  0.00  0.00    +0.000 HD
ATOM     16  H   UNL     1      -0.323   9.635 -10.443  0.00  0.00    +0.000 HD
BRANCH  14  17
ATOM     17  C   UNL     1      -0.224   8.766 -12.404  0.00  0.00    +0.000 C 
ATOM     18  H   UNL     1      -0.966   8.134 -12.900  0.00  0.00    +0.000 HD
ATOM     19  H   UNL     1       0.304   9.353 -13.162  0.00  0.00    +0.000 HD
ATOM     20  H   UNL     1       0.522   8.123 -11.923  0.00  0.00    +0.000 HD
ENDBRANCH  14  17
ENDBRANCH  13  14
ENDBRANCH  12  13
ENDBRANCH   1  12
TORSDOF 6
ENDMDL
MODEL 3
REMARK VINA RESULT:    -3.664     13.099     13.920
REMARK INTER + INTRA:          -4.750
REMARK INTER:                  -4.563
REMARK INTRA:                  -0.186
REMARK UNBOUND:                -0.122
REMARK  Name = 7342
REMARK  6 active torsions:
REMARK  status: ('A' for Active; 'I' for Inactive)
REMARK    1  A    between atoms: O_1  and  C_6
REMARK    2  A    between atoms: O_1  and  C_7
REMARK    3  A    between atoms: C_3  and  C_4
REMARK    4  A    between atoms: C_3  and  C_5
REMARK    5  A    between atoms: C_3  and  C_6
REMARK    6  A    between atoms: C_7  and  C_8
REMARK                            x       y       z     vdW  Elec       q    Type
REMARK                         _______ _______ _______ _____ _____    ______ ____
ROOT
ATOM      1  C   UNL     1      -3.157   6.949  -9.407  0.00  0.00    +0.000 C 
ATOM      2  H   UNL     1      -2.384   6.325  -8.940  0.00  0.00    +0.000 HD
ENDROOT
BRANCH   1   3
ATOM      3  C   UNL     1      -2.948   8.404  -9.007  0.00  0.00    +0.000 C 
ATOM      4  H   UNL     1      -2.546   8.987  -9.842  0.00  0.00    +0.000 HD
ATOM      5  H   UNL     1      -2.254   8.489  -8.164  0.00  0.00    +0.000 HD
ATOM      6  H   UNL     1      -3.895   8.863  -8.699  0.00  0.00    +0.000 HD
ENDBRANCH   1   3
BRANCH   1   7
ATOM      7  C   UNL     1      -4.513   6.438  -8.924  0.00  0.00    +0.000 C 
ATOM      8  H   UNL     1      -4.399   5.822  -8.026  0.00  0.00    +0.000 HD
ATOM      9  H   UNL     1      -4.995   5.829  -9.695  0.00  0.00    +0.000 HD
ATOM     10  H   UNL     1      -5.190   7.265  -8.685  0.00  0.00    +0.000 HD
ENDBRANCH   1   7
BRANCH   1  12
ATOM     11  O   UNL     1      -3.973   6.840 -11.698  0.00  0.00    +0.000 OA
ATOM     12  C   UNL     1      -3.034   6.807 -10.913  0.00  0.00    +0.000 C 
BRANCH  12  13
ATOM     13  O   UNL     1      -1.719   6.649 -11.249  0.00  0.00    +0.000 OA
BRANCH  13  14
ATOM     14  C   UNL     1      -1.326   7.234 -12.495  0.00  0.00    +0.000 C 
ATOM     15  H   UNL     1      -0.716   6.518 -13.058  0.00  0.00    +0.000 HD
ATOM     16  H   UNL     1      -2.218   7.489 -13.077  0.00  0.00    +0.000 HD
BRANCH  14  17
ATOM     17  C   UNL     1      -0.520   8.486 -12.219  0.00  0.00    +0.000 C 
ATOM     18  H   UNL     1      -0.092   8.462 -11.213  0.00  0.00    +0.000 HD
ATOM     19  H   UNL     1       0.291   8.591 -12.947  0.00  0.00    +0.000 HD
ATOM     20  H   UNL     1      -1.150   9.378 -12.314  0.00  0.00    +0.000 HD
ENDBRANCH  14  17
ENDBRANCH  13  14
ENDBRANCH  12  13
ENDBRANCH   1  12
TORSDOF 6
ENDMDL
MODEL 4
REMARK VINA RESULT:    -3.591     28.005     28.983
REMARK INTER + INTRA:          -4.658
REMARK INTER:                  -4.534
REMARK INTRA:                  -0.124
REMARK UNBOUND:                -0.122
REMARK  Name = 7342
REMARK  6 active torsions:
REMARK  status: ('A' for Active; 'I' for Inactive)
REMARK    1  A    between atoms: O_1  and  C_6
REMARK    2  A    between atoms: O_1  and  C_7
REMARK    3  A    between atoms: C_3  and  C_4
REMARK    4  A    between atoms: C_3  and  C_5
REMARK    5  A    between atoms: C_3  and  C_6
REMARK    6  A    between atoms: C_7  and  C_8
REMARK                            x       y       z     vdW  Elec       q    Type
REMARK                         _______ _______ _______ _____ _____    ______ ____
ROOT
ATOM      1  C   UNL     1     -20.289  -1.056   6.711  0.00  0.00    +0.000 C 
ATOM      2  H   UNL     1     -19.240  -1.132   7.026  0.00  0.00    +0.000 HD
ENDROOT
BRANCH   1   3
ATOM      3  C   UNL     1     -20.387  -0.180   5.469  0.00  0.00    +0.000 C 
ATOM      4  H   UNL     1     -20.944  -0.686   4.674  0.00  0.00    +0.000 HD
ATOM      5  H   UNL     1     -19.393   0.075   5.083  0.00  0.00    +0.000 HD
ATOM      6  H   UNL     1     -20.900   0.762   5.696  0.00  0.00    +0.000 HD
ENDBRANCH   1   3
BRANCH   1   7
ATOM      7  C   UNL     1     -21.074  -0.448   7.872  0.00  0.00    +0.000 C 
ATOM      8  H   UNL     1     -20.418   0.149   8.515  0.00  0.00    +0.000 HD
ATOM      9  H   UNL     1     -21.528  -1.232   8.486  0.00  0.00    +0.000 HD
ATOM     10  H   UNL     1     -21.880   0.201   7.514  0.00  0.00    +0.000 HD
ENDBRANCH   1   7
BRANCH   1  12
ATOM     11  O   UNL     1     -21.448  -3.150   7.159  0.00  0.00    +0.000 OA
ATOM     12  C   UNL     1     -20.792  -2.453   6.395  0.00  0.00    +0.000 C 
BRANCH  12  13
ATOM     13  O   UNL     1     -20.407  -2.799   5.131  0.00  0.00    +0.000 OA
BRANCH  13  14
ATOM     14  C   UNL     1     -20.686  -4.151   4.750  0.00  0.00    +0.000 C 
ATOM     15  H   UNL     1     -21.361  -4.605   5.484  0.00  0.00    +0.000 HD
ATOM     16  H   UNL     1     -21.161  -4.162   3.763  0.00  0.00    +0.000 HD
BRANCH  14  17
ATOM     17  C   UNL     1     -19.388  -4.928   4.700  0.00  0.00    +0.000 C 
ATOM     18  H   UNL     1     -18.831  -4.819   5.635  0.00  0.00    +0.000 HD
ATOM     19  H   UNL     1     -19.581  -5.990   4.524  0.00  0.00    +0.000 HD
ATOM     20  H   UNL     1     -18.760  -4.577   3.873  0.00  0.00    +0.000 HD
ENDBRANCH  14  17
ENDBRANCH  13  14
ENDBRANCH  12  13
ENDBRANCH   1  12
TORSDOF 6
ENDMDL
MODEL 5
REMARK VINA RESULT:    -3.546     12.827     13.580
REMARK INTER + INTRA:          -4.601
REMARK INTER:                  -4.487
REMARK INTRA:                  -0.113
REMARK UNBOUND:                -0.122
REMARK  Name = 7342
REMARK  6 active torsions:
REMARK  status: ('A' for Active; 'I' for Inactive)
REMARK    1  A    between atoms: O_1  and  C_6
REMARK    2  A    between atoms: O_1  and  C_7
REMARK    3  A    between atoms: C_3  and  C_4
REMARK    4  A    between atoms: C_3  and  C_5
REMARK    5  A    between atoms: C_3  and  C_6
REMARK    6  A    between atoms: C_7  and  C_8
REMARK                            x       y       z     vdW  Elec       q    Type
REMARK                         _______ _______ _______ _____ _____    ______ ____
ROOT
ATOM      1  C   UNL     1      -2.987   8.144  -9.952  0.00  0.00    +0.000 C 
ATOM      2  H   UNL     1      -3.908   8.543 -10.396  0.00  0.00    +0.000 HD
ENDROOT
BRANCH   1   3
ATOM      3  C   UNL     1      -3.318   6.915  -9.114  0.00  0.00    +0.000 C 
ATOM      4  H   UNL     1      -2.783   6.034  -9.481  0.00  0.00    +0.000 HD
ATOM      5  H   UNL     1      -4.392   6.697  -9.135  0.00  0.00    +0.000 HD
ATOM      6  H   UNL     1      -3.037   7.070  -8.067  0.00  0.00    +0.000 HD
ENDBRANCH   1   3
BRANCH   1   7
ATOM      7  C   UNL     1      -2.379   9.246  -9.088  0.00  0.00    +0.000 C 
ATOM      8  H   UNL     1      -1.321   9.392  -9.331  0.00  0.00    +0.000 HD
ATOM      9  H   UNL     1      -2.451   8.991  -8.026  0.00  0.00    +0.000 HD
ATOM     10  H   UNL     1      -2.895  10.201  -9.234  0.00  0.00    +0.000 HD
ENDBRANCH   1   7
BRANCH   1  12
ATOM     11  O   UNL     1      -1.737   6.611 -11.371  0.00  0.00    +0.000 OA
ATOM     12  C   UNL     1      -2.044   7.759 -11.077  0.00  0.00    +0.000 C 
BRANCH  12  13
ATOM     13  O   UNL     1      -1.605   8.889 -11.708  0.00  0.00    +0.000 OA
BRANCH  13  14
ATOM     14  C   UNL     1      -0.265   8.836 -12.207  0.00  0.00    +0.000 C 
ATOM     15  H   UNL     1       0.306   9.683 -11.811  0.00  0.00    +0.000 HD
ATOM     16  H   UNL     1       0.207   7.899 -11.891  0.00  0.00    +0.000 HD
BRANCH  14  17
ATOM     17  C   UNL     1      -0.298   8.905 -13.719  0.00  0.00    +0.000 C 
ATOM     18  H   UNL     1       0.485   9.568 -14.098  0.00  0.00    +0.000 HD
ATOM     19  H   UNL     1      -0.160   7.910 -14.154  0.00  0.00    +0.000 HD
ATOM     20  H   UNL     1      -1.270   9.273 -14.067  0.00  0.00    +0.000 HD
ENDBRANCH  14  17
ENDBRANCH  13  14
ENDBRANCH  12  13
ENDBRANCH   1  12
TORSDOF 6
ENDMDL
MODEL 6
REMARK VINA RESULT:    -3.463     28.323     29.940
REMARK INTER + INTRA:          -4.497
REMARK INTER:                  -4.191
REMARK INTRA:                  -0.305
REMARK UNBOUND:                -0.122
REMARK  Name = 7342
REMARK  6 active torsions:
REMARK  status: ('A' for Active; 'I' for Inactive)
REMARK    1  A    between atoms: O_1  and  C_6
REMARK    2  A    between atoms: O_1  and  C_7
REMARK    3  A    between atoms: C_3  and  C_4
REMARK    4  A    between atoms: C_3  and  C_5
REMARK    5  A    between atoms: C_3  and  C_6
REMARK    6  A    between atoms: C_7  and  C_8
REMARK                            x       y       z     vdW  Elec       q    Type
REMARK                         _______ _______ _______ _____ _____    ______ ____
ROOT
ATOM      1  C   UNL     1     -20.490  -1.276   6.996  0.00  0.00    +0.000 C 
ATOM      2  H   UNL     1     -19.481  -1.373   7.414  0.00  0.00    +0.000 HD
ENDROOT
BRANCH   1   3
ATOM      3  C   UNL     1     -20.438  -0.428   5.731  0.00  0.00    +0.000 C 
ATOM      4  H   UNL     1     -20.501   0.638   5.970  0.00  0.00    +0.000 HD
ATOM      5  H   UNL     1     -21.261  -0.677   5.051  0.00  0.00    +0.000 HD
ATOM      6  H   UNL     1     -19.502  -0.599   5.187  0.00  0.00    +0.000 HD
ENDBRANCH   1   3
BRANCH   1   7
ATOM      7  C   UNL     1     -21.367  -0.617   8.059  0.00  0.00    +0.000 C 
ATOM      8  H   UNL     1     -21.883   0.258   7.651  0.00  0.00    +0.000 HD
ATOM      9  H   UNL     1     -20.762  -0.288   8.910  0.00  0.00    +0.000 HD
ATOM     10  H   UNL     1     -22.124  -1.311   8.441  0.00  0.00    +0.000 HD
ENDBRANCH   1   7
BRANCH   1  12
ATOM     11  O   UNL     1     -20.365  -3.520   6.060  0.00  0.00    +0.000 OA
ATOM     12  C   UNL     1     -21.002  -2.665   6.662  0.00  0.00    +0.000 C 
BRANCH  12  13
ATOM     13  O   UNL     1     -22.272  -2.811   7.146  0.00  0.00    +0.000 OA
BRANCH  13  14
ATOM     14  C   UNL     1     -23.212  -3.402   6.242  0.00  0.00    +0.000 C 
ATOM     15  H   UNL     1     -22.725  -4.212   5.688  0.00  0.00    +0.000 HD
ATOM     16  H   UNL     1     -24.059  -3.805   6.808  0.00  0.00    +0.000 HD
BRANCH  14  17
ATOM     17  C   UNL     1     -23.701  -2.343   5.277  0.00  0.00    +0.000 C 
ATOM     18  H   UNL     1     -24.547  -2.711   4.689  0.00  0.00    +0.000 HD
ATOM     19  H   UNL     1     -24.010  -1.443   5.816  0.00  0.00    +0.000 HD
ATOM     20  H   UNL     1     -22.899  -2.046   4.593  0.00  0.00    +0.000 HD
ENDBRANCH  14  17
ENDBRANCH  13  14
ENDBRANCH  12  13
ENDBRANCH   1  12
TORSDOF 6
ENDMDL
MODEL 7
REMARK VINA RESULT:    -3.424     12.634     13.708
REMARK INTER + INTRA:          -4.447
REMARK INTER:                  -4.292
REMARK INTRA:                  -0.156
REMARK UNBOUND:                -0.122
REMARK  Name = 7342
REMARK  6 active torsions:
REMARK  status: ('A' for Active; 'I' for Inactive)
REMARK    1  A    between atoms: O_1  and  C_6
REMARK    2  A    between atoms: O_1  and  C_7
REMARK    3  A    between atoms: C_3  and  C_4
REMARK    4  A    between atoms: C_3  and  C_5
REMARK    5  A    between atoms: C_3  and  C_6
REMARK    6  A    between atoms: C_7  and  C_8
REMARK                            x       y       z     vdW  Elec       q    Type
REMARK                         _______ _______ _______ _____ _____    ______ ____
ROOT
ATOM      1  C   UNL     1      -1.518   8.422 -12.229  0.00  0.00    +0.000 C 
ATOM      2  H   UNL     1      -2.333   8.663 -12.923  0.00  0.00    +0.000 HD
ENDROOT
BRANCH   1   3
ATOM      3  C   UNL     1      -0.204   8.964 -12.777  0.00  0.00    +0.000 C 
ATOM      4  H   UNL     1       0.253   9.669 -12.076  0.00  0.00    +0.000 HD
ATOM      5  H   UNL     1      -0.354   9.479 -13.733  0.00  0.00    +0.000 HD
ATOM      6  H   UNL     1       0.509   8.151 -12.953  0.00  0.00    +0.000 HD
ENDBRANCH   1   3
BRANCH   1   7
ATOM      7  C   UNL     1      -1.467   6.902 -12.090  0.00  0.00    +0.000 C 
ATOM      8  H   UNL     1      -1.270   6.612 -11.053  0.00  0.00    +0.000 HD
ATOM      9  H   UNL     1      -0.675   6.482 -12.717  0.00  0.00    +0.000 HD
ATOM     10  H   UNL     1      -2.412   6.440 -12.398  0.00  0.00    +0.000 HD
ENDBRANCH   1   7
BRANCH   1  12
ATOM     11  O   UNL     1      -1.118   9.909 -10.343  0.00  0.00    +0.000 OA
ATOM     12  C   UNL     1      -1.825   9.074 -10.893  0.00  0.00    +0.000 C 
BRANCH  12  13
ATOM     13  O   UNL     1      -3.010   8.592 -10.413  0.00  0.00    +0.000 OA
BRANCH  13  14
ATOM     14  C   UNL     1      -3.004   8.203  -9.035  0.00  0.00    +0.000 C 
ATOM     15  H   UNL     1      -1.997   8.333  -8.623  0.00  0.00    +0.000 HD
ATOM     16  H   UNL     1      -3.709   8.829  -8.476  0.00  0.00    +0.000 HD
BRANCH  14  17
ATOM     17  C   UNL     1      -3.417   6.751  -8.930  0.00  0.00    +0.000 C 
ATOM     18  H   UNL     1      -4.209   6.621  -8.187  0.00  0.00    +0.000 HD
ATOM     19  H   UNL     1      -3.773   6.381  -9.896  0.00  0.00    +0.000 HD
ATOM     20  H   UNL     1      -2.562   6.127  -8.646  0.00  0.00    +0.000 HD
ENDBRANCH  14  17
ENDBRANCH  13  14
ENDBRANCH  12  13
ENDBRANCH   1  12
TORSDOF 6
ENDMDL
MODEL 8
REMARK VINA RESULT:    -3.370     28.050     29.004
REMARK INTER + INTRA:          -4.378
REMARK INTER:                  -4.198
REMARK INTRA:                  -0.180
REMARK UNBOUND:                -0.122
REMARK  Name = 7342
REMARK  6 active torsions:
REMARK  status: ('A' for Active; 'I' for Inactive)
REMARK    1  A    between atoms: O_1  and  C_6
REMARK    2  A    between atoms: O_1  and  C_7
REMARK    3  A    between atoms: C_3  and  C_4
REMARK    4  A    between atoms: C_3  and  C_5
REMARK    5  A    between atoms: C_3  and  C_6
REMARK    6  A    between atoms: C_7  and  C_8
REMARK                            x       y       z     vdW  Elec       q    Type
REMARK                         _______ _______ _______ _____ _____    ______ ____
ROOT
ATOM      1  C   UNL     1     -21.248  -2.102   5.045  0.00  0.00    +0.000 C 
ATOM      2  H   UNL     1     -22.301  -2.139   5.353  0.00  0.00    +0.000 HD
ENDROOT
BRANCH   1   3
ATOM      3  C   UNL     1     -21.164  -1.801   3.554  0.00  0.00    +0.000 C 
ATOM      4  H   UNL     1     -20.289  -2.281   3.105  0.00  0.00    +0.000 HD
ATOM      5  H   UNL     1     -21.096  -0.723   3.370  0.00  0.00    +0.000 HD
ATOM      6  H   UNL     1     -22.056  -2.166   3.032  0.00  0.00    +0.000 HD
ENDBRANCH   1   3
BRANCH   1   7
ATOM      7  C   UNL     1     -20.629  -3.461   5.364  0.00  0.00    +0.000 C 
ATOM      8  H   UNL     1     -19.565  -3.475   5.103  0.00  0.00    +0.000 HD
ATOM      9  H   UNL     1     -21.127  -4.256   4.801  0.00  0.00    +0.000 HD
ATOM     10  H   UNL     1     -20.720  -3.703   6.428  0.00  0.00    +0.000 HD
ENDBRANCH   1   7
BRANCH   1  12
ATOM     11  O   UNL     1     -20.232   0.085   5.372  0.00  0.00    +0.000 OA
ATOM     12  C   UNL     1     -20.563  -1.000   5.831  0.00  0.00    +0.000 C 
BRANCH  12  13
ATOM     13  O   UNL     1     -20.384  -1.407   7.124  0.00  0.00    +0.000 OA
BRANCH  13  14
ATOM     14  C   UNL     1     -21.270  -0.820   8.083  0.00  0.00    +0.000 C 
ATOM     15  H   UNL     1     -20.688  -0.428   8.925  0.00  0.00    +0.000 HD
ATOM     16  H   UNL     1     -21.827  -0.002   7.614  0.00  0.00    +0.000 HD
BRANCH  14  17
ATOM     17  C   UNL     1     -22.234  -1.877   8.576  0.00  0.00    +0.000 C 
ATOM     18  H   UNL     1     -23.174  -1.841   8.018  0.00  0.00    +0.000 HD
ATOM     19  H   UNL     1     -21.799  -2.876   8.471  0.00  0.00    +0.000 HD
ATOM     20  H   UNL     1     -22.450  -1.735   9.641  0.00  0.00    +0.000 HD
ENDBRANCH  14  17
ENDBRANCH  13  14
ENDBRANCH  12  13
ENDBRANCH   1  12
TORSDOF 6
ENDMDL
MODEL 9
REMARK VINA RESULT:    -3.282     21.413     22.166
REMARK INTER + INTRA:          -4.268
REMARK INTER:                  -4.146
REMARK INTRA:                  -0.122
REMARK UNBOUND:                -0.122
REMARK  Name = 7342
REMARK  6 active torsions:
REMARK  status: ('A' for Active; 'I' for Inactive)
REMARK    1  A    between atoms: O_1  and  C_6
REMARK    2  A    between atoms: O_1  and  C_7
REMARK    3  A    between atoms: C_3  and  C_4
REMARK    4  A    between atoms: C_3  and  C_5
REMARK    5  A    between atoms: C_3  and  C_6
REMARK    6  A    between atoms: C_7  and  C_8
REMARK                            x       y       z     vdW  Elec       q    Type
REMARK                         _______ _______ _______ _____ _____    ______ ____
ROOT
ATOM      1  C   UNL     1      14.986  -8.383  -1.517  0.00  0.00    +0.000 C 
ATOM      2  H   UNL     1      15.001  -7.307  -1.736  0.00  0.00    +0.000 HD
ENDROOT
BRANCH   1   3
ATOM      3  C   UNL     1      16.413  -8.913  -1.470  0.00  0.00    +0.000 C 
ATOM      4  H   UNL     1      16.436  -9.950  -1.121  0.00  0.00    +0.000 HD
ATOM      5  H   UNL     1      17.039  -8.312  -0.801  0.00  0.00    +0.000 HD
ATOM      6  H   UNL     1      16.873  -8.880  -2.465  0.00  0.00    +0.000 HD
ENDBRANCH   1   3
BRANCH   1   7
ATOM      7  C   UNL     1      14.185  -9.065  -2.624  0.00  0.00    +0.000 C 
ATOM      8  H   UNL     1      14.081  -8.406  -3.492  0.00  0.00    +0.000 HD
ATOM      9  H   UNL     1      13.182  -9.325  -2.273  0.00  0.00    +0.000 HD
ATOM     10  H   UNL     1      14.669  -9.990  -2.956  0.00  0.00    +0.000 HD
ENDBRANCH   1   7
BRANCH   1  12
ATOM     11  O   UNL     1      14.364  -7.786   0.760  0.00  0.00    +0.000 OA
ATOM     12  C   UNL     1      14.319  -8.583  -0.168  0.00  0.00    +0.000 C 
BRANCH  12  13
ATOM     13  O   UNL     1      13.660  -9.780  -0.161  0.00  0.00    +0.000 OA
BRANCH  13  14
ATOM     14  C   UNL     1      13.299 -10.277   1.132  0.00  0.00    +0.000 C 
ATOM     15  H   UNL     1      13.549 -11.342   1.196  0.00  0.00    +0.000 HD
ATOM     16  H   UNL     1      13.850  -9.727   1.903  0.00  0.00    +0.000 HD
BRANCH  14  17
ATOM     17  C   UNL     1      11.811 -10.089   1.335  0.00  0.00    +0.000 C 
ATOM     18  H   UNL     1      11.493 -10.494   2.300  0.00  0.00    +0.000 HD
ATOM     19  H   UNL     1      11.547  -9.028   1.292  0.00  0.00    +0.000 HD
ATOM     20  H   UNL     1      11.247 -10.589   0.540  0.00  0.00    +0.000 HD
ENDBRANCH  14  17
ENDBRANCH  13  14
ENDBRANCH  12  13
ENDBRANCH   1  12
TORSDOF 6
ENDMDL
MODEL 10
REMARK VINA RESULT:    -3.280     13.041     14.139
REMARK INTER + INTRA:          -4.265
REMARK INTER:                  -4.173
REMARK INTRA:                  -0.092
REMARK UNBOUND:                -0.122
REMARK  Name = 7342
REMARK  6 active torsions:
REMARK  status: ('A' for Active; 'I' for Inactive)
REMARK    1  A    between atoms: O_1  and  C_6
REMARK    2  A    between atoms: O_1  and  C_7
REMARK    3  A    between atoms: C_3  and  C_4
REMARK    4  A    between atoms: C_3  and  C_5
REMARK    5  A    between atoms: C_3  and  C_6
REMARK    6  A    between atoms: C_7  and  C_8
REMARK                            x       y       z     vdW  Elec       q    Type
REMARK                         _______ _______ _______ _____ _____    ______ ____
ROOT
ATOM      1  C   UNL     1      -1.305   9.242 -12.168  0.00  0.00    +0.000 C 
ATOM      2  H   UNL     1      -2.168   9.638 -12.719  0.00  0.00    +0.000 HD
ENDROOT
BRANCH   1   3
ATOM      3  C   UNL     1      -1.029  10.119 -10.954  0.00  0.00    +0.000 C 
ATOM      4  H   UNL     1      -1.914  10.195 -10.315  0.00  0.00    +0.000 HD
ATOM      5  H   UNL     1      -0.734  11.131 -11.253  0.00  0.00    +0.000 HD
ATOM      6  H   UNL     1      -0.211   9.705 -10.353  0.00  0.00    +0.000 HD
ENDBRANCH   1   3
BRANCH   1   7
ATOM      7  C   UNL     1      -0.113   9.238 -13.123  0.00  0.00    +0.000 C 
ATOM      8  H   UNL     1      -0.448   9.278 -14.165  0.00  0.00    +0.000 HD
ATOM      9  H   UNL     1       0.485   8.331 -12.993  0.00  0.00    +0.000 HD
ATOM     10  H   UNL     1       0.545  10.096 -12.946  0.00  0.00    +0.000 HD
ENDBRANCH   1   7
BRANCH   1  12
ATOM     11  O   UNL     1      -1.308   6.811 -12.309  0.00  0.00    +0.000 OA
ATOM     12  C   UNL     1      -1.638   7.831 -11.718  0.00  0.00    +0.000 C 
BRANCH  12  13
ATOM     13  O   UNL     1      -2.349   7.882 -10.552  0.00  0.00    +0.000 OA
BRANCH  13  14
ATOM     14  C   UNL     1      -3.200   6.759 -10.299  0.00  0.00    +0.000 C 
ATOM     15  H   UNL     1      -4.106   6.842 -10.910  0.00  0.00    +0.000 HD
ATOM     16  H   UNL     1      -2.671   5.834 -10.556  0.00  0.00    +0.000 HD
BRANCH  14  17
ATOM     17  C   UNL     1      -3.572   6.743  -8.832  0.00  0.00    +0.000 C 
ATOM     18  H   UNL     1      -4.366   7.465  -8.622  0.00  0.00    +0.000 HD
ATOM     19  H   UNL     1      -3.911   5.747  -8.531  0.00  0.00    +0.000 HD
ATOM     20  H   UNL     1      -2.703   6.984  -8.211  0.00  0.00    +0.000 HD
ENDBRANCH  14  17
ENDBRANCH  13  14
ENDBRANCH  12  13
ENDBRANCH   1  12
TORSDOF 6
ENDMDL
