MODEL 1
REMARK VINA RESULT:    -3.649      0.000      0.000
REMARK INTER + INTRA:          -4.636
REMARK INTER:                  -4.491
REMARK INTRA:                  -0.145
REMARK UNBOUND:                -0.134
REMARK  Name = 429065
REMARK  5 active torsions:
REMARK  status: ('A' for Active; 'I' for Inactive)
REMARK    1  A    between atoms: O_1  and  C_3
REMARK    2  A    between atoms: O_1  and  C_5
REMARK    3  A    between atoms: C_3  and  C_4
REMARK    4  A    between atoms: C_5  and  C_6
REMARK    5  A    between atoms: C_7  and  C_8
REMARK                            x       y       z     vdW  Elec       q    Type
REMARK                         _______ _______ _______ _____ _____    ______ ____
ROOT
ATOM      1  O   UNL     1      -1.163   9.883  -9.790  0.00  0.00    +0.000 OA
ATOM      2  C   UNL     1      -2.026   9.097 -10.148  0.00  0.00    +0.000 C 
ENDROOT
BRANCH   2   3
ATOM      3  C   UNL     1      -2.966   8.391  -9.251  0.00  0.00    +0.000 C 
ATOM      4  C   UNL     1      -3.440   7.186  -9.594  0.00  0.00    +0.000 C 
ATOM      5  H   UNL     1      -3.256   8.870  -8.321  0.00  0.00    +0.000 HD
ATOM      6  H   UNL     1      -3.141   6.720 -10.528  0.00  0.00    +0.000 HD
BRANCH   4   7
ATOM      7  C   UNL     1      -4.392   6.407  -8.746  0.00  0.00    +0.000 C 
ATOM      8  H   UNL     1      -4.795   5.565  -9.317  0.00  0.00    +0.000 HD
ATOM      9  H   UNL     1      -5.231   7.016  -8.397  0.00  0.00    +0.000 HD
ATOM     10  H   UNL     1      -3.870   6.011  -7.870  0.00  0.00    +0.000 HD
ENDBRANCH   4   7
ENDBRANCH   2   3
BRANCH   2  11
ATOM     11  O   UNL     1      -2.302   8.710 -11.422  0.00  0.00    +0.000 OA
BRANCH  11  12
ATOM     12  C   UNL     1      -1.189   8.203 -12.166  0.00  0.00    +0.000 C 
ATOM     13  H   UNL     1      -0.948   8.896 -12.979  0.00  0.00    +0.000 HD
ATOM     14  H   UNL     1      -0.323   8.102 -11.503  0.00  0.00    +0.000 HD
BRANCH  12  15
ATOM     15  C   UNL     1      -1.556   6.850 -12.739  0.00  0.00    +0.000 C 
ATOM     16  H   UNL     1      -0.694   6.385 -13.226  0.00  0.00    +0.000 HD
ATOM     17  H   UNL     1      -1.917   6.182 -11.949  0.00  0.00    +0.000 HD
ATOM     18  H   UNL     1      -2.366   6.947 -13.468  0.00  0.00    +0.000 HD
ENDBRANCH  12  15
ENDBRANCH  11  12
ENDBRANCH   2  11
TORSDOF 5
ENDMDL
MODEL 2
REMARK VINA RESULT:    -3.648      1.569      2.539
REMARK INTER + INTRA:          -4.635
REMARK INTER:                  -4.423
REMARK INTRA:                  -0.212
REMARK UNBOUND:                -0.134
REMARK  Name = 429065
REMARK  5 active torsions:
REMARK  status: ('A' for Active; 'I' for Inactive)
REMARK    1  A    between atoms: O_1  and  C_3
REMARK    2  A    between atoms: O_1  and  C_5
REMARK    3  A    between atoms: C_3  and  C_4
REMARK    4  A    between atoms: C_5  and  C_6
REMARK    5  A    between atoms: C_7  and  C_8
REMARK                            x       y       z     vdW  Elec       q    Type
REMARK                         _______ _______ _______ _____ _____    ______ ____
ROOT
ATOM      1  O   UNL     1      -2.639   7.543 -13.177  0.00  0.00    +0.000 OA
ATOM      2  C   UNL     1      -1.979   7.422 -12.157  0.00  0.00    +0.000 C 
ENDROOT
BRANCH   2   3
ATOM      3  C   UNL     1      -2.412   6.707 -10.936  0.00  0.00    +0.000 C 
ATOM      4  C   UNL     1      -3.301   7.273 -10.109  0.00  0.00    +0.000 C 
ATOM      5  H   UNL     1      -1.994   5.726 -10.734  0.00  0.00    +0.000 HD
ATOM      6  H   UNL     1      -3.710   8.255 -10.326  0.00  0.00    +0.000 HD
BRANCH   4   7
ATOM      7  C   UNL     1      -3.789   6.620  -8.858  0.00  0.00    +0.000 C 
ATOM      8  H   UNL     1      -4.655   7.163  -8.468  0.00  0.00    +0.000 HD
ATOM      9  H   UNL     1      -3.022   6.592  -8.078  0.00  0.00    +0.000 HD
ATOM     10  H   UNL     1      -4.096   5.591  -9.071  0.00  0.00    +0.000 HD
ENDBRANCH   4   7
ENDBRANCH   2   3
BRANCH   2  11
ATOM     11  O   UNL     1      -0.729   7.909 -11.928  0.00  0.00    +0.000 OA
BRANCH  11  12
ATOM     12  C   UNL     1      -0.554   9.304 -12.197  0.00  0.00    +0.000 C 
ATOM     13  H   UNL     1       0.502   9.505 -12.404  0.00  0.00    +0.000 HD
ATOM     14  H   UNL     1      -1.156   9.585 -13.069  0.00  0.00    +0.000 HD
BRANCH  12  15
ATOM     15  C   UNL     1      -1.001  10.099 -10.988  0.00  0.00    +0.000 C 
ATOM     16  H   UNL     1      -1.690  10.897 -11.279  0.00  0.00    +0.000 HD
ATOM     17  H   UNL     1      -1.499   9.447 -10.262  0.00  0.00    +0.000 HD
ATOM     18  H   UNL     1      -0.139  10.542 -10.480  0.00  0.00    +0.000 HD
ENDBRANCH  12  15
ENDBRANCH  11  12
ENDBRANCH   2  11
TORSDOF 5
ENDMDL
MODEL 3
REMARK VINA RESULT:    -3.497     31.942     33.036
REMARK INTER + INTRA:          -4.449
REMARK INTER:                  -4.237
REMARK INTRA:                  -0.212
REMARK UNBOUND:                -0.134
REMARK  Name = 429065
REMARK  5 active torsions:
REMARK  status: ('A' for Active; 'I' for Inactive)
REMARK    1  A    between atoms: O_1  and  C_3
REMARK    2  A    between atoms: O_1  and  C_5
REMARK    3  A    between atoms: C_3  and  C_4
REMARK    4  A    between atoms: C_5  and  C_6
REMARK    5  A    between atoms: C_7  and  C_8
REMARK                            x       y       z     vdW  Elec       q    Type
REMARK                         _______ _______ _______ _____ _____    ______ ____
ROOT
ATOM      1  O   UNL     1      -9.297  -9.081  14.479  0.00  0.00    +0.000 OA
ATOM      2  C   UNL     1      -9.779 -10.078  14.994  0.00  0.00    +0.000 C 
ENDROOT
BRANCH   2   3
ATOM      3  C   UNL     1     -10.909 -10.088  15.948  0.00  0.00    +0.000 C 
ATOM      4  C   UNL     1     -11.493 -11.246  16.281  0.00  0.00    +0.000 C 
ATOM      5  H   UNL     1     -11.246  -9.144  16.363  0.00  0.00    +0.000 HD
ATOM      6  H   UNL     1     -11.145 -12.183  15.856  0.00  0.00    +0.000 HD
BRANCH   4   7
ATOM      7  C   UNL     1     -12.639 -11.343  17.234  0.00  0.00    +0.000 C 
ATOM      8  H   UNL     1     -12.315 -11.050  18.237  0.00  0.00    +0.000 HD
ATOM      9  H   UNL     1     -13.048 -12.357  17.290  0.00  0.00    +0.000 HD
ATOM     10  H   UNL     1     -13.441 -10.668  16.921  0.00  0.00    +0.000 HD
ENDBRANCH   4   7
ENDBRANCH   2   3
BRANCH   2  11
ATOM     11  O   UNL     1      -9.386 -11.367  14.806  0.00  0.00    +0.000 OA
BRANCH  11  12
ATOM     12  C   UNL     1      -7.992 -11.554  14.542  0.00  0.00    +0.000 C 
ATOM     13  H   UNL     1      -7.851 -12.464  13.951  0.00  0.00    +0.000 HD
ATOM     14  H   UNL     1      -7.609 -10.693  13.982  0.00  0.00    +0.000 HD
BRANCH  12  15
ATOM     15  C   UNL     1      -7.253 -11.677  15.858  0.00  0.00    +0.000 C 
ATOM     16  H   UNL     1      -6.780 -12.659  15.950  0.00  0.00    +0.000 HD
ATOM     17  H   UNL     1      -6.482 -10.904  15.941  0.00  0.00    +0.000 HD
ATOM     18  H   UNL     1      -7.939 -11.534  16.699  0.00  0.00    +0.000 HD
ENDBRANCH  12  15
ENDBRANCH  11  12
ENDBRANCH   2  11
TORSDOF 5
ENDMDL
MODEL 4
REMARK VINA RESULT:    -3.432     31.404     32.701
REMARK INTER + INTRA:          -4.368
REMARK INTER:                  -4.245
REMARK INTRA:                  -0.123
REMARK UNBOUND:                -0.134
REMARK  Name = 429065
REMARK  5 active torsions:
REMARK  status: ('A' for Active; 'I' for Inactive)
REMARK    1  A    between atoms: O_1  and  C_3
REMARK    2  A    between atoms: O_1  and  C_5
REMARK    3  A    between atoms: C_3  and  C_4
REMARK    4  A    between atoms: C_5  and  C_6
REMARK    5  A    between atoms: C_7  and  C_8
REMARK                            x       y       z     vdW  Elec       q    Type
REMARK                         _______ _______ _______ _____ _____    ______ ____
ROOT
ATOM      1  O   UNL     1      -8.964 -10.058  13.235  0.00  0.00    +0.000 OA
ATOM      2  C   UNL     1      -9.421 -10.099  14.367  0.00  0.00    +0.000 C 
ENDROOT
BRANCH   2   3
ATOM      3  C   UNL     1      -8.812 -10.810  15.511  0.00  0.00    +0.000 C 
ATOM      4  C   UNL     1      -7.758 -11.613  15.316  0.00  0.00    +0.000 C 
ATOM      5  H   UNL     1      -9.238 -10.666  16.498  0.00  0.00    +0.000 HD
ATOM      6  H   UNL     1      -7.343 -11.749  14.321  0.00  0.00    +0.000 HD
BRANCH   4   7
ATOM      7  C   UNL     1      -7.085 -12.367  16.416  0.00  0.00    +0.000 C 
ATOM      8  H   UNL     1      -6.066 -11.995  16.554  0.00  0.00    +0.000 HD
ATOM      9  H   UNL     1      -7.032 -13.441  16.211  0.00  0.00    +0.000 HD
ATOM     10  H   UNL     1      -7.633 -12.225  17.353  0.00  0.00    +0.000 HD
ENDBRANCH   4   7
ENDBRANCH   2   3
BRANCH   2  11
ATOM     11  O   UNL     1     -10.567  -9.513  14.808  0.00  0.00    +0.000 OA
BRANCH  11  12
ATOM     12  C   UNL     1     -11.118 -10.066  16.008  0.00  0.00    +0.000 C 
ATOM     13  H   UNL     1     -11.160 -11.156  15.922  0.00  0.00    +0.000 HD
ATOM     14  H   UNL     1     -10.485  -9.792  16.859  0.00  0.00    +0.000 HD
BRANCH  12  15
ATOM     15  C   UNL     1     -12.513  -9.513  16.210  0.00  0.00    +0.000 C 
ATOM     16  H   UNL     1     -13.174  -9.812  15.391  0.00  0.00    +0.000 HD
ATOM     17  H   UNL     1     -12.936  -9.871  17.155  0.00  0.00    +0.000 HD
ATOM     18  H   UNL     1     -12.490  -8.420  16.265  0.00  0.00    +0.000 HD
ENDBRANCH  12  15
ENDBRANCH  11  12
ENDBRANCH   2  11
TORSDOF 5
ENDMDL
MODEL 5
REMARK VINA RESULT:    -3.418     26.314     27.016
REMARK INTER + INTRA:          -4.351
REMARK INTER:                  -4.192
REMARK INTRA:                  -0.159
REMARK UNBOUND:                -0.134
REMARK  Name = 429065
REMARK  5 active torsions:
REMARK  status: ('A' for Active; 'I' for Inactive)
REMARK    1  A    between atoms: O_1  and  C_3
REMARK    2  A    between atoms: O_1  and  C_5
REMARK    3  A    between atoms: C_3  and  C_4
REMARK    4  A    between atoms: C_5  and  C_6
REMARK    5  A    between atoms: C_7  and  C_8
REMARK                            x       y       z     vdW  Elec       q    Type
REMARK                         _______ _______ _______ _____ _____    ______ ____
ROOT
ATOM      1  O   UNL     1     -22.559  -2.744   5.090  0.00  0.00    +0.000 OA
ATOM      2  C   UNL     1     -21.400  -2.564   5.430  0.00  0.00    +0.000 C 
ENDROOT
BRANCH   2   3
ATOM      3  C   UNL     1     -20.397  -3.629   5.647  0.00  0.00    +0.000 C 
ATOM      4  C   UNL     1     -19.964  -4.361   4.612  0.00  0.00    +0.000 C 
ATOM      5  H   UNL     1     -20.028  -3.797   6.653  0.00  0.00    +0.000 HD
ATOM      6  H   UNL     1     -20.343  -4.181   3.610  0.00  0.00    +0.000 HD
BRANCH   4   7
ATOM      7  C   UNL     1     -18.954  -5.454   4.745  0.00  0.00    +0.000 C 
ATOM      8  H   UNL     1     -18.527  -5.687   3.766  0.00  0.00    +0.000 HD
ATOM      9  H   UNL     1     -19.387  -6.371   5.156  0.00  0.00    +0.000 HD
ATOM     10  H   UNL     1     -18.144  -5.132   5.407  0.00  0.00    +0.000 HD
ENDBRANCH   4   7
ENDBRANCH   2   3
BRANCH   2  11
ATOM     11  O   UNL     1     -20.796  -1.371   5.679  0.00  0.00    +0.000 OA
BRANCH  11  12
ATOM     12  C   UNL     1     -20.294  -1.201   7.009  0.00  0.00    +0.000 C 
ATOM     13  H   UNL     1     -19.951  -2.166   7.395  0.00  0.00    +0.000 HD
ATOM     14  H   UNL     1     -19.457  -0.495   6.995  0.00  0.00    +0.000 HD
BRANCH  12  15
ATOM     15  C   UNL     1     -21.404  -0.663   7.888  0.00  0.00    +0.000 C 
ATOM     16  H   UNL     1     -21.049  -0.503   8.910  0.00  0.00    +0.000 HD
ATOM     17  H   UNL     1     -21.783   0.286   7.492  0.00  0.00    +0.000 HD
ATOM     18  H   UNL     1     -22.248  -1.358   7.911  0.00  0.00    +0.000 HD
ENDBRANCH  12  15
ENDBRANCH  11  12
ENDBRANCH   2  11
TORSDOF 5
ENDMDL
MODEL 6
REMARK VINA RESULT:    -3.412      8.439      9.026
REMARK INTER + INTRA:          -4.344
REMARK INTER:                  -4.241
REMARK INTRA:                  -0.103
REMARK UNBOUND:                -0.134
REMARK  Name = 429065
REMARK  5 active torsions:
REMARK  status: ('A' for Active; 'I' for Inactive)
REMARK    1  A    between atoms: O_1  and  C_3
REMARK    2  A    between atoms: O_1  and  C_5
REMARK    3  A    between atoms: C_3  and  C_4
REMARK    4  A    between atoms: C_5  and  C_6
REMARK    5  A    between atoms: C_7  and  C_8
REMARK                            x       y       z     vdW  Elec       q    Type
REMARK                         _______ _______ _______ _____ _____    ______ ____
ROOT
ATOM      1  O   UNL     1      -0.004  -1.819 -12.739  0.00  0.00    +0.000 OA
ATOM      2  C   UNL     1      -0.287  -0.756 -12.209  0.00  0.00    +0.000 C 
ENDROOT
BRANCH   2   3
ATOM      3  C   UNL     1      -1.606  -0.409 -11.635  0.00  0.00    +0.000 C 
ATOM      4  C   UNL     1      -1.904  -0.768 -10.380  0.00  0.00    +0.000 C 
ATOM      5  H   UNL     1      -2.313   0.135 -12.252  0.00  0.00    +0.000 HD
ATOM      6  H   UNL     1      -1.185  -1.314  -9.775  0.00  0.00    +0.000 HD
BRANCH   4   7
ATOM      7  C   UNL     1      -3.210  -0.458  -9.726  0.00  0.00    +0.000 C 
ATOM      8  H   UNL     1      -3.519   0.561  -9.975  0.00  0.00    +0.000 HD
ATOM      9  H   UNL     1      -3.160  -0.543  -8.636  0.00  0.00    +0.000 HD
ATOM     10  H   UNL     1      -3.979  -1.149 -10.086  0.00  0.00    +0.000 HD
ENDBRANCH   4   7
ENDBRANCH   2   3
BRANCH   2  11
ATOM     11  O   UNL     1       0.532   0.316 -12.038  0.00  0.00    +0.000 OA
BRANCH  11  12
ATOM     12  C   UNL     1       1.826   0.204 -12.640  0.00  0.00    +0.000 C 
ATOM     13  H   UNL     1       2.580   0.617 -11.963  0.00  0.00    +0.000 HD
ATOM     14  H   UNL     1       2.048  -0.852 -12.833  0.00  0.00    +0.000 HD
BRANCH  12  15
ATOM     15  C   UNL     1       1.831   0.974 -13.944  0.00  0.00    +0.000 C 
ATOM     16  H   UNL     1       1.166   1.840 -13.888  0.00  0.00    +0.000 HD
ATOM     17  H   UNL     1       2.843   1.318 -14.184  0.00  0.00    +0.000 HD
ATOM     18  H   UNL     1       1.509   0.333 -14.771  0.00  0.00    +0.000 HD
ENDBRANCH  12  15
ENDBRANCH  11  12
ENDBRANCH   2  11
TORSDOF 5
ENDMDL
MODEL 7
REMARK VINA RESULT:    -3.388     10.116     11.439
REMARK INTER + INTRA:          -4.314
REMARK INTER:                  -4.171
REMARK INTRA:                  -0.143
REMARK UNBOUND:                -0.134
REMARK  Name = 429065
REMARK  5 active torsions:
REMARK  status: ('A' for Active; 'I' for Inactive)
REMARK    1  A    between atoms: O_1  and  C_3
REMARK    2  A    between atoms: O_1  and  C_5
REMARK    3  A    between atoms: C_3  and  C_4
REMARK    4  A    between atoms: C_5  and  C_6
REMARK    5  A    between atoms: C_7  and  C_8
REMARK                            x       y       z     vdW  Elec       q    Type
REMARK                         _______ _______ _______ _____ _____    ______ ____
ROOT
ATOM      1  O   UNL     1       3.752  -2.429 -13.405  0.00  0.00    +0.000 OA
ATOM      2  C   UNL     1       3.920  -1.277 -13.775  0.00  0.00    +0.000 C 
ENDROOT
BRANCH   2   3
ATOM      3  C   UNL     1       2.865  -0.244 -13.867  0.00  0.00    +0.000 C 
ATOM      4  C   UNL     1       2.108   0.037 -12.798  0.00  0.00    +0.000 C 
ATOM      5  H   UNL     1       2.723   0.270 -14.811  0.00  0.00    +0.000 HD
ATOM      6  H   UNL     1       2.261  -0.488 -11.859  0.00  0.00    +0.000 HD
BRANCH   4   7
ATOM      7  C   UNL     1       1.023   1.063 -12.807  0.00  0.00    +0.000 C 
ATOM      8  H   UNL     1       1.302   1.893 -13.461  0.00  0.00    +0.000 HD
ATOM      9  H   UNL     1       0.824   1.466 -11.809  0.00  0.00    +0.000 HD
ATOM     10  H   UNL     1       0.097   0.621 -13.187  0.00  0.00    +0.000 HD
ENDBRANCH   4   7
ENDBRANCH   2   3
BRANCH   2  11
ATOM     11  O   UNL     1       5.089  -0.708 -14.174  0.00  0.00    +0.000 OA
BRANCH  11  12
ATOM     12  C   UNL     1       5.108  -0.222 -15.521  0.00  0.00    +0.000 C 
ATOM     13  H   UNL     1       4.084  -0.024 -15.851  0.00  0.00    +0.000 HD
ATOM     14  H   UNL     1       5.691   0.704 -15.565  0.00  0.00    +0.000 HD
BRANCH  12  15
ATOM     15  C   UNL     1       5.742  -1.269 -16.413  0.00  0.00    +0.000 C 
ATOM     16  H   UNL     1       5.612  -1.013 -17.469  0.00  0.00    +0.000 HD
ATOM     17  H   UNL     1       6.813  -1.360 -16.200  0.00  0.00    +0.000 HD
ATOM     18  H   UNL     1       5.297  -2.252 -16.230  0.00  0.00    +0.000 HD
ENDBRANCH  12  15
ENDBRANCH  11  12
ENDBRANCH   2  11
TORSDOF 5
ENDMDL
MODEL 8
REMARK VINA RESULT:    -3.386     26.102     26.601
REMARK INTER + INTRA:          -4.312
REMARK INTER:                  -4.122
REMARK INTRA:                  -0.189
REMARK UNBOUND:                -0.134
REMARK  Name = 429065
REMARK  5 active torsions:
REMARK  status: ('A' for Active; 'I' for Inactive)
REMARK    1  A    between atoms: O_1  and  C_3
REMARK    2  A    between atoms: O_1  and  C_5
REMARK    3  A    between atoms: C_3  and  C_4
REMARK    4  A    between atoms: C_5  and  C_6
REMARK    5  A    between atoms: C_7  and  C_8
REMARK                            x       y       z     vdW  Elec       q    Type
REMARK                         _______ _______ _______ _____ _____    ______ ____
ROOT
ATOM      1  O   UNL     1     -22.223  -4.150   4.772  0.00  0.00    +0.000 OA
ATOM      2  C   UNL     1     -21.222  -3.512   4.485  0.00  0.00    +0.000 C 
ENDROOT
BRANCH   2   3
ATOM      3  C   UNL     1     -20.867  -2.184   5.030  0.00  0.00    +0.000 C 
ATOM      4  C   UNL     1     -20.641  -2.038   6.343  0.00  0.00    +0.000 C 
ATOM      5  H   UNL     1     -20.796  -1.345   4.347  0.00  0.00    +0.000 HD
ATOM      6  H   UNL     1     -20.717  -2.889   7.014  0.00  0.00    +0.000 HD
BRANCH   4   7
ATOM      7  C   UNL     1     -20.279  -0.734   6.973  0.00  0.00    +0.000 C 
ATOM      8  H   UNL     1     -19.979  -0.018   6.202  0.00  0.00    +0.000 HD
ATOM      9  H   UNL     1     -19.455  -0.832   7.687  0.00  0.00    +0.000 HD
ATOM     10  H   UNL     1     -21.144  -0.325   7.505  0.00  0.00    +0.000 HD
ENDBRANCH   4   7
ENDBRANCH   2   3
BRANCH   2  11
ATOM     11  O   UNL     1     -20.239  -3.879   3.618  0.00  0.00    +0.000 OA
BRANCH  11  12
ATOM     12  C   UNL     1     -19.886  -5.266   3.640  0.00  0.00    +0.000 C 
ATOM     13  H   UNL     1     -20.781  -5.868   3.824  0.00  0.00    +0.000 HD
ATOM     14  H   UNL     1     -19.450  -5.546   2.674  0.00  0.00    +0.000 HD
BRANCH  12  15
ATOM     15  C   UNL     1     -18.875  -5.499   4.744  0.00  0.00    +0.000 C 
ATOM     16  H   UNL     1     -18.106  -4.722   4.740  0.00  0.00    +0.000 HD
ATOM     17  H   UNL     1     -19.369  -5.505   5.722  0.00  0.00    +0.000 HD
ATOM     18  H   UNL     1     -18.394  -6.475   4.625  0.00  0.00    +0.000 HD
ENDBRANCH  12  15
ENDBRANCH  11  12
ENDBRANCH   2  11
TORSDOF 5
ENDMDL
MODEL 9
REMARK VINA RESULT:    -3.364     40.318     41.912
REMARK INTER + INTRA:          -4.284
REMARK INTER:                  -4.150
REMARK INTRA:                  -0.134
REMARK UNBOUND:                -0.134
REMARK  Name = 429065
REMARK  5 active torsions:
REMARK  status: ('A' for Active; 'I' for Inactive)
REMARK    1  A    between atoms: O_1  and  C_3
REMARK    2  A    between atoms: O_1  and  C_5
REMARK    3  A    between atoms: C_3  and  C_4
REMARK    4  A    between atoms: C_5  and  C_6
REMARK    5  A    between atoms: C_7  and  C_8
REMARK                            x       y       z     vdW  Elec       q    Type
REMARK                         _______ _______ _______ _____ _____    ______ ____
ROOT
ATOM      1  O   UNL     1      -3.450  -6.690  29.884  0.00  0.00    +0.000 OA
ATOM      2  C   UNL     1      -4.384  -6.734  29.099  0.00  0.00    +0.000 C 
ENDROOT
BRANCH   2   3
ATOM      3  C   UNL     1      -4.623  -5.776  27.998  0.00  0.00    +0.000 C 
ATOM      4  C   UNL     1      -4.336  -4.479  28.165  0.00  0.00    +0.000 C 
ATOM      5  H   UNL     1      -5.033  -6.150  27.065  0.00  0.00    +0.000 HD
ATOM      6  H   UNL     1      -3.927  -4.120  29.105  0.00  0.00    +0.000 HD
BRANCH   4   7
ATOM      7  C   UNL     1      -4.549  -3.448  27.106  0.00  0.00    +0.000 C 
ATOM      8  H   UNL     1      -5.465  -2.887  27.310  0.00  0.00    +0.000 HD
ATOM      9  H   UNL     1      -4.633  -3.889  26.108  0.00  0.00    +0.000 HD
ATOM     10  H   UNL     1      -3.710  -2.745  27.098  0.00  0.00    +0.000 HD
ENDBRANCH   4   7
ENDBRANCH   2   3
BRANCH   2  11
ATOM     11  O   UNL     1      -5.385  -7.655  29.069  0.00  0.00    +0.000 OA
BRANCH  11  12
ATOM     12  C   UNL     1      -4.971  -9.018  29.212  0.00  0.00    +0.000 C 
ATOM     13  H   UNL     1      -4.197  -9.085  29.984  0.00  0.00    +0.000 HD
ATOM     14  H   UNL     1      -5.831  -9.631  29.505  0.00  0.00    +0.000 HD
BRANCH  12  15
ATOM     15  C   UNL     1      -4.420  -9.507  27.890  0.00  0.00    +0.000 C 
ATOM     16  H   UNL     1      -3.974  -8.684  27.324  0.00  0.00    +0.000 HD
ATOM     17  H   UNL     1      -3.659 -10.279  28.051  0.00  0.00    +0.000 HD
ATOM     18  H   UNL     1      -5.212  -9.962  27.287  0.00  0.00    +0.000 HD
ENDBRANCH  12  15
ENDBRANCH  11  12
ENDBRANCH   2  11
TORSDOF 5
ENDMDL
MODEL 10
REMARK VINA RESULT:    -3.332      2.028      3.406
REMARK INTER + INTRA:          -4.245
REMARK INTER:                  -4.015
REMARK INTRA:                  -0.230
REMARK UNBOUND:                -0.134
REMARK  Name = 429065
REMARK  5 active torsions:
REMARK  status: ('A' for Active; 'I' for Inactive)
REMARK    1  A    between atoms: O_1  and  C_3
REMARK    2  A    between atoms: O_1  and  C_5
REMARK    3  A    between atoms: C_3  and  C_4
REMARK    4  A    between atoms: C_5  and  C_6
REMARK    5  A    between atoms: C_7  and  C_8
REMARK                            x       y       z     vdW  Elec       q    Type
REMARK                         _______ _______ _______ _____ _____    ______ ____
ROOT
ATOM      1  O   UNL     1      -0.877  10.094 -10.269  0.00  0.00    +0.000 OA
ATOM      2  C   UNL     1      -2.036   9.852 -10.567  0.00  0.00    +0.000 C 
ENDROOT
BRANCH   2   3
ATOM      3  C   UNL     1      -2.570   9.784 -11.945  0.00  0.00    +0.000 C 
ATOM      4  C   UNL     1      -3.888   9.897 -12.158  0.00  0.00    +0.000 C 
ATOM      5  H   UNL     1      -1.874   9.641 -12.765  0.00  0.00    +0.000 HD
ATOM      6  H   UNL     1      -4.572  10.039 -11.327  0.00  0.00    +0.000 HD
BRANCH   4   7
ATOM      7  C   UNL     1      -4.507   9.839 -13.516  0.00  0.00    +0.000 C 
ATOM      8  H   UNL     1      -5.002  10.788 -13.741  0.00  0.00    +0.000 HD
ATOM      9  H   UNL     1      -5.249   9.038 -13.599  0.00  0.00    +0.000 HD
ATOM     10  H   UNL     1      -3.734   9.667 -14.270  0.00  0.00    +0.000 HD
ENDBRANCH   4   7
ENDBRANCH   2   3
BRANCH   2  11
ATOM     11  O   UNL     1      -3.065   9.600  -9.713  0.00  0.00    +0.000 OA
BRANCH  11  12
ATOM     12  C   UNL     1      -2.821   8.577  -8.742  0.00  0.00    +0.000 C 
ATOM     13  H   UNL     1      -1.752   8.543  -8.509  0.00  0.00    +0.000 HD
ATOM     14  H   UNL     1      -3.387   8.798  -7.830  0.00  0.00    +0.000 HD
BRANCH  12  15
ATOM     15  C   UNL     1      -3.263   7.244  -9.309  0.00  0.00    +0.000 C 
ATOM     16  H   UNL     1      -2.678   6.982 -10.195  0.00  0.00    +0.000 HD
ATOM     17  H   UNL     1      -3.149   6.451  -8.562  0.00  0.00    +0.000 HD
ATOM     18  H   UNL     1      -4.323   7.274  -9.580  0.00  0.00    +0.000 HD
ENDBRANCH  12  15
ENDBRANCH  11  12
ENDBRANCH   2  11
TORSDOF 5
ENDMDL
