MODEL 1
REMARK VINA RESULT:    -5.651      0.000      0.000
REMARK INTER + INTRA:         -12.007
REMARK INTER:                 -10.605
REMARK INTRA:                  -1.403
REMARK UNBOUND:                -1.567
REMARK  Name = 10390702
REMARK  19 active torsions:
REMARK  status: ('A' for Active; 'I' for Inactive)
REMARK    1  A    between atoms: O_3  and  C_26
REMARK    2  A    between atoms: O_4  and  C_27
REMARK    3  A    between atoms: O_5  and  C_33
REMARK    4  A    between atoms: C_8  and  C_11
REMARK    5  A    between atoms: C_9  and  C_14
REMARK    6  A    between atoms: C_9  and  C_15
REMARK    7  A    between atoms: C_10  and  C_13
REMARK    8  A    between atoms: C_12  and  C_18
REMARK    9  A    between atoms: C_12  and  C_20
REMARK   10  A    between atoms: C_13  and  C_21
REMARK   11  A    between atoms: C_18  and  C_22
REMARK   12  A    between atoms: C_18  and  C_23
REMARK   13  A    between atoms: C_21  and  C_25
REMARK   14  A    between atoms: C_22  and  C_24
REMARK   15  A    between atoms: C_24  and  C_28
REMARK   16  A    between atoms: C_24  and  C_29
REMARK   17  A    between atoms: C_25  and  C_30
REMARK   18  A    between atoms: C_31  and  C_35
REMARK   19  A    between atoms: C_32  and  C_34
REMARK                            x       y       z     vdW  Elec       q    Type
REMARK                         _______ _______ _______ _____ _____    ______ ____
ROOT
ATOM      1  O   UNL     1      -2.633   7.985  -9.782  0.00  0.00    +0.000 OA
ATOM      2  C   UNL     1      -2.480   8.633 -12.119  0.00  0.00    +0.000 C 
ATOM      3  C   UNL     1      -1.328   9.458 -12.750  0.00  0.00    +0.000 C 
ATOM      4  C   UNL     1      -1.068  10.535 -11.675  0.00  0.00    +0.000 C 
ATOM      5  C   UNL     1      -2.153   8.716 -10.640  0.00  0.00    +0.000 C 
ATOM      6  C   UNL     1      -1.160   9.808 -10.338  0.00  0.00    +0.000 C 
ATOM      7  H   UNL     1      -3.393   9.223 -12.192  0.00  0.00    +0.000 HD
ATOM      8  H   UNL     1      -0.059  10.934 -11.632  0.00  0.00    +0.000 HD
ATOM      9  H   UNL     1      -1.790  11.347 -11.592  0.00  0.00    +0.000 HD
ATOM     10  H   UNL     1      -0.207   9.350 -10.053  0.00  0.00    +0.000 HD
ATOM     11  H   UNL     1      -1.524  10.459  -9.541  0.00  0.00    +0.000 HD
ENDROOT
BRANCH   2  12
ATOM     12  C   UNL     1      -2.637   7.233 -12.623  0.00  0.00    +0.000 C 
ATOM     13  C   UNL     1      -3.536   6.937 -13.788  0.00  0.00    +0.000 C 
ATOM     14  C   UNL     1      -3.942   6.525 -12.404  0.00  0.00    +0.000 C 
ATOM     15  H   UNL     1      -1.764   6.614 -12.466  0.00  0.00    +0.000 HD
ATOM     16  H   UNL     1      -3.892   5.475 -12.136  0.00  0.00    +0.000 HD
BRANCH  13  17
ATOM     17  C   UNL     1      -4.226   8.091 -14.433  0.00  0.00    +0.000 C 
ATOM     18  H   UNL     1      -4.040   8.052 -15.514  0.00  0.00    +0.000 HD
ATOM     19  H   UNL     1      -5.308   8.170 -14.336  0.00  0.00    +0.000 HD
ATOM     20  H   UNL     1      -3.785   9.028 -14.086  0.00  0.00    +0.000 HD
ENDBRANCH  13  17
BRANCH  13  21
ATOM     21  C   UNL     1      -3.150   5.858 -14.742  0.00  0.00    +0.000 C 
ATOM     22  H   UNL     1      -3.313   4.871 -14.295  0.00  0.00    +0.000 HD
ATOM     23  H   UNL     1      -3.747   5.922 -15.659  0.00  0.00    +0.000 HD
ATOM     24  H   UNL     1      -2.095   5.920 -15.033  0.00  0.00    +0.000 HD
ENDBRANCH  13  21
BRANCH  14  25
ATOM     25  C   UNL     1      -5.033   7.238 -11.693  0.00  0.00    +0.000 C 
ATOM     26  H   UNL     1      -5.445   8.122 -12.184  0.00  0.00    +0.000 HD
ATOM     27  H   UNL     1      -4.662   7.531 -10.710  0.00  0.00    +0.000 HD
BRANCH  25  28
ATOM     28  C   UNL     1      -6.169   6.297 -11.284  0.00  0.00    +0.000 C 
ATOM     29  H   UNL     1      -7.129   6.716 -11.605  0.00  0.00    +0.000 HD
ATOM     30  H   UNL     1      -6.046   5.323 -11.771  0.00  0.00    +0.000 HD
BRANCH  28  32
ATOM     31  O   UNL     1      -5.260   6.158  -9.047  0.00  0.00    +0.000 OA
ATOM     32  C   UNL     1      -6.241   6.071  -9.784  0.00  0.00    +0.000 C 
BRANCH  32  33
ATOM     33  C   UNL     1      -7.600   5.726  -9.231  0.00  0.00    +0.000 C 
ATOM     34  H   UNL     1      -7.583   5.809  -8.141  0.00  0.00    +0.000 HD
ATOM     35  H   UNL     1      -7.870   4.710  -9.529  0.00  0.00    +0.000 HD
ATOM     36  H   UNL     1      -8.346   6.421  -9.627  0.00  0.00    +0.000 HD
ENDBRANCH  32  33
ENDBRANCH  28  32
ENDBRANCH  25  28
ENDBRANCH  14  25
ENDBRANCH   2  12
BRANCH   3  37
ATOM     37  C   UNL     1      -0.045   8.642 -13.001  0.00  0.00    +0.000 C 
ATOM     38  H   UNL     1       0.578   9.066 -13.797  0.00  0.00    +0.000 HD
ATOM     39  H   UNL     1       0.571   8.470 -12.114  0.00  0.00    +0.000 HD
ATOM     40  H   UNL     1      -0.304   7.629 -13.339  0.00  0.00    +0.000 HD
ENDBRANCH   3  37
BRANCH   3  41
ATOM     41  C   UNL     1      -1.763  10.111 -14.067  0.00  0.00    +0.000 C 
ATOM     42  H   UNL     1      -2.409   9.396 -14.578  0.00  0.00    +0.000 HD
BRANCH  41  43
ATOM     43  C   UNL     1      -0.555  10.378 -14.948  0.00  0.00    +0.000 A 
ATOM     44  C   UNL     1       0.189  11.546 -14.777  0.00  0.00    +0.000 A 
ATOM     45  C   UNL     1      -0.189   9.457 -15.930  0.00  0.00    +0.000 A 
ATOM     46  C   UNL     1       1.299  11.792 -15.585  0.00  0.00    +0.000 A 
ATOM     47  C   UNL     1       0.920   9.702 -16.738  0.00  0.00    +0.000 A 
ATOM     48  C   UNL     1       1.664  10.869 -16.566  0.00  0.00    +0.000 A 
BRANCH  46  50
ATOM     49  O   UNL     1       2.641  13.296 -14.348  0.00  0.00    +0.000 OA
ATOM     50  C   UNL     1       2.077  13.012 -15.405  0.00  0.00    +0.000 C 
ATOM     51  H   UNL     1       2.162  13.692 -16.267  0.00  0.00    +0.000 HD
ENDBRANCH  46  50
BRANCH  47  53
ATOM     52  O   UNL     1       0.535   8.371 -18.656  0.00  0.00    +0.000 OA
ATOM     53  C   UNL     1       1.302   8.738 -17.764  0.00  0.00    +0.000 C 
ATOM     54  H   UNL     1       2.324   8.329 -17.724  0.00  0.00    +0.000 HD
ENDBRANCH  47  53
BRANCH  48  55
ATOM     55  O   UNL     1       2.750  11.109 -17.358  0.00  0.00    +0.000 OA
ATOM     56  H   UNL     1       3.484  11.454 -16.824  0.00  0.00    +0.000 HD
ENDBRANCH  48  55
BRANCH  45  57
ATOM     57  O   UNL     1      -0.920   8.316 -16.095  0.00  0.00    +0.000 OA
ATOM     58  H   UNL     1      -1.544   8.403 -16.831  0.00  0.00    +0.000 HD
ENDBRANCH  45  57
BRANCH  44  59
ATOM     59  O   UNL     1      -0.172  12.445 -13.815  0.00  0.00    +0.000 OA
ATOM     60  H   UNL     1       0.408  12.376 -13.040  0.00  0.00    +0.000 HD
ENDBRANCH  44  59
ENDBRANCH  41  43
BRANCH  41  61
ATOM     61  C   UNL     1      -2.602  11.379 -13.781  0.00  0.00    +0.000 C 
ATOM     62  H   UNL     1      -3.087  11.299 -12.800  0.00  0.00    +0.000 HD
ATOM     63  H   UNL     1      -1.996  12.288 -13.770  0.00  0.00    +0.000 HD
BRANCH  61  64
ATOM     64  C   UNL     1      -3.714  11.685 -14.807  0.00  0.00    +0.000 C 
ATOM     65  H   UNL     1      -3.731  10.896 -15.568  0.00  0.00    +0.000 HD
BRANCH  64  66
ATOM     66  C   UNL     1      -5.099  11.758 -14.164  0.00  0.00    +0.000 C 
ATOM     67  H   UNL     1      -5.563  10.773 -14.081  0.00  0.00    +0.000 HD
ATOM     68  H   UNL     1      -5.772  12.373 -14.772  0.00  0.00    +0.000 HD
ATOM     69  H   UNL     1      -5.050  12.211 -13.168  0.00  0.00    +0.000 HD
ENDBRANCH  64  66
BRANCH  64  70
ATOM     70  C   UNL     1      -3.408  13.007 -15.518  0.00  0.00    +0.000 C 
ATOM     71  H   UNL     1      -3.600  13.865 -14.864  0.00  0.00    +0.000 HD
ATOM     72  H   UNL     1      -4.027  13.119 -16.414  0.00  0.00    +0.000 HD
ATOM     73  H   UNL     1      -2.359  13.048 -15.832  0.00  0.00    +0.000 HD
ENDBRANCH  64  70
ENDBRANCH  61  64
ENDBRANCH  41  61
ENDBRANCH   3  41
TORSDOF 19
ENDMDL
MODEL 2
REMARK VINA RESULT:    -5.616      0.585      2.543
REMARK INTER + INTRA:         -11.944
REMARK INTER:                 -10.548
REMARK INTRA:                  -1.396
REMARK UNBOUND:                -1.567
REMARK  Name = 10390702
REMARK  19 active torsions:
REMARK  status: ('A' for Active; 'I' for Inactive)
REMARK    1  A    between atoms: O_3  and  C_26
REMARK    2  A    between atoms: O_4  and  C_27
REMARK    3  A    between atoms: O_5  and  C_33
REMARK    4  A    between atoms: C_8  and  C_11
REMARK    5  A    between atoms: C_9  and  C_14
REMARK    6  A    between atoms: C_9  and  C_15
REMARK    7  A    between atoms: C_10  and  C_13
REMARK    8  A    between atoms: C_12  and  C_18
REMARK    9  A    between atoms: C_12  and  C_20
REMARK   10  A    between atoms: C_13  and  C_21
REMARK   11  A    between atoms: C_18  and  C_22
REMARK   12  A    between atoms: C_18  and  C_23
REMARK   13  A    between atoms: C_21  and  C_25
REMARK   14  A    between atoms: C_22  and  C_24
REMARK   15  A    between atoms: C_24  and  C_28
REMARK   16  A    between atoms: C_24  and  C_29
REMARK   17  A    between atoms: C_25  and  C_30
REMARK   18  A    between atoms: C_31  and  C_35
REMARK   19  A    between atoms: C_32  and  C_34
REMARK                            x       y       z     vdW  Elec       q    Type
REMARK                         _______ _______ _______ _____ _____    ______ ____
ROOT
ATOM      1  O   UNL     1      -2.739   7.938  -9.833  0.00  0.00    +0.000 OA
ATOM      2  C   UNL     1      -2.560   8.610 -12.161  0.00  0.00    +0.000 C 
ATOM      3  C   UNL     1      -1.417   9.469 -12.763  0.00  0.00    +0.000 C 
ATOM      4  C   UNL     1      -1.205  10.543 -11.674  0.00  0.00    +0.000 C 
ATOM      5  C   UNL     1      -2.262   8.688 -10.676  0.00  0.00    +0.000 C 
ATOM      6  C   UNL     1      -1.303   9.802 -10.345  0.00  0.00    +0.000 C 
ATOM      7  H   UNL     1      -3.485   9.178 -12.246  0.00  0.00    +0.000 HD
ATOM      8  H   UNL     1      -0.207  10.968 -11.609  0.00  0.00    +0.000 HD
ATOM      9  H   UNL     1      -1.948  11.336 -11.597  0.00  0.00    +0.000 HD
ATOM     10  H   UNL     1      -0.344   9.366 -10.047  0.00  0.00    +0.000 HD
ATOM     11  H   UNL     1      -1.699  10.436  -9.550  0.00  0.00    +0.000 HD
ENDROOT
BRANCH   2  12
ATOM     12  C   UNL     1      -2.671   7.212 -12.680  0.00  0.00    +0.000 C 
ATOM     13  C   UNL     1      -3.567   6.897 -13.843  0.00  0.00    +0.000 C 
ATOM     14  C   UNL     1      -3.949   6.456 -12.460  0.00  0.00    +0.000 C 
ATOM     15  H   UNL     1      -1.776   6.621 -12.535  0.00  0.00    +0.000 HD
ATOM     16  H   UNL     1      -3.861   5.405 -12.205  0.00  0.00    +0.000 HD
BRANCH  13  17
ATOM     17  C   UNL     1      -4.302   8.034 -14.469  0.00  0.00    +0.000 C 
ATOM     18  H   UNL     1      -3.590   8.633 -15.051  0.00  0.00    +0.000 HD
ATOM     19  H   UNL     1      -5.113   7.811 -15.160  0.00  0.00    +0.000 HD
ATOM     20  H   UNL     1      -4.689   8.697 -13.693  0.00  0.00    +0.000 HD
ENDBRANCH  13  17
BRANCH  13  21
ATOM     21  C   UNL     1      -3.151   5.843 -14.811  0.00  0.00    +0.000 C 
ATOM     22  H   UNL     1      -2.749   6.295 -15.725  0.00  0.00    +0.000 HD
ATOM     23  H   UNL     1      -2.377   5.203 -14.376  0.00  0.00    +0.000 HD
ATOM     24  H   UNL     1      -3.987   5.195 -15.102  0.00  0.00    +0.000 HD
ENDBRANCH  13  21
BRANCH  14  25
ATOM     25  C   UNL     1      -5.059   7.123 -11.734  0.00  0.00    +0.000 C 
ATOM     26  H   UNL     1      -5.423   8.064 -12.149  0.00  0.00    +0.000 HD
ATOM     27  H   UNL     1      -4.734   7.300 -10.708  0.00  0.00    +0.000 HD
BRANCH  25  28
ATOM     28  C   UNL     1      -6.237   6.177 -11.484  0.00  0.00    +0.000 C 
ATOM     29  H   UNL     1      -7.104   6.506 -12.069  0.00  0.00    +0.000 HD
ATOM     30  H   UNL     1      -5.981   5.161 -11.804  0.00  0.00    +0.000 HD
BRANCH  28  32
ATOM     31  O   UNL     1      -7.833   6.161  -9.667  0.00  0.00    +0.000 OA
ATOM     32  C   UNL     1      -6.657   6.123 -10.026  0.00  0.00    +0.000 C 
BRANCH  32  33
ATOM     33  C   UNL     1      -5.540   6.021  -9.019  0.00  0.00    +0.000 C 
ATOM     34  H   UNL     1      -4.676   6.589  -9.372  0.00  0.00    +0.000 HD
ATOM     35  H   UNL     1      -5.270   4.971  -8.877  0.00  0.00    +0.000 HD
ATOM     36  H   UNL     1      -5.868   6.434  -8.061  0.00  0.00    +0.000 HD
ENDBRANCH  32  33
ENDBRANCH  28  32
ENDBRANCH  25  28
ENDBRANCH  14  25
ENDBRANCH   2  12
BRANCH   3  37
ATOM     37  C   UNL     1      -0.109   8.689 -12.997  0.00  0.00    +0.000 C 
ATOM     38  H   UNL     1       0.304   8.267 -12.073  0.00  0.00    +0.000 HD
ATOM     39  H   UNL     1      -0.172   7.904 -13.755  0.00  0.00    +0.000 HD
ATOM     40  H   UNL     1       0.666   9.363 -13.384  0.00  0.00    +0.000 HD
ENDBRANCH   3  37
BRANCH   3  41
ATOM     41  C   UNL     1      -1.845  10.124 -14.083  0.00  0.00    +0.000 C 
ATOM     42  H   UNL     1      -2.496   9.412 -14.593  0.00  0.00    +0.000 HD
BRANCH  41  43
ATOM     43  C   UNL     1      -0.633  10.378 -14.962  0.00  0.00    +0.000 A 
ATOM     44  C   UNL     1      -0.280   9.455 -15.948  0.00  0.00    +0.000 A 
ATOM     45  C   UNL     1       0.129  11.533 -14.785  0.00  0.00    +0.000 A 
ATOM     46  C   UNL     1       0.832   9.689 -16.757  0.00  0.00    +0.000 A 
ATOM     47  C   UNL     1       1.242  11.766 -15.593  0.00  0.00    +0.000 A 
ATOM     48  C   UNL     1       1.593  10.844 -16.579  0.00  0.00    +0.000 A 
BRANCH  46  50
ATOM     49  O   UNL     1       0.442   8.403 -18.704  0.00  0.00    +0.000 OA
ATOM     50  C   UNL     1       1.200   8.725 -17.788  0.00  0.00    +0.000 C 
ATOM     51  H   UNL     1       2.208   8.284 -17.735  0.00  0.00    +0.000 HD
ENDBRANCH  46  50
BRANCH  47  53
ATOM     52  O   UNL     1       2.687  13.197 -14.383  0.00  0.00    +0.000 OA
ATOM     53  C   UNL     1       2.038  12.974 -15.406  0.00  0.00    +0.000 C 
ATOM     54  H   UNL     1       2.047  13.710 -16.226  0.00  0.00    +0.000 HD
ENDBRANCH  47  53
BRANCH  48  55
ATOM     55  O   UNL     1       2.682  11.073 -17.370  0.00  0.00    +0.000 OA
ATOM     56  H   UNL     1       2.464  11.717 -18.062  0.00  0.00    +0.000 HD
ENDBRANCH  48  55
BRANCH  45  57
ATOM     57  O   UNL     1      -0.218  12.433 -13.819  0.00  0.00    +0.000 OA
ATOM     58  H   UNL     1      -0.080  12.066 -12.933  0.00  0.00    +0.000 HD
ENDBRANCH  45  57
BRANCH  44  59
ATOM     59  O   UNL     1      -1.028   8.327 -16.119  0.00  0.00    +0.000 OA
ATOM     60  H   UNL     1      -1.019   7.779 -15.318  0.00  0.00    +0.000 HD
ENDBRANCH  44  59
ENDBRANCH  41  43
BRANCH  41  61
ATOM     61  C   UNL     1      -2.673  11.399 -13.801  0.00  0.00    +0.000 C 
ATOM     62  H   UNL     1      -2.741  11.576 -12.720  0.00  0.00    +0.000 HD
ATOM     63  H   UNL     1      -2.231  12.293 -14.249  0.00  0.00    +0.000 HD
BRANCH  61  64
ATOM     64  C   UNL     1      -4.118  11.386 -14.345  0.00  0.00    +0.000 C 
ATOM     65  H   UNL     1      -4.245  10.527 -15.013  0.00  0.00    +0.000 HD
BRANCH  64  66
ATOM     66  C   UNL     1      -5.160  11.285 -13.230  0.00  0.00    +0.000 C 
ATOM     67  H   UNL     1      -5.348  10.248 -12.942  0.00  0.00    +0.000 HD
ATOM     68  H   UNL     1      -6.119  11.698 -13.564  0.00  0.00    +0.000 HD
ATOM     69  H   UNL     1      -4.849  11.847 -12.345  0.00  0.00    +0.000 HD
ENDBRANCH  64  66
BRANCH  64  70
ATOM     70  C   UNL     1      -4.368  12.654 -15.168  0.00  0.00    +0.000 C 
ATOM     71  H   UNL     1      -3.490  12.920 -15.767  0.00  0.00    +0.000 HD
ATOM     72  H   UNL     1      -4.603  13.501 -14.515  0.00  0.00    +0.000 HD
ATOM     73  H   UNL     1      -5.215  12.516 -15.849  0.00  0.00    +0.000 HD
ENDBRANCH  64  70
ENDBRANCH  61  64
ENDBRANCH  41  61
ENDBRANCH   3  41
TORSDOF 19
ENDMDL
MODEL 3
REMARK VINA RESULT:    -5.531     20.744     24.527
REMARK INTER + INTRA:         -11.787
REMARK INTER:                 -10.210
REMARK INTRA:                  -1.577
REMARK UNBOUND:                -1.567
REMARK  Name = 10390702
REMARK  19 active torsions:
REMARK  status: ('A' for Active; 'I' for Inactive)
REMARK    1  A    between atoms: O_3  and  C_26
REMARK    2  A    between atoms: O_4  and  C_27
REMARK    3  A    between atoms: O_5  and  C_33
REMARK    4  A    between atoms: C_8  and  C_11
REMARK    5  A    between atoms: C_9  and  C_14
REMARK    6  A    between atoms: C_9  and  C_15
REMARK    7  A    between atoms: C_10  and  C_13
REMARK    8  A    between atoms: C_12  and  C_18
REMARK    9  A    between atoms: C_12  and  C_20
REMARK   10  A    between atoms: C_13  and  C_21
REMARK   11  A    between atoms: C_18  and  C_22
REMARK   12  A    between atoms: C_18  and  C_23
REMARK   13  A    between atoms: C_21  and  C_25
REMARK   14  A    between atoms: C_22  and  C_24
REMARK   15  A    between atoms: C_24  and  C_28
REMARK   16  A    between atoms: C_24  and  C_29
REMARK   17  A    between atoms: C_25  and  C_30
REMARK   18  A    between atoms: C_31  and  C_35
REMARK   19  A    between atoms: C_32  and  C_34
REMARK                            x       y       z     vdW  Elec       q    Type
REMARK                         _______ _______ _______ _____ _____    ______ ____
ROOT
ATOM      1  O   UNL     1      14.000  15.909   1.424  0.00  0.00    +0.000 OA
ATOM      2  C   UNL     1      13.458  14.030   2.866  0.00  0.00    +0.000 C 
ATOM      3  C   UNL     1      12.661  14.116   4.194  0.00  0.00    +0.000 C 
ATOM      4  C   UNL     1      13.241  15.391   4.843  0.00  0.00    +0.000 C 
ATOM      5  C   UNL     1      13.661  15.494   2.526  0.00  0.00    +0.000 C 
ATOM      6  C   UNL     1      13.397  16.394   3.705  0.00  0.00    +0.000 C 
ATOM      7  H   UNL     1      14.469  13.701   3.103  0.00  0.00    +0.000 HD
ATOM      8  H   UNL     1      12.579  15.930   5.514  0.00  0.00    +0.000 HD
ATOM      9  H   UNL     1      14.236  15.324   5.283  0.00  0.00    +0.000 HD
ATOM     10  H   UNL     1      12.474  16.955   3.523  0.00  0.00    +0.000 HD
ATOM     11  H   UNL     1      14.233  17.077   3.872  0.00  0.00    +0.000 HD
ENDROOT
BRANCH   2  12
ATOM     12  C   UNL     1      12.819  13.240   1.768  0.00  0.00    +0.000 C 
ATOM     13  C   UNL     1      13.107  11.775   1.613  0.00  0.00    +0.000 C 
ATOM     14  C   UNL     1      13.670  12.759   0.630  0.00  0.00    +0.000 C 
ATOM     15  H   UNL     1      11.849  13.617   1.468  0.00  0.00    +0.000 HD
ATOM     16  H   UNL     1      13.237  12.810  -0.364  0.00  0.00    +0.000 HD
BRANCH  13  17
ATOM     17  C   UNL     1      14.018  11.146   2.611  0.00  0.00    +0.000 C 
ATOM     18  H   UNL     1      13.591  11.286   3.613  0.00  0.00    +0.000 HD
ATOM     19  H   UNL     1      14.215  10.078   2.535  0.00  0.00    +0.000 HD
ATOM     20  H   UNL     1      14.978  11.668   2.618  0.00  0.00    +0.000 HD
ENDBRANCH  13  17
BRANCH  13  21
ATOM     21  C   UNL     1      12.021  10.872   1.136  0.00  0.00    +0.000 C 
ATOM     22  H   UNL     1      11.079  11.421   1.034  0.00  0.00    +0.000 HD
ATOM     23  H   UNL     1      12.275  10.443   0.161  0.00  0.00    +0.000 HD
ATOM     24  H   UNL     1      11.845  10.037   1.825  0.00  0.00    +0.000 HD
ENDBRANCH  13  21
BRANCH  14  25
ATOM     25  C   UNL     1      15.118  13.085   0.632  0.00  0.00    +0.000 C 
ATOM     26  H   UNL     1      15.697  12.747   1.494  0.00  0.00    +0.000 HD
ATOM     27  H   UNL     1      15.223  14.167   0.548  0.00  0.00    +0.000 HD
BRANCH  25  28
ATOM     28  C   UNL     1      15.812  12.646  -0.661  0.00  0.00    +0.000 C 
ATOM     29  H   UNL     1      16.873  12.454  -0.463  0.00  0.00    +0.000 HD
ATOM     30  H   UNL     1      15.364  11.718  -1.034  0.00  0.00    +0.000 HD
BRANCH  28  32
ATOM     31  O   UNL     1      15.852  14.894  -1.552  0.00  0.00    +0.000 OA
ATOM     32  C   UNL     1      15.728  13.688  -1.762  0.00  0.00    +0.000 C 
BRANCH  32  33
ATOM     33  C   UNL     1      15.481  13.163  -3.153  0.00  0.00    +0.000 C 
ATOM     34  H   UNL     1      14.409  13.180  -3.365  0.00  0.00    +0.000 HD
ATOM     35  H   UNL     1      15.867  12.143  -3.234  0.00  0.00    +0.000 HD
ATOM     36  H   UNL     1      15.996  13.794  -3.883  0.00  0.00    +0.000 HD
ENDBRANCH  32  33
ENDBRANCH  28  32
ENDBRANCH  25  28
ENDBRANCH  14  25
ENDBRANCH   2  12
BRANCH   3  37
ATOM     37  C   UNL     1      11.140  14.269   3.998  0.00  0.00    +0.000 C 
ATOM     38  H   UNL     1      10.679  13.381   3.549  0.00  0.00    +0.000 HD
ATOM     39  H   UNL     1      10.587  14.546   4.899  0.00  0.00    +0.000 HD
ATOM     40  H   UNL     1      10.933  15.092   3.301  0.00  0.00    +0.000 HD
ENDBRANCH   3  37
BRANCH   3  41
ATOM     41  C   UNL     1      12.924  12.896   5.085  0.00  0.00    +0.000 C 
ATOM     42  H   UNL     1      13.150  12.061   4.420  0.00  0.00    +0.000 HD
BRANCH  41  43
ATOM     43  C   UNL     1      11.680  12.548   5.884  0.00  0.00    +0.000 A 
ATOM     44  C   UNL     1      10.828  11.535   5.442  0.00  0.00    +0.000 A 
ATOM     45  C   UNL     1      11.389  13.241   7.060  0.00  0.00    +0.000 A 
ATOM     46  C   UNL     1       9.686  11.215   6.176  0.00  0.00    +0.000 A 
ATOM     47  C   UNL     1      10.247  12.921   7.793  0.00  0.00    +0.000 A 
ATOM     48  C   UNL     1       9.396  11.908   7.352  0.00  0.00    +0.000 A 
BRANCH  46  50
ATOM     49  O   UNL     1       8.435   9.225   6.436  0.00  0.00    +0.000 OA
ATOM     50  C   UNL     1       8.796  10.156   5.715  0.00  0.00    +0.000 C 
ATOM     51  H   UNL     1       8.431  10.214   4.678  0.00  0.00    +0.000 HD
ENDBRANCH  46  50
BRANCH  47  53
ATOM     52  O   UNL     1       8.866  14.212   9.216  0.00  0.00    +0.000 OA
ATOM     53  C   UNL     1       9.943  13.646   9.021  0.00  0.00    +0.000 C 
ATOM     54  H   UNL     1      10.723  13.681   9.799  0.00  0.00    +0.000 HD
ENDBRANCH  47  53
BRANCH  48  55
ATOM     55  O   UNL     1       8.278  11.595   8.070  0.00  0.00    +0.000 OA
ATOM     56  H   UNL     1       7.481  11.807   7.558  0.00  0.00    +0.000 HD
ENDBRANCH  48  55
BRANCH  45  57
ATOM     57  O   UNL     1      12.224  14.231   7.488  0.00  0.00    +0.000 OA
ATOM     58  H   UNL     1      12.661  13.987   8.318  0.00  0.00    +0.000 HD
ENDBRANCH  45  57
BRANCH  44  59
ATOM     59  O   UNL     1      11.117  10.859   4.293  0.00  0.00    +0.000 OA
ATOM     60  H   UNL     1      11.106   9.900   4.441  0.00  0.00    +0.000 HD
ENDBRANCH  44  59
ENDBRANCH  41  43
BRANCH  41  61
ATOM     61  C   UNL     1      14.170  13.141   5.969  0.00  0.00    +0.000 C 
ATOM     62  H   UNL     1      14.471  14.194   5.917  0.00  0.00    +0.000 HD
ATOM     63  H   UNL     1      13.988  12.906   7.021  0.00  0.00    +0.000 HD
BRANCH  61  64
ATOM     64  C   UNL     1      15.414  12.300   5.610  0.00  0.00    +0.000 C 
ATOM     65  H   UNL     1      15.099  11.398   5.074  0.00  0.00    +0.000 HD
BRANCH  64  66
ATOM     66  C   UNL     1      16.399  13.064   4.724  0.00  0.00    +0.000 C 
ATOM     67  H   UNL     1      17.020  13.751   5.304  0.00  0.00    +0.000 HD
ATOM     68  H   UNL     1      15.860  13.672   3.989  0.00  0.00    +0.000 HD
ATOM     69  H   UNL     1      17.049  12.379   4.172  0.00  0.00    +0.000 HD
ENDBRANCH  64  66
BRANCH  64  70
ATOM     70  C   UNL     1      16.120  11.853   6.894  0.00  0.00    +0.000 C 
ATOM     71  H   UNL     1      17.021  11.270   6.671  0.00  0.00    +0.000 HD
ATOM     72  H   UNL     1      15.457  11.231   7.505  0.00  0.00    +0.000 HD
ATOM     73  H   UNL     1      16.416  12.716   7.499  0.00  0.00    +0.000 HD
ENDBRANCH  64  70
ENDBRANCH  61  64
ENDBRANCH  41  61
ENDBRANCH   3  41
TORSDOF 19
ENDMDL
MODEL 4
REMARK VINA RESULT:    -5.528     20.696     24.322
REMARK INTER + INTRA:         -11.780
REMARK INTER:                 -10.200
REMARK INTRA:                  -1.580
REMARK UNBOUND:                -1.567
REMARK  Name = 10390702
REMARK  19 active torsions:
REMARK  status: ('A' for Active; 'I' for Inactive)
REMARK    1  A    between atoms: O_3  and  C_26
REMARK    2  A    between atoms: O_4  and  C_27
REMARK    3  A    between atoms: O_5  and  C_33
REMARK    4  A    between atoms: C_8  and  C_11
REMARK    5  A    between atoms: C_9  and  C_14
REMARK    6  A    between atoms: C_9  and  C_15
REMARK    7  A    between atoms: C_10  and  C_13
REMARK    8  A    between atoms: C_12  and  C_18
REMARK    9  A    between atoms: C_12  and  C_20
REMARK   10  A    between atoms: C_13  and  C_21
REMARK   11  A    between atoms: C_18  and  C_22
REMARK   12  A    between atoms: C_18  and  C_23
REMARK   13  A    between atoms: C_21  and  C_25
REMARK   14  A    between atoms: C_22  and  C_24
REMARK   15  A    between atoms: C_24  and  C_28
REMARK   16  A    between atoms: C_24  and  C_29
REMARK   17  A    between atoms: C_25  and  C_30
REMARK   18  A    between atoms: C_31  and  C_35
REMARK   19  A    between atoms: C_32  and  C_34
REMARK                            x       y       z     vdW  Elec       q    Type
REMARK                         _______ _______ _______ _____ _____    ______ ____
ROOT
ATOM      1  O   UNL     1      14.003  15.910   1.408  0.00  0.00    +0.000 OA
ATOM      2  C   UNL     1      13.418  14.031   2.833  0.00  0.00    +0.000 C 
ATOM      3  C   UNL     1      12.600  14.121   4.148  0.00  0.00    +0.000 C 
ATOM      4  C   UNL     1      13.182  15.387   4.811  0.00  0.00    +0.000 C 
ATOM      5  C   UNL     1      13.642  15.494   2.503  0.00  0.00    +0.000 C 
ATOM      6  C   UNL     1      13.367  16.393   3.680  0.00  0.00    +0.000 C 
ATOM      7  H   UNL     1      14.421  13.691   3.086  0.00  0.00    +0.000 HD
ATOM      8  H   UNL     1      12.514  15.931   5.473  0.00  0.00    +0.000 HD
ATOM      9  H   UNL     1      14.169  15.308   5.268  0.00  0.00    +0.000 HD
ATOM     10  H   UNL     1      12.453  16.963   3.485  0.00  0.00    +0.000 HD
ATOM     11  H   UNL     1      14.207  17.066   3.863  0.00  0.00    +0.000 HD
ENDROOT
BRANCH   2  12
ATOM     12  C   UNL     1      12.790  13.252   1.721  0.00  0.00    +0.000 C 
ATOM     13  C   UNL     1      13.080  11.789   1.554  0.00  0.00    +0.000 C 
ATOM     14  C   UNL     1      13.651  12.783   0.586  0.00  0.00    +0.000 C 
ATOM     15  H   UNL     1      11.823  13.631   1.417  0.00  0.00    +0.000 HD
ATOM     16  H   UNL     1      13.228  12.844  -0.410  0.00  0.00    +0.000 HD
BRANCH  13  17
ATOM     17  C   UNL     1      13.983  11.150   2.555  0.00  0.00    +0.000 C 
ATOM     18  H   UNL     1      13.383  10.499   3.203  0.00  0.00    +0.000 HD
ATOM     19  H   UNL     1      14.795  10.520   2.195  0.00  0.00    +0.000 HD
ATOM     20  H   UNL     1      14.410  11.913   3.209  0.00  0.00    +0.000 HD
ENDBRANCH  13  17
BRANCH  13  21
ATOM     21  C   UNL     1      11.999  10.889   1.059  0.00  0.00    +0.000 C 
ATOM     22  H   UNL     1      11.224  10.761   1.822  0.00  0.00    +0.000 HD
ATOM     23  H   UNL     1      11.530  11.307   0.162  0.00  0.00    +0.000 HD
ATOM     24  H   UNL     1      12.376   9.893   0.799  0.00  0.00    +0.000 HD
ENDBRANCH  13  21
BRANCH  14  25
ATOM     25  C   UNL     1      15.100  13.109   0.605  0.00  0.00    +0.000 C 
ATOM     26  H   UNL     1      15.668  12.773   1.474  0.00  0.00    +0.000 HD
ATOM     27  H   UNL     1      15.204  14.191   0.521  0.00  0.00    +0.000 HD
BRANCH  25  28
ATOM     28  C   UNL     1      15.809  12.668  -0.679  0.00  0.00    +0.000 C 
ATOM     29  H   UNL     1      16.867  12.477  -0.468  0.00  0.00    +0.000 HD
ATOM     30  H   UNL     1      15.366  11.739  -1.055  0.00  0.00    +0.000 HD
BRANCH  28  32
ATOM     31  O   UNL     1      15.838  14.916  -1.571  0.00  0.00    +0.000 OA
ATOM     32  C   UNL     1      15.738  13.708  -1.783  0.00  0.00    +0.000 C 
BRANCH  32  33
ATOM     33  C   UNL     1      15.533  13.178  -3.179  0.00  0.00    +0.000 C 
ATOM     34  H   UNL     1      14.570  12.666  -3.238  0.00  0.00    +0.000 HD
ATOM     35  H   UNL     1      16.344  12.491  -3.433  0.00  0.00    +0.000 HD
ATOM     36  H   UNL     1      15.537  14.008  -3.892  0.00  0.00    +0.000 HD
ENDBRANCH  32  33
ENDBRANCH  28  32
ENDBRANCH  25  28
ENDBRANCH  14  25
ENDBRANCH   2  12
BRANCH   3  37
ATOM     37  C   UNL     1      11.084  14.289   3.927  0.00  0.00    +0.000 C 
ATOM     38  H   UNL     1      10.714  15.266   4.260  0.00  0.00    +0.000 HD
ATOM     39  H   UNL     1      10.746  14.105   2.903  0.00  0.00    +0.000 HD
ATOM     40  H   UNL     1      10.533  13.547   4.520  0.00  0.00    +0.000 HD
ENDBRANCH   3  37
BRANCH   3  41
ATOM     41  C   UNL     1      12.836  12.894   5.038  0.00  0.00    +0.000 C 
ATOM     42  H   UNL     1      13.080  12.063   4.375  0.00  0.00    +0.000 HD
BRANCH  41  43
ATOM     43  C   UNL     1      11.568  12.542   5.798  0.00  0.00    +0.000 A 
ATOM     44  C   UNL     1      11.240  13.233   6.965  0.00  0.00    +0.000 A 
ATOM     45  C   UNL     1      10.732  11.528   5.330  0.00  0.00    +0.000 A 
ATOM     46  C   UNL     1      10.076  12.911   7.662  0.00  0.00    +0.000 A 
ATOM     47  C   UNL     1       9.569  11.205   6.027  0.00  0.00    +0.000 A 
ATOM     48  C   UNL     1       9.240  11.897   7.193  0.00  0.00    +0.000 A 
BRANCH  46  50
ATOM     49  O   UNL     1       8.691  14.282   9.004  0.00  0.00    +0.000 OA
ATOM     50  C   UNL     1       9.732  13.633   8.881  0.00  0.00    +0.000 C 
ATOM     51  H   UNL     1      10.440  13.576   9.723  0.00  0.00    +0.000 HD
ENDBRANCH  46  50
BRANCH  47  53
ATOM     52  O   UNL     1       8.371   9.174   6.224  0.00  0.00    +0.000 OA
ATOM     53  C   UNL     1       8.696  10.145   5.537  0.00  0.00    +0.000 C 
ATOM     54  H   UNL     1       8.320  10.230   4.505  0.00  0.00    +0.000 HD
ENDBRANCH  47  53
BRANCH  48  55
ATOM     55  O   UNL     1       8.101  11.581   7.876  0.00  0.00    +0.000 OA
ATOM     56  H   UNL     1       7.352  11.508   7.262  0.00  0.00    +0.000 HD
ENDBRANCH  48  55
BRANCH  45  57
ATOM     57  O   UNL     1      11.057  10.854   4.189  0.00  0.00    +0.000 OA
ATOM     58  H   UNL     1      11.094  11.452   3.427  0.00  0.00    +0.000 HD
ENDBRANCH  45  57
BRANCH  44  59
ATOM     59  O   UNL     1      12.059  14.225   7.419  0.00  0.00    +0.000 OA
ATOM     60  H   UNL     1      11.561  15.042   7.579  0.00  0.00    +0.000 HD
ENDBRANCH  44  59
ENDBRANCH  41  43
BRANCH  41  61
ATOM     61  C   UNL     1      14.054  13.132   5.961  0.00  0.00    +0.000 C 
ATOM     62  H   UNL     1      14.339  14.191   5.947  0.00  0.00    +0.000 HD
ATOM     63  H   UNL     1      13.851  12.864   7.001  0.00  0.00    +0.000 HD
BRANCH  61  64
ATOM     64  C   UNL     1      15.321  12.323   5.609  0.00  0.00    +0.000 C 
ATOM     65  H   UNL     1      15.033  11.422   5.056  0.00  0.00    +0.000 HD
BRANCH  64  66
ATOM     66  C   UNL     1      16.302  13.120   4.748  0.00  0.00    +0.000 C 
ATOM     67  H   UNL     1      16.127  12.965   3.681  0.00  0.00    +0.000 HD
ATOM     68  H   UNL     1      17.332  12.802   4.947  0.00  0.00    +0.000 HD
ATOM     69  H   UNL     1      16.240  14.191   4.965  0.00  0.00    +0.000 HD
ENDBRANCH  64  66
BRANCH  64  70
ATOM     70  C   UNL     1      16.017  11.872   6.897  0.00  0.00    +0.000 C 
ATOM     71  H   UNL     1      15.610  10.922   7.259  0.00  0.00    +0.000 HD
ATOM     72  H   UNL     1      15.891  12.618   7.688  0.00  0.00    +0.000 HD
ATOM     73  H   UNL     1      17.093  11.740   6.734  0.00  0.00    +0.000 HD
ENDBRANCH  64  70
ENDBRANCH  61  64
ENDBRANCH  41  61
ENDBRANCH   3  41
TORSDOF 19
ENDMDL
MODEL 5
REMARK VINA RESULT:    -5.445     35.241     38.651
REMARK INTER + INTRA:         -11.628
REMARK INTER:                 -10.713
REMARK INTRA:                  -0.915
REMARK UNBOUND:                -1.567
REMARK  Name = 10390702
REMARK  19 active torsions:
REMARK  status: ('A' for Active; 'I' for Inactive)
REMARK    1  A    between atoms: O_3  and  C_26
REMARK    2  A    between atoms: O_4  and  C_27
REMARK    3  A    between atoms: O_5  and  C_33
REMARK    4  A    between atoms: C_8  and  C_11
REMARK    5  A    between atoms: C_9  and  C_14
REMARK    6  A    between atoms: C_9  and  C_15
REMARK    7  A    between atoms: C_10  and  C_13
REMARK    8  A    between atoms: C_12  and  C_18
REMARK    9  A    between atoms: C_12  and  C_20
REMARK   10  A    between atoms: C_13  and  C_21
REMARK   11  A    between atoms: C_18  and  C_22
REMARK   12  A    between atoms: C_18  and  C_23
REMARK   13  A    between atoms: C_21  and  C_25
REMARK   14  A    between atoms: C_22  and  C_24
REMARK   15  A    between atoms: C_24  and  C_28
REMARK   16  A    between atoms: C_24  and  C_29
REMARK   17  A    between atoms: C_25  and  C_30
REMARK   18  A    between atoms: C_31  and  C_35
REMARK   19  A    between atoms: C_32  and  C_34
REMARK                            x       y       z     vdW  Elec       q    Type
REMARK                         _______ _______ _______ _____ _____    ______ ____
ROOT
ATOM      1  O   UNL     1     -16.030  -4.861  20.233  0.00  0.00    +0.000 OA
ATOM      2  C   UNL     1     -16.192  -6.633  18.580  0.00  0.00    +0.000 C 
ATOM      3  C   UNL     1     -15.048  -7.604  18.186  0.00  0.00    +0.000 C 
ATOM      4  C   UNL     1     -13.824  -6.663  18.132  0.00  0.00    +0.000 C 
ATOM      5  C   UNL     1     -15.471  -5.643  19.474  0.00  0.00    +0.000 C 
ATOM      6  C   UNL     1     -13.974  -5.729  19.327  0.00  0.00    +0.000 C 
ATOM      7  H   UNL     1     -16.433  -6.029  17.706  0.00  0.00    +0.000 HD
ATOM      8  H   UNL     1     -12.860  -7.120  18.337  0.00  0.00    +0.000 HD
ATOM      9  H   UNL     1     -13.740  -5.996  17.274  0.00  0.00    +0.000 HD
ATOM     10  H   UNL     1     -13.552  -6.159  20.240  0.00  0.00    +0.000 HD
ATOM     11  H   UNL     1     -13.543  -4.744  19.134  0.00  0.00    +0.000 HD
ENDROOT
BRANCH   2  12
ATOM     12  C   UNL     1     -17.392  -7.259  19.218  0.00  0.00    +0.000 C 
ATOM     13  C   UNL     1     -18.524  -7.773  18.378  0.00  0.00    +0.000 C 
ATOM     14  C   UNL     1     -18.698  -6.522  19.186  0.00  0.00    +0.000 C 
ATOM     15  H   UNL     1     -17.179  -7.744  20.162  0.00  0.00    +0.000 HD
ATOM     16  H   UNL     1     -19.306  -6.560  20.084  0.00  0.00    +0.000 HD
BRANCH  13  17
ATOM     17  C   UNL     1     -18.382  -7.666  16.897  0.00  0.00    +0.000 C 
ATOM     18  H   UNL     1     -18.913  -6.767  16.558  0.00  0.00    +0.000 HD
ATOM     19  H   UNL     1     -17.382  -7.578  16.476  0.00  0.00    +0.000 HD
ATOM     20  H   UNL     1     -18.881  -8.509  16.415  0.00  0.00    +0.000 HD
ENDBRANCH  13  17
BRANCH  13  21
ATOM     21  C   UNL     1     -19.261  -8.990  18.825  0.00  0.00    +0.000 C 
ATOM     22  H   UNL     1     -18.563  -9.800  19.061  0.00  0.00    +0.000 HD
ATOM     23  H   UNL     1     -19.852  -8.775  19.722  0.00  0.00    +0.000 HD
ATOM     24  H   UNL     1     -19.951  -9.361  18.058  0.00  0.00    +0.000 HD
ENDBRANCH  13  21
BRANCH  14  25
ATOM     25  C   UNL     1     -18.755  -5.195  18.522  0.00  0.00    +0.000 C 
ATOM     26  H   UNL     1     -19.229  -5.157  17.540  0.00  0.00    +0.000 HD
ATOM     27  H   UNL     1     -17.736  -4.819  18.429  0.00  0.00    +0.000 HD
BRANCH  25  28
ATOM     28  C   UNL     1     -19.359  -4.119  19.429  0.00  0.00    +0.000 C 
ATOM     29  H   UNL     1     -18.769  -4.040  20.349  0.00  0.00    +0.000 HD
ATOM     30  H   UNL     1     -19.335  -3.145  18.928  0.00  0.00    +0.000 HD
BRANCH  28  32
ATOM     31  O   UNL     1     -21.124  -4.713  20.972  0.00  0.00    +0.000 OA
ATOM     32  C   UNL     1     -20.795  -4.413  19.825  0.00  0.00    +0.000 C 
BRANCH  32  33
ATOM     33  C   UNL     1     -21.818  -4.320  18.723  0.00  0.00    +0.000 C 
ATOM     34  H   UNL     1     -22.128  -5.325  18.425  0.00  0.00    +0.000 HD
ATOM     35  H   UNL     1     -21.389  -3.788  17.869  0.00  0.00    +0.000 HD
ATOM     36  H   UNL     1     -22.694  -3.771  19.078  0.00  0.00    +0.000 HD
ENDBRANCH  32  33
ENDBRANCH  28  32
ENDBRANCH  25  28
ENDBRANCH  14  25
ENDBRANCH   2  12
BRANCH   3  37
ATOM     37  C   UNL     1     -14.805  -8.727  19.213  0.00  0.00    +0.000 C 
ATOM     38  H   UNL     1     -14.458  -9.658  18.749  0.00  0.00    +0.000 HD
ATOM     39  H   UNL     1     -14.133  -8.462  20.034  0.00  0.00    +0.000 HD
ATOM     40  H   UNL     1     -15.745  -8.983  19.719  0.00  0.00    +0.000 HD
ENDBRANCH   3  37
BRANCH   3  41
ATOM     41  C   UNL     1     -15.298  -8.236  16.812  0.00  0.00    +0.000 C 
ATOM     42  H   UNL     1     -16.347  -8.533  16.785  0.00  0.00    +0.000 HD
BRANCH  41  43
ATOM     43  C   UNL     1     -14.445  -9.481  16.641  0.00  0.00    +0.000 A 
ATOM     44  C   UNL     1     -13.090  -9.361  16.328  0.00  0.00    +0.000 A 
ATOM     45  C   UNL     1     -15.015 -10.745  16.796  0.00  0.00    +0.000 A 
ATOM     46  C   UNL     1     -12.306 -10.504  16.172  0.00  0.00    +0.000 A 
ATOM     47  C   UNL     1     -14.232 -11.888  16.639  0.00  0.00    +0.000 A 
ATOM     48  C   UNL     1     -12.877 -11.768  16.327  0.00  0.00    +0.000 A 
BRANCH  46  50
ATOM     49  O   UNL     1     -10.479  -9.701  14.903  0.00  0.00    +0.000 OA
ATOM     50  C   UNL     1     -10.890 -10.379  15.845  0.00  0.00    +0.000 C 
ATOM     51  H   UNL     1     -10.171 -10.913  16.487  0.00  0.00    +0.000 HD
ENDBRANCH  46  50
BRANCH  47  53
ATOM     52  O   UNL     1     -14.353 -14.072  17.542  0.00  0.00    +0.000 OA
ATOM     53  C   UNL     1     -14.828 -13.209  16.802  0.00  0.00    +0.000 C 
ATOM     54  H   UNL     1     -15.743 -13.429  16.229  0.00  0.00    +0.000 HD
ENDBRANCH  47  53
BRANCH  48  55
ATOM     55  O   UNL     1     -12.111 -12.887  16.174  0.00  0.00    +0.000 OA
ATOM     56  H   UNL     1     -12.524 -13.640  16.625  0.00  0.00    +0.000 HD
ENDBRANCH  48  55
BRANCH  45  57
ATOM     57  O   UNL     1     -16.340 -10.858  17.101  0.00  0.00    +0.000 OA
ATOM     58  H   UNL     1     -16.470 -11.370  17.914  0.00  0.00    +0.000 HD
ENDBRANCH  45  57
BRANCH  44  59
ATOM     59  O   UNL     1     -12.536  -8.124  16.178  0.00  0.00    +0.000 OA
ATOM     60  H   UNL     1     -11.601  -8.189  15.926  0.00  0.00    +0.000 HD
ENDBRANCH  44  59
ENDBRANCH  41  43
BRANCH  41  61
ATOM     61  C   UNL     1     -15.078  -7.188  15.696  0.00  0.00    +0.000 C 
ATOM     62  H   UNL     1     -14.902  -6.198  16.134  0.00  0.00    +0.000 HD
ATOM     63  H   UNL     1     -14.216  -7.422  15.065  0.00  0.00    +0.000 HD
BRANCH  61  64
ATOM     64  C   UNL     1     -16.242  -7.033  14.692  0.00  0.00    +0.000 C 
ATOM     65  H   UNL     1     -17.122  -7.563  15.075  0.00  0.00    +0.000 HD
BRANCH  64  66
ATOM     66  C   UNL     1     -16.625  -5.570  14.464  0.00  0.00    +0.000 C 
ATOM     67  H   UNL     1     -16.929  -5.079  15.391  0.00  0.00    +0.000 HD
ATOM     68  H   UNL     1     -17.476  -5.500  13.777  0.00  0.00    +0.000 HD
ATOM     69  H   UNL     1     -15.796  -5.009  14.021  0.00  0.00    +0.000 HD
ENDBRANCH  64  66
BRANCH  64  70
ATOM     70  C   UNL     1     -15.858  -7.678  13.357  0.00  0.00    +0.000 C 
ATOM     71  H   UNL     1     -16.333  -8.658  13.237  0.00  0.00    +0.000 HD
ATOM     72  H   UNL     1     -14.774  -7.816  13.289  0.00  0.00    +0.000 HD
ATOM     73  H   UNL     1     -16.165  -7.047  12.516  0.00  0.00    +0.000 HD
ENDBRANCH  64  70
ENDBRANCH  61  64
ENDBRANCH  41  61
ENDBRANCH   3  41
TORSDOF 19
ENDMDL
MODEL 6
REMARK VINA RESULT:    -5.435     35.347     38.783
REMARK INTER + INTRA:         -11.610
REMARK INTER:                 -10.290
REMARK INTRA:                  -1.320
REMARK UNBOUND:                -1.567
REMARK  Name = 10390702
REMARK  19 active torsions:
REMARK  status: ('A' for Active; 'I' for Inactive)
REMARK    1  A    between atoms: O_3  and  C_26
REMARK    2  A    between atoms: O_4  and  C_27
REMARK    3  A    between atoms: O_5  and  C_33
REMARK    4  A    between atoms: C_8  and  C_11
REMARK    5  A    between atoms: C_9  and  C_14
REMARK    6  A    between atoms: C_9  and  C_15
REMARK    7  A    between atoms: C_10  and  C_13
REMARK    8  A    between atoms: C_12  and  C_18
REMARK    9  A    between atoms: C_12  and  C_20
REMARK   10  A    between atoms: C_13  and  C_21
REMARK   11  A    between atoms: C_18  and  C_22
REMARK   12  A    between atoms: C_18  and  C_23
REMARK   13  A    between atoms: C_21  and  C_25
REMARK   14  A    between atoms: C_22  and  C_24
REMARK   15  A    between atoms: C_24  and  C_28
REMARK   16  A    between atoms: C_24  and  C_29
REMARK   17  A    between atoms: C_25  and  C_30
REMARK   18  A    between atoms: C_31  and  C_35
REMARK   19  A    between atoms: C_32  and  C_34
REMARK                            x       y       z     vdW  Elec       q    Type
REMARK                         _______ _______ _______ _____ _____    ______ ____
ROOT
ATOM      1  O   UNL     1     -15.889  -4.855  20.227  0.00  0.00    +0.000 OA
ATOM      2  C   UNL     1     -16.025  -6.638  18.582  0.00  0.00    +0.000 C 
ATOM      3  C   UNL     1     -14.881  -7.625  18.229  0.00  0.00    +0.000 C 
ATOM      4  C   UNL     1     -13.645  -6.700  18.204  0.00  0.00    +0.000 C 
ATOM      5  C   UNL     1     -15.318  -5.650  19.490  0.00  0.00    +0.000 C 
ATOM      6  C   UNL     1     -13.818  -5.754  19.387  0.00  0.00    +0.000 C 
ATOM      7  H   UNL     1     -16.233  -6.038  17.697  0.00  0.00    +0.000 HD
ATOM      8  H   UNL     1     -12.693  -7.166  18.440  0.00  0.00    +0.000 HD
ATOM      9  H   UNL     1     -13.528  -6.040  17.344  0.00  0.00    +0.000 HD
ATOM     10  H   UNL     1     -13.429  -6.183  20.316  0.00  0.00    +0.000 HD
ATOM     11  H   UNL     1     -13.370  -4.776  19.200  0.00  0.00    +0.000 HD
ENDROOT
BRANCH   2  12
ATOM     12  C   UNL     1     -17.250  -7.245  19.189  0.00  0.00    +0.000 C 
ATOM     13  C   UNL     1     -18.369  -7.740  18.320  0.00  0.00    +0.000 C 
ATOM     14  C   UNL     1     -18.543  -6.486  19.125  0.00  0.00    +0.000 C 
ATOM     15  H   UNL     1     -17.069  -7.734  20.138  0.00  0.00    +0.000 HD
ATOM     16  H   UNL     1     -19.174  -6.516  20.007  0.00  0.00    +0.000 HD
BRANCH  13  17
ATOM     17  C   UNL     1     -18.188  -7.634  16.844  0.00  0.00    +0.000 C 
ATOM     18  H   UNL     1     -18.952  -6.954  16.445  0.00  0.00    +0.000 HD
ATOM     19  H   UNL     1     -17.243  -7.252  16.462  0.00  0.00    +0.000 HD
ATOM     20  H   UNL     1     -18.376  -8.603  16.376  0.00  0.00    +0.000 HD
ENDBRANCH  13  17
BRANCH  13  21
ATOM     21  C   UNL     1     -19.136  -8.945  18.747  0.00  0.00    +0.000 C 
ATOM     22  H   UNL     1     -18.649  -9.859  18.392  0.00  0.00    +0.000 HD
ATOM     23  H   UNL     1     -19.202  -8.993  19.839  0.00  0.00    +0.000 HD
ATOM     24  H   UNL     1     -20.161  -8.942  18.357  0.00  0.00    +0.000 HD
ENDBRANCH  13  21
BRANCH  14  25
ATOM     25  C   UNL     1     -18.562  -5.158  18.461  0.00  0.00    +0.000 C 
ATOM     26  H   UNL     1     -18.966  -5.121  17.448  0.00  0.00    +0.000 HD
ATOM     27  H   UNL     1     -17.541  -4.775  18.441  0.00  0.00    +0.000 HD
BRANCH  25  28
ATOM     28  C   UNL     1     -19.235  -4.089  19.326  0.00  0.00    +0.000 C 
ATOM     29  H   UNL     1     -18.673  -3.961  20.258  0.00  0.00    +0.000 HD
ATOM     30  H   UNL     1     -19.240  -3.127  18.801  0.00  0.00    +0.000 HD
BRANCH  28  32
ATOM     31  O   UNL     1     -21.020  -4.684  20.845  0.00  0.00    +0.000 OA
ATOM     32  C   UNL     1     -20.667  -4.436  19.693  0.00  0.00    +0.000 C 
BRANCH  32  33
ATOM     33  C   UNL     1     -21.654  -4.465  18.555  0.00  0.00    +0.000 C 
ATOM     34  H   UNL     1     -22.222  -3.532  18.540  0.00  0.00    +0.000 HD
ATOM     35  H   UNL     1     -22.328  -5.317  18.676  0.00  0.00    +0.000 HD
ATOM     36  H   UNL     1     -21.120  -4.569  17.606  0.00  0.00    +0.000 HD
ENDBRANCH  32  33
ENDBRANCH  28  32
ENDBRANCH  25  28
ENDBRANCH  14  25
ENDBRANCH   2  12
BRANCH   3  37
ATOM     37  C   UNL     1     -14.682  -8.743  19.270  0.00  0.00    +0.000 C 
ATOM     38  H   UNL     1     -15.305  -8.609  20.161  0.00  0.00    +0.000 HD
ATOM     39  H   UNL     1     -14.816  -9.758  18.885  0.00  0.00    +0.000 HD
ATOM     40  H   UNL     1     -13.645  -8.738  19.633  0.00  0.00    +0.000 HD
ENDBRANCH   3  37
BRANCH   3  41
ATOM     41  C   UNL     1     -15.098  -8.264  16.852  0.00  0.00    +0.000 C 
ATOM     42  H   UNL     1     -16.169  -8.445  16.752  0.00  0.00    +0.000 HD
BRANCH  41  43
ATOM     43  C   UNL     1     -14.378  -9.599  16.771  0.00  0.00    +0.000 A 
ATOM     44  C   UNL     1     -15.086 -10.787  16.963  0.00  0.00    +0.000 A 
ATOM     45  C   UNL     1     -13.009  -9.639  16.505  0.00  0.00    +0.000 A 
ATOM     46  C   UNL     1     -14.426 -12.012  16.887  0.00  0.00    +0.000 A 
ATOM     47  C   UNL     1     -12.348 -10.865  16.431  0.00  0.00    +0.000 A 
ATOM     48  C   UNL     1     -13.057 -12.052  16.621  0.00  0.00    +0.000 A 
BRANCH  46  50
ATOM     49  O   UNL     1     -15.791 -13.500  18.119  0.00  0.00    +0.000 OA
ATOM     50  C   UNL     1     -15.165 -13.253  17.087  0.00  0.00    +0.000 C 
ATOM     51  H   UNL     1     -15.162 -13.986  16.264  0.00  0.00    +0.000 HD
ENDBRANCH  46  50
BRANCH  47  53
ATOM     52  O   UNL     1     -10.418 -10.417  15.138  0.00  0.00    +0.000 OA
ATOM     53  C   UNL     1     -10.917 -10.906  16.153  0.00  0.00    +0.000 C 
ATOM     54  H   UNL     1     -10.268 -11.401  16.893  0.00  0.00    +0.000 HD
ENDBRANCH  47  53
BRANCH  48  55
ATOM     55  O   UNL     1     -12.410 -13.251  16.548  0.00  0.00    +0.000 OA
ATOM     56  H   UNL     1     -12.778 -13.788  15.828  0.00  0.00    +0.000 HD
ENDBRANCH  48  55
BRANCH  45  57
ATOM     57  O   UNL     1     -12.320  -8.477  16.319  0.00  0.00    +0.000 OA
ATOM     58  H   UNL     1     -12.635  -7.782  16.917  0.00  0.00    +0.000 HD
ENDBRANCH  45  57
BRANCH  44  59
ATOM     59  O   UNL     1     -16.425 -10.743  17.221  0.00  0.00    +0.000 OA
ATOM     60  H   UNL     1     -16.816  -9.916  16.895  0.00  0.00    +0.000 HD
ENDBRANCH  44  59
ENDBRANCH  41  43
BRANCH  41  61
ATOM     61  C   UNL     1     -14.683  -7.278  15.735  0.00  0.00    +0.000 C 
ATOM     62  H   UNL     1     -13.886  -6.615  16.092  0.00  0.00    +0.000 HD
ATOM     63  H   UNL     1     -14.307  -7.788  14.845  0.00  0.00    +0.000 HD
BRANCH  61  64
ATOM     64  C   UNL     1     -15.812  -6.372  15.196  0.00  0.00    +0.000 C 
ATOM     65  H   UNL     1     -16.714  -6.520  15.800  0.00  0.00    +0.000 HD
BRANCH  64  66
ATOM     66  C   UNL     1     -15.442  -4.889  15.242  0.00  0.00    +0.000 C 
ATOM     67  H   UNL     1     -14.981  -4.555  14.310  0.00  0.00    +0.000 HD
ATOM     68  H   UNL     1     -14.714  -4.701  16.039  0.00  0.00    +0.000 HD
ATOM     69  H   UNL     1     -16.321  -4.269  15.445  0.00  0.00    +0.000 HD
ENDBRANCH  64  66
BRANCH  64  70
ATOM     70  C   UNL     1     -16.148  -6.773  13.757  0.00  0.00    +0.000 C 
ATOM     71  H   UNL     1     -17.129  -7.257  13.696  0.00  0.00    +0.000 HD
ATOM     72  H   UNL     1     -15.402  -7.470  13.362  0.00  0.00    +0.000 HD
ATOM     73  H   UNL     1     -16.163  -5.896  13.100  0.00  0.00    +0.000 HD
ENDBRANCH  64  70
ENDBRANCH  61  64
ENDBRANCH  41  61
ENDBRANCH   3  41
TORSDOF 19
ENDMDL
MODEL 7
REMARK VINA RESULT:    -5.236      9.913     13.931
REMARK INTER + INTRA:         -11.242
REMARK INTER:                  -9.675
REMARK INTRA:                  -1.567
REMARK UNBOUND:                -1.567
REMARK  Name = 10390702
REMARK  19 active torsions:
REMARK  status: ('A' for Active; 'I' for Inactive)
REMARK    1  A    between atoms: O_3  and  C_26
REMARK    2  A    between atoms: O_4  and  C_27
REMARK    3  A    between atoms: O_5  and  C_33
REMARK    4  A    between atoms: C_8  and  C_11
REMARK    5  A    between atoms: C_9  and  C_14
REMARK    6  A    between atoms: C_9  and  C_15
REMARK    7  A    between atoms: C_10  and  C_13
REMARK    8  A    between atoms: C_12  and  C_18
REMARK    9  A    between atoms: C_12  and  C_20
REMARK   10  A    between atoms: C_13  and  C_21
REMARK   11  A    between atoms: C_18  and  C_22
REMARK   12  A    between atoms: C_18  and  C_23
REMARK   13  A    between atoms: C_21  and  C_25
REMARK   14  A    between atoms: C_22  and  C_24
REMARK   15  A    between atoms: C_24  and  C_28
REMARK   16  A    between atoms: C_24  and  C_29
REMARK   17  A    between atoms: C_25  and  C_30
REMARK   18  A    between atoms: C_31  and  C_35
REMARK   19  A    between atoms: C_32  and  C_34
REMARK                            x       y       z     vdW  Elec       q    Type
REMARK                         _______ _______ _______ _____ _____    ______ ____
ROOT
ATOM      1  O   UNL     1       2.441   0.834 -19.086  0.00  0.00    +0.000 OA
ATOM      2  C   UNL     1       2.309  -0.658 -17.173  0.00  0.00    +0.000 C 
ATOM      3  C   UNL     1       1.443  -0.424 -15.908  0.00  0.00    +0.000 C 
ATOM      4  C   UNL     1       1.645   1.084 -15.646  0.00  0.00    +0.000 C 
ATOM      5  C   UNL     1       2.156   0.660 -17.907  0.00  0.00    +0.000 C 
ATOM      6  C   UNL     1       1.608   1.746 -17.019  0.00  0.00    +0.000 C 
ATOM      7  H   UNL     1       3.355  -0.639 -16.870  0.00  0.00    +0.000 HD
ATOM      8  H   UNL     1       0.832   1.595 -15.139  0.00  0.00    +0.000 HD
ATOM      9  H   UNL     1       2.599   1.397 -15.220  0.00  0.00    +0.000 HD
ATOM     10  H   UNL     1       0.585   1.979 -17.334  0.00  0.00    +0.000 HD
ATOM     11  H   UNL     1       2.234   2.640 -17.061  0.00  0.00    +0.000 HD
ENDROOT
BRANCH   2  12
ATOM     12  C   UNL     1       1.953  -1.853 -18.000  0.00  0.00    +0.000 C 
ATOM     13  C   UNL     1       2.674  -3.156 -17.811  0.00  0.00    +0.000 C 
ATOM     14  C   UNL     1       2.923  -2.331 -19.040  0.00  0.00    +0.000 C 
ATOM     15  H   UNL     1       0.918  -1.869 -18.317  0.00  0.00    +0.000 HD
ATOM     16  H   UNL     1       2.507  -2.664 -19.984  0.00  0.00    +0.000 HD
BRANCH  13  17
ATOM     17  C   UNL     1       3.722  -3.212 -16.752  0.00  0.00    +0.000 C 
ATOM     18  H   UNL     1       4.700  -3.028 -17.215  0.00  0.00    +0.000 HD
ATOM     19  H   UNL     1       3.664  -2.505 -15.926  0.00  0.00    +0.000 HD
ATOM     20  H   UNL     1       3.773  -4.219 -16.333  0.00  0.00    +0.000 HD
ENDBRANCH  13  17
BRANCH  13  21
ATOM     21  C   UNL     1       1.919  -4.430 -17.979  0.00  0.00    +0.000 C 
ATOM     22  H   UNL     1       1.344  -4.660 -17.076  0.00  0.00    +0.000 HD
ATOM     23  H   UNL     1       1.222  -4.358 -18.820  0.00  0.00    +0.000 HD
ATOM     24  H   UNL     1       2.582  -5.281 -18.175  0.00  0.00    +0.000 HD
ENDBRANCH  13  21
BRANCH  14  25
ATOM     25  C   UNL     1       4.204  -1.601 -19.213  0.00  0.00    +0.000 C 
ATOM     26  H   UNL     1       4.624  -1.126 -18.325  0.00  0.00    +0.000 HD
ATOM     27  H   UNL     1       4.058  -0.837 -19.977  0.00  0.00    +0.000 HD
BRANCH  25  28
ATOM     28  C   UNL     1       5.273  -2.462 -19.893  0.00  0.00    +0.000 C 
ATOM     29  H   UNL     1       5.026  -3.522 -19.770  0.00  0.00    +0.000 HD
ATOM     30  H   UNL     1       5.306  -2.245 -20.966  0.00  0.00    +0.000 HD
BRANCH  28  32
ATOM     31  O   UNL     1       7.648  -2.876 -19.699  0.00  0.00    +0.000 OA
ATOM     32  C   UNL     1       6.663  -2.242 -19.322  0.00  0.00    +0.000 C 
BRANCH  32  33
ATOM     33  C   UNL     1       6.780  -1.189 -18.251  0.00  0.00    +0.000 C 
ATOM     34  H   UNL     1       7.506  -0.433 -18.558  0.00  0.00    +0.000 HD
ATOM     35  H   UNL     1       7.094  -1.655 -17.312  0.00  0.00    +0.000 HD
ATOM     36  H   UNL     1       5.810  -0.707 -18.099  0.00  0.00    +0.000 HD
ENDBRANCH  32  33
ENDBRANCH  28  32
ENDBRANCH  25  28
ENDBRANCH  14  25
ENDBRANCH   2  12
BRANCH   3  37
ATOM     37  C   UNL     1      -0.054  -0.727 -16.115  0.00  0.00    +0.000 C 
ATOM     38  H   UNL     1      -0.655   0.179 -16.252  0.00  0.00    +0.000 HD
ATOM     39  H   UNL     1      -0.272  -1.431 -16.923  0.00  0.00    +0.000 HD
ATOM     40  H   UNL     1      -0.463  -1.220 -15.223  0.00  0.00    +0.000 HD
ENDBRANCH   3  37
BRANCH   3  41
ATOM     41  C   UNL     1       1.954  -1.246 -14.719  0.00  0.00    +0.000 C 
ATOM     42  H   UNL     1       2.454  -2.124 -15.132  0.00  0.00    +0.000 HD
BRANCH  41  43
ATOM     43  C   UNL     1       0.790  -1.717 -13.864  0.00  0.00    +0.000 A 
ATOM     44  C   UNL     1       0.232  -0.861 -12.914  0.00  0.00    +0.000 A 
ATOM     45  C   UNL     1       0.280  -3.006 -14.027  0.00  0.00    +0.000 A 
ATOM     46  C   UNL     1      -0.837  -1.293 -12.129  0.00  0.00    +0.000 A 
ATOM     47  C   UNL     1      -0.788  -3.437 -13.242  0.00  0.00    +0.000 A 
ATOM     48  C   UNL     1      -1.347  -2.581 -12.293  0.00  0.00    +0.000 A 
BRANCH  46  50
ATOM     49  O   UNL     1      -2.622  -0.123 -11.110  0.00  0.00    +0.000 OA
ATOM     50  C   UNL     1      -1.422  -0.398 -11.137  0.00  0.00    +0.000 C 
ATOM     51  H   UNL     1      -0.748   0.031 -10.379  0.00  0.00    +0.000 HD
ENDBRANCH  46  50
BRANCH  47  53
ATOM     52  O   UNL     1      -1.290  -5.635 -12.522  0.00  0.00    +0.000 OA
ATOM     53  C   UNL     1      -1.321  -4.784 -13.413  0.00  0.00    +0.000 C 
ATOM     54  H   UNL     1      -1.766  -5.037 -14.389  0.00  0.00    +0.000 HD
ENDBRANCH  47  53
BRANCH  48  55
ATOM     55  O   UNL     1      -2.393  -3.004 -11.525  0.00  0.00    +0.000 OA
ATOM     56  H   UNL     1      -3.155  -2.414 -11.641  0.00  0.00    +0.000 HD
ENDBRANCH  48  55
BRANCH  45  57
ATOM     57  O   UNL     1       0.830  -3.840 -14.956  0.00  0.00    +0.000 OA
ATOM     58  H   UNL     1       0.204  -4.028 -15.672  0.00  0.00    +0.000 HD
ENDBRANCH  45  57
BRANCH  44  59
ATOM     59  O   UNL     1       0.733   0.398 -12.758  0.00  0.00    +0.000 OA
ATOM     60  H   UNL     1       0.510   0.756 -11.883  0.00  0.00    +0.000 HD
ENDBRANCH  44  59
ENDBRANCH  41  43
BRANCH  41  61
ATOM     61  C   UNL     1       3.007  -0.438 -13.925  0.00  0.00    +0.000 C 
ATOM     62  H   UNL     1       3.230   0.504 -14.441  0.00  0.00    +0.000 HD
ATOM     63  H   UNL     1       2.668  -0.184 -12.918  0.00  0.00    +0.000 HD
BRANCH  61  64
ATOM     64  C   UNL     1       4.357  -1.152 -13.694  0.00  0.00    +0.000 C 
ATOM     65  H   UNL     1       4.837  -0.737 -12.801  0.00  0.00    +0.000 HD
BRANCH  64  66
ATOM     66  C   UNL     1       4.192  -2.659 -13.494  0.00  0.00    +0.000 C 
ATOM     67  H   UNL     1       5.073  -3.212 -13.827  0.00  0.00    +0.000 HD
ATOM     68  H   UNL     1       3.345  -3.033 -14.079  0.00  0.00    +0.000 HD
ATOM     69  H   UNL     1       4.000  -2.900 -12.444  0.00  0.00    +0.000 HD
ENDBRANCH  64  66
BRANCH  64  70
ATOM     70  C   UNL     1       5.286  -0.891 -14.884  0.00  0.00    +0.000 C 
ATOM     71  H   UNL     1       5.927  -1.756 -15.086  0.00  0.00    +0.000 HD
ATOM     72  H   UNL     1       5.932  -0.028 -14.690  0.00  0.00    +0.000 HD
ATOM     73  H   UNL     1       4.710  -0.677 -15.791  0.00  0.00    +0.000 HD
ENDBRANCH  64  70
ENDBRANCH  61  64
ENDBRANCH  41  61
ENDBRANCH   3  41
TORSDOF 19
ENDMDL
MODEL 8
REMARK VINA RESULT:    -5.175     20.104     24.994
REMARK INTER + INTRA:         -11.129
REMARK INTER:                  -9.743
REMARK INTRA:                  -1.386
REMARK UNBOUND:                -1.567
REMARK  Name = 10390702
REMARK  19 active torsions:
REMARK  status: ('A' for Active; 'I' for Inactive)
REMARK    1  A    between atoms: O_3  and  C_26
REMARK    2  A    between atoms: O_4  and  C_27
REMARK    3  A    between atoms: O_5  and  C_33
REMARK    4  A    between atoms: C_8  and  C_11
REMARK    5  A    between atoms: C_9  and  C_14
REMARK    6  A    between atoms: C_9  and  C_15
REMARK    7  A    between atoms: C_10  and  C_13
REMARK    8  A    between atoms: C_12  and  C_18
REMARK    9  A    between atoms: C_12  and  C_20
REMARK   10  A    between atoms: C_13  and  C_21
REMARK   11  A    between atoms: C_18  and  C_22
REMARK   12  A    between atoms: C_18  and  C_23
REMARK   13  A    between atoms: C_21  and  C_25
REMARK   14  A    between atoms: C_22  and  C_24
REMARK   15  A    between atoms: C_24  and  C_28
REMARK   16  A    between atoms: C_24  and  C_29
REMARK   17  A    between atoms: C_25  and  C_30
REMARK   18  A    between atoms: C_31  and  C_35
REMARK   19  A    between atoms: C_32  and  C_34
REMARK                            x       y       z     vdW  Elec       q    Type
REMARK                         _______ _______ _______ _____ _____    ______ ____
ROOT
ATOM      1  O   UNL     1      -9.083   7.447  11.493  0.00  0.00    +0.000 OA
ATOM      2  C   UNL     1      -9.650   9.652  10.645  0.00  0.00    +0.000 C 
ATOM      3  C   UNL     1      -9.426  10.141   9.190  0.00  0.00    +0.000 C 
ATOM      4  C   UNL     1      -8.030   9.568   8.863  0.00  0.00    +0.000 C 
ATOM      5  C   UNL     1      -8.935   8.314  10.641  0.00  0.00    +0.000 C 
ATOM      6  C   UNL     1      -8.014   8.165   9.459  0.00  0.00    +0.000 C 
ATOM      7  H   UNL     1      -9.020  10.253  11.300  0.00  0.00    +0.000 HD
ATOM      8  H   UNL     1      -7.832   9.358   7.816  0.00  0.00    +0.000 HD
ATOM      9  H   UNL     1      -7.167  10.062   9.309  0.00  0.00    +0.000 HD
ATOM     10  H   UNL     1      -8.435   7.423   8.772  0.00  0.00    +0.000 HD
ATOM     11  H   UNL     1      -7.013   7.866   9.778  0.00  0.00    +0.000 HD
ENDROOT
BRANCH   2  12
ATOM     12  C   UNL     1     -11.073   9.573  11.099  0.00  0.00    +0.000 C 
ATOM     13  C   UNL     1     -11.733  10.750  11.756  0.00  0.00    +0.000 C 
ATOM     14  C   UNL     1     -11.366   9.545  12.570  0.00  0.00    +0.000 C 
ATOM     15  H   UNL     1     -11.679   8.894  10.513  0.00  0.00    +0.000 HD
ATOM     16  H   UNL     1     -12.155   8.879  12.902  0.00  0.00    +0.000 HD
BRANCH  13  17
ATOM     17  C   UNL     1     -10.925  11.996  11.901  0.00  0.00    +0.000 C 
ATOM     18  H   UNL     1      -9.936  11.729  12.295  0.00  0.00    +0.000 HD
ATOM     19  H   UNL     1     -10.723  12.590  11.011  0.00  0.00    +0.000 HD
ATOM     20  H   UNL     1     -11.380  12.648  12.648  0.00  0.00    +0.000 HD
ENDBRANCH  13  17
BRANCH  13  21
ATOM     21  C   UNL     1     -13.182  10.999  11.508  0.00  0.00    +0.000 C 
ATOM     22  H   UNL     1     -13.415  10.891  10.444  0.00  0.00    +0.000 HD
ATOM     23  H   UNL     1     -13.796  10.286  12.068  0.00  0.00    +0.000 HD
ATOM     24  H   UNL     1     -13.487  12.006  11.814  0.00  0.00    +0.000 HD
ENDBRANCH  13  21
BRANCH  14  25
ATOM     25  C   UNL     1     -10.231   9.596  13.527  0.00  0.00    +0.000 C 
ATOM     26  H   UNL     1      -9.344  10.146  13.209  0.00  0.00    +0.000 HD
ATOM     27  H   UNL     1      -9.937   8.572  13.758  0.00  0.00    +0.000 HD
BRANCH  25  28
ATOM     28  C   UNL     1     -10.666  10.073  14.915  0.00  0.00    +0.000 C 
ATOM     29  H   UNL     1     -11.198  11.027  14.827  0.00  0.00    +0.000 HD
ATOM     30  H   UNL     1     -11.349   9.345  15.368  0.00  0.00    +0.000 HD
BRANCH  28  32
ATOM     31  O   UNL     1      -8.891  11.346  15.953  0.00  0.00    +0.000 OA
ATOM     32  C   UNL     1      -9.498  10.280  15.864  0.00  0.00    +0.000 C 
BRANCH  32  33
ATOM     33  C   UNL     1      -9.111   9.092  16.707  0.00  0.00    +0.000 C 
ATOM     34  H   UNL     1      -8.643   9.437  17.632  0.00  0.00    +0.000 HD
ATOM     35  H   UNL     1      -8.420   8.456  16.147  0.00  0.00    +0.000 HD
ATOM     36  H   UNL     1     -10.003   8.511  16.957  0.00  0.00    +0.000 HD
ENDBRANCH  32  33
ENDBRANCH  28  32
ENDBRANCH  25  28
ENDBRANCH  14  25
ENDBRANCH   2  12
BRANCH   3  37
ATOM     37  C   UNL     1     -10.465   9.603   8.187  0.00  0.00    +0.000 C 
ATOM     38  H   UNL     1     -10.337   8.535   7.975  0.00  0.00    +0.000 HD
ATOM     39  H   UNL     1     -11.507   9.795   8.458  0.00  0.00    +0.000 HD
ATOM     40  H   UNL     1     -10.351  10.111   7.220  0.00  0.00    +0.000 HD
ENDBRANCH   3  37
BRANCH   3  41
ATOM     41  C   UNL     1      -9.408  11.672   9.111  0.00  0.00    +0.000 C 
ATOM     42  H   UNL     1     -10.116  12.036   9.857  0.00  0.00    +0.000 HD
BRANCH  41  43
ATOM     43  C   UNL     1      -9.877  12.134   7.742  0.00  0.00    +0.000 A 
ATOM     44  C   UNL     1      -9.011  12.070   6.649  0.00  0.00    +0.000 A 
ATOM     45  C   UNL     1     -11.173  12.625   7.576  0.00  0.00    +0.000 A 
ATOM     46  C   UNL     1      -9.442  12.493   5.392  0.00  0.00    +0.000 A 
ATOM     47  C   UNL     1     -11.603  13.049   6.320  0.00  0.00    +0.000 A 
ATOM     48  C   UNL     1     -10.737  12.983   5.227  0.00  0.00    +0.000 A 
BRANCH  46  50
ATOM     49  O   UNL     1      -7.771  11.479   4.059  0.00  0.00    +0.000 OA
ATOM     50  C   UNL     1      -8.537  12.425   4.250  0.00  0.00    +0.000 C 
ATOM     51  H   UNL     1      -8.561  13.260   3.531  0.00  0.00    +0.000 HD
ENDBRANCH  46  50
BRANCH  47  53
ATOM     52  O   UNL     1     -13.746  13.102   5.320  0.00  0.00    +0.000 OA
ATOM     53  C   UNL     1     -12.957  13.561   6.147  0.00  0.00    +0.000 C 
ATOM     54  H   UNL     1     -13.273  14.397   6.792  0.00  0.00    +0.000 HD
ENDBRANCH  47  53
BRANCH  48  55
ATOM     55  O   UNL     1     -11.159  13.399   3.997  0.00  0.00    +0.000 OA
ATOM     56  H   UNL     1     -12.122  13.512   3.994  0.00  0.00    +0.000 HD
ENDBRANCH  48  55
BRANCH  45  57
ATOM     57  O   UNL     1     -12.016  12.687   8.647  0.00  0.00    +0.000 OA
ATOM     58  H   UNL     1     -11.527  12.833   9.470  0.00  0.00    +0.000 HD
ENDBRANCH  45  57
BRANCH  44  59
ATOM     59  O   UNL     1      -7.745  11.589   6.815  0.00  0.00    +0.000 OA
ATOM     60  H   UNL     1      -7.698  10.647   6.586  0.00  0.00    +0.000 HD
ENDBRANCH  44  59
ENDBRANCH  41  43
BRANCH  41  61
ATOM     61  C   UNL     1      -8.008  12.209   9.490  0.00  0.00    +0.000 C 
ATOM     62  H   UNL     1      -7.657  11.733  10.414  0.00  0.00    +0.000 HD
ATOM     63  H   UNL     1      -7.260  12.010   8.718  0.00  0.00    +0.000 HD
BRANCH  61  64
ATOM     64  C   UNL     1      -7.920  13.735   9.710  0.00  0.00    +0.000 C 
ATOM     65  H   UNL     1      -8.815  14.212   9.297  0.00  0.00    +0.000 HD
BRANCH  64  66
ATOM     66  C   UNL     1      -7.817  14.106  11.189  0.00  0.00    +0.000 C 
ATOM     67  H   UNL     1      -8.495  14.922  11.452  0.00  0.00    +0.000 HD
ATOM     68  H   UNL     1      -6.804  14.449  11.429  0.00  0.00    +0.000 HD
ATOM     69  H   UNL     1      -8.034  13.246  11.830  0.00  0.00    +0.000 HD
ENDBRANCH  64  66
BRANCH  64  70
ATOM     70  C   UNL     1      -6.709  14.293   8.956  0.00  0.00    +0.000 C 
ATOM     71  H   UNL     1      -6.426  13.644   8.119  0.00  0.00    +0.000 HD
ATOM     72  H   UNL     1      -5.844  14.384   9.621  0.00  0.00    +0.000 HD
ATOM     73  H   UNL     1      -6.924  15.289   8.554  0.00  0.00    +0.000 HD
ENDBRANCH  64  70
ENDBRANCH  61  64
ENDBRANCH  41  61
ENDBRANCH   3  41
TORSDOF 19
ENDMDL
MODEL 9
REMARK VINA RESULT:    -5.163     21.187     24.177
REMARK INTER + INTRA:         -11.106
REMARK INTER:                  -9.487
REMARK INTRA:                  -1.619
REMARK UNBOUND:                -1.567
REMARK  Name = 10390702
REMARK  19 active torsions:
REMARK  status: ('A' for Active; 'I' for Inactive)
REMARK    1  A    between atoms: O_3  and  C_26
REMARK    2  A    between atoms: O_4  and  C_27
REMARK    3  A    between atoms: O_5  and  C_33
REMARK    4  A    between atoms: C_8  and  C_11
REMARK    5  A    between atoms: C_9  and  C_14
REMARK    6  A    between atoms: C_9  and  C_15
REMARK    7  A    between atoms: C_10  and  C_13
REMARK    8  A    between atoms: C_12  and  C_18
REMARK    9  A    between atoms: C_12  and  C_20
REMARK   10  A    between atoms: C_13  and  C_21
REMARK   11  A    between atoms: C_18  and  C_22
REMARK   12  A    between atoms: C_18  and  C_23
REMARK   13  A    between atoms: C_21  and  C_25
REMARK   14  A    between atoms: C_22  and  C_24
REMARK   15  A    between atoms: C_24  and  C_28
REMARK   16  A    between atoms: C_24  and  C_29
REMARK   17  A    between atoms: C_25  and  C_30
REMARK   18  A    between atoms: C_31  and  C_35
REMARK   19  A    between atoms: C_32  and  C_34
REMARK                            x       y       z     vdW  Elec       q    Type
REMARK                         _______ _______ _______ _____ _____    ______ ____
ROOT
ATOM      1  O   UNL     1      11.722  11.322   4.526  0.00  0.00    +0.000 OA
ATOM      2  C   UNL     1      13.196  12.927   3.453  0.00  0.00    +0.000 C 
ATOM      3  C   UNL     1      13.017  14.467   3.474  0.00  0.00    +0.000 C 
ATOM      4  C   UNL     1      11.494  14.623   3.269  0.00  0.00    +0.000 C 
ATOM      5  C   UNL     1      11.903  12.451   4.086  0.00  0.00    +0.000 C 
ATOM      6  C   UNL     1      10.854  13.531   4.119  0.00  0.00    +0.000 C 
ATOM      7  H   UNL     1      13.091  12.592   2.422  0.00  0.00    +0.000 HD
ATOM      8  H   UNL     1      11.043  15.516   3.693  0.00  0.00    +0.000 HD
ATOM      9  H   UNL     1      11.102  14.452   2.267  0.00  0.00    +0.000 HD
ATOM     10  H   UNL     1      10.707  13.851   5.155  0.00  0.00    +0.000 HD
ATOM     11  H   UNL     1       9.914  13.177   3.691  0.00  0.00    +0.000 HD
ENDROOT
BRANCH   2  12
ATOM     12  C   UNL     1      14.426  12.401   4.124  0.00  0.00    +0.000 C 
ATOM     13  C   UNL     1      15.673  12.132   3.333  0.00  0.00    +0.000 C 
ATOM     14  C   UNL     1      14.852  10.988   3.853  0.00  0.00    +0.000 C 
ATOM     15  H   UNL     1      14.518  12.701   5.160  0.00  0.00    +0.000 HD
ATOM     16  H   UNL     1      15.227  10.417   4.696  0.00  0.00    +0.000 HD
BRANCH  13  17
ATOM     17  C   UNL     1      15.641  12.443   1.876  0.00  0.00    +0.000 C 
ATOM     18  H   UNL     1      15.688  11.501   1.314  0.00  0.00    +0.000 HD
ATOM     19  H   UNL     1      14.774  12.966   1.475  0.00  0.00    +0.000 HD
ATOM     20  H   UNL     1      16.535  13.004   1.596  0.00  0.00    +0.000 HD
ENDBRANCH  13  17
BRANCH  13  21
ATOM     21  C   UNL     1      16.999  12.373   3.971  0.00  0.00    +0.000 C 
ATOM     22  H   UNL     1      17.408  13.339   3.658  0.00  0.00    +0.000 HD
ATOM     23  H   UNL     1      16.907  12.377   5.062  0.00  0.00    +0.000 HD
ATOM     24  H   UNL     1      17.732  11.602   3.706  0.00  0.00    +0.000 HD
ENDBRANCH  13  21
BRANCH  14  25
ATOM     25  C   UNL     1      14.039  10.160   2.927  0.00  0.00    +0.000 C 
ATOM     26  H   UNL     1      13.817  10.590   1.949  0.00  0.00    +0.000 HD
ATOM     27  H   UNL     1      13.097   9.924   3.423  0.00  0.00    +0.000 HD
BRANCH  25  28
ATOM     28  C   UNL     1      14.613   8.751   2.755  0.00  0.00    +0.000 C 
ATOM     29  H   UNL     1      15.480   8.624   3.413  0.00  0.00    +0.000 HD
ATOM     30  H   UNL     1      13.865   8.001   3.034  0.00  0.00    +0.000 HD
BRANCH  28  32
ATOM     31  O   UNL     1      14.390   7.812   0.538  0.00  0.00    +0.000 OA
ATOM     32  C   UNL     1      15.065   8.464   1.334  0.00  0.00    +0.000 C 
BRANCH  32  33
ATOM     33  C   UNL     1      16.406   9.026   0.938  0.00  0.00    +0.000 C 
ATOM     34  H   UNL     1      17.030   9.143   1.827  0.00  0.00    +0.000 HD
ATOM     35  H   UNL     1      16.267   9.990   0.442  0.00  0.00    +0.000 HD
ATOM     36  H   UNL     1      16.903   8.341   0.245  0.00  0.00    +0.000 HD
ENDBRANCH  32  33
ENDBRANCH  28  32
ENDBRANCH  25  28
ENDBRANCH  14  25
ENDBRANCH   2  12
BRANCH   3  37
ATOM     37  C   UNL     1      13.440  15.124   4.803  0.00  0.00    +0.000 C 
ATOM     38  H   UNL     1      14.042  14.458   5.432  0.00  0.00    +0.000 HD
ATOM     39  H   UNL     1      13.955  16.083   4.697  0.00  0.00    +0.000 HD
ATOM     40  H   UNL     1      12.552  15.370   5.400  0.00  0.00    +0.000 HD
ENDBRANCH   3  37
BRANCH   3  41
ATOM     41  C   UNL     1      13.782  15.136   2.326  0.00  0.00    +0.000 C 
ATOM     42  H   UNL     1      14.621  14.483   2.081  0.00  0.00    +0.000 HD
BRANCH  41  43
ATOM     43  C   UNL     1      14.337  16.478   2.773  0.00  0.00    +0.000 A 
ATOM     44  C   UNL     1      15.683  16.596   3.120  0.00  0.00    +0.000 A 
ATOM     45  C   UNL     1      13.500  17.593   2.837  0.00  0.00    +0.000 A 
ATOM     46  C   UNL     1      16.193  17.828   3.529  0.00  0.00    +0.000 A 
ATOM     47  C   UNL     1      14.009  18.825   3.247  0.00  0.00    +0.000 A 
ATOM     48  C   UNL     1      15.356  18.942   3.593  0.00  0.00    +0.000 A 
BRANCH  46  50
ATOM     49  O   UNL     1      18.143  17.222   4.722  0.00  0.00    +0.000 OA
ATOM     50  C   UNL     1      17.600  17.952   3.891  0.00  0.00    +0.000 C 
ATOM     51  H   UNL     1      18.190  18.729   3.381  0.00  0.00    +0.000 HD
ENDBRANCH  46  50
BRANCH  47  53
ATOM     52  O   UNL     1      12.461  20.377   2.357  0.00  0.00    +0.000 OA
ATOM     53  C   UNL     1      13.134  19.990   3.314  0.00  0.00    +0.000 C 
ATOM     54  H   UNL     1      13.086  20.537   4.269  0.00  0.00    +0.000 HD
ENDBRANCH  47  53
BRANCH  48  55
ATOM     55  O   UNL     1      15.854  20.148   3.994  0.00  0.00    +0.000 OA
ATOM     56  H   UNL     1      15.552  20.851   3.397  0.00  0.00    +0.000 HD
ENDBRANCH  48  55
BRANCH  45  57
ATOM     57  O   UNL     1      12.184  17.474   2.498  0.00  0.00    +0.000 OA
ATOM     58  H   UNL     1      11.629  17.349   3.282  0.00  0.00    +0.000 HD
ENDBRANCH  45  57
BRANCH  44  59
ATOM     59  O   UNL     1      16.498  15.504   3.055  0.00  0.00    +0.000 OA
ATOM     60  H   UNL     1      15.980  14.682   3.072  0.00  0.00    +0.000 HD
ENDBRANCH  44  59
ENDBRANCH  41  43
BRANCH  41  61
ATOM     61  C   UNL     1      12.882  15.235   1.072  0.00  0.00    +0.000 C 
ATOM     62  H   UNL     1      11.972  14.638   1.211  0.00  0.00    +0.000 HD
ATOM     63  H   UNL     1      12.569  16.260   0.861  0.00  0.00    +0.000 HD
BRANCH  61  64
ATOM     64  C   UNL     1      13.530  14.765  -0.248  0.00  0.00    +0.000 C 
ATOM     65  H   UNL     1      13.081  15.311  -1.086  0.00  0.00    +0.000 HD
BRANCH  64  66
ATOM     66  C   UNL     1      15.040  15.003  -0.275  0.00  0.00    +0.000 C 
ATOM     67  H   UNL     1      15.385  15.321  -1.261  0.00  0.00    +0.000 HD
ATOM     68  H   UNL     1      15.578  14.079  -0.036  0.00  0.00    +0.000 HD
ATOM     69  H   UNL     1      15.335  15.756   0.463  0.00  0.00    +0.000 HD
ENDBRANCH  64  66
BRANCH  64  70
ATOM     70  C   UNL     1      13.241  13.276  -0.461  0.00  0.00    +0.000 C 
ATOM     71  H   UNL     1      13.371  12.708   0.468  0.00  0.00    +0.000 HD
ATOM     72  H   UNL     1      13.916  12.852  -1.213  0.00  0.00    +0.000 HD
ATOM     73  H   UNL     1      12.215  13.122  -0.812  0.00  0.00    +0.000 HD
ENDBRANCH  64  70
ENDBRANCH  61  64
ENDBRANCH  41  61
ENDBRANCH   3  41
TORSDOF 19
ENDMDL
MODEL 10
REMARK VINA RESULT:    -5.158     20.122     24.986
REMARK INTER + INTRA:         -11.098
REMARK INTER:                  -9.714
REMARK INTRA:                  -1.384
REMARK UNBOUND:                -1.567
REMARK  Name = 10390702
REMARK  19 active torsions:
REMARK  status: ('A' for Active; 'I' for Inactive)
REMARK    1  A    between atoms: O_3  and  C_26
REMARK    2  A    between atoms: O_4  and  C_27
REMARK    3  A    between atoms: O_5  and  C_33
REMARK    4  A    between atoms: C_8  and  C_11
REMARK    5  A    between atoms: C_9  and  C_14
REMARK    6  A    between atoms: C_9  and  C_15
REMARK    7  A    between atoms: C_10  and  C_13
REMARK    8  A    between atoms: C_12  and  C_18
REMARK    9  A    between atoms: C_12  and  C_20
REMARK   10  A    between atoms: C_13  and  C_21
REMARK   11  A    between atoms: C_18  and  C_22
REMARK   12  A    between atoms: C_18  and  C_23
REMARK   13  A    between atoms: C_21  and  C_25
REMARK   14  A    between atoms: C_22  and  C_24
REMARK   15  A    between atoms: C_24  and  C_28
REMARK   16  A    between atoms: C_24  and  C_29
REMARK   17  A    between atoms: C_25  and  C_30
REMARK   18  A    between atoms: C_31  and  C_35
REMARK   19  A    between atoms: C_32  and  C_34
REMARK                            x       y       z     vdW  Elec       q    Type
REMARK                         _______ _______ _______ _____ _____    ______ ____
ROOT
ATOM      1  O   UNL     1      -9.104   7.472  11.526  0.00  0.00    +0.000 OA
ATOM      2  C   UNL     1      -9.655   9.677  10.667  0.00  0.00    +0.000 C 
ATOM      3  C   UNL     1      -9.420  10.159   9.212  0.00  0.00    +0.000 C 
ATOM      4  C   UNL     1      -8.024   9.580   8.896  0.00  0.00    +0.000 C 
ATOM      5  C   UNL     1      -8.947   8.336  10.672  0.00  0.00    +0.000 C 
ATOM      6  C   UNL     1      -8.017   8.179   9.496  0.00  0.00    +0.000 C 
ATOM      7  H   UNL     1      -9.028  10.277  11.324  0.00  0.00    +0.000 HD
ATOM      8  H   UNL     1      -7.820   9.366   7.851  0.00  0.00    +0.000 HD
ATOM      9  H   UNL     1      -7.161  10.072   9.346  0.00  0.00    +0.000 HD
ATOM     10  H   UNL     1      -8.437   7.436   8.810  0.00  0.00    +0.000 HD
ATOM     11  H   UNL     1      -7.020   7.877   9.823  0.00  0.00    +0.000 HD
ENDROOT
BRANCH   2  12
ATOM     12  C   UNL     1     -11.082   9.606  11.111  0.00  0.00    +0.000 C 
ATOM     13  C   UNL     1     -11.737  10.784  11.770  0.00  0.00    +0.000 C 
ATOM     14  C   UNL     1     -11.384   9.571  12.580  0.00  0.00    +0.000 C 
ATOM     15  H   UNL     1     -11.689   8.934  10.517  0.00  0.00    +0.000 HD
ATOM     16  H   UNL     1     -12.180   8.910  12.903  0.00  0.00    +0.000 HD
BRANCH  13  17
ATOM     17  C   UNL     1     -10.922  12.023  11.927  0.00  0.00    +0.000 C 
ATOM     18  H   UNL     1     -11.289  12.576  12.801  0.00  0.00    +0.000 HD
ATOM     19  H   UNL     1      -9.850  11.922  12.087  0.00  0.00    +0.000 HD
ATOM     20  H   UNL     1     -11.077  12.680  11.068  0.00  0.00    +0.000 HD
ENDBRANCH  13  17
BRANCH  13  21
ATOM     21  C   UNL     1     -13.183  11.044  11.515  0.00  0.00    +0.000 C 
ATOM     22  H   UNL     1     -13.463  10.714  10.508  0.00  0.00    +0.000 HD
ATOM     23  H   UNL     1     -13.805  10.506  12.237  0.00  0.00    +0.000 HD
ATOM     24  H   UNL     1     -13.433  12.108  11.595  0.00  0.00    +0.000 HD
ENDBRANCH  13  21
BRANCH  14  25
ATOM     25  C   UNL     1     -10.255   9.609  13.544  0.00  0.00    +0.000 C 
ATOM     26  H   UNL     1      -9.363  10.157  13.235  0.00  0.00    +0.000 HD
ATOM     27  H   UNL     1      -9.969   8.582  13.770  0.00  0.00    +0.000 HD
BRANCH  25  28
ATOM     28  C   UNL     1     -10.696  10.079  14.933  0.00  0.00    +0.000 C 
ATOM     29  H   UNL     1     -11.233  11.030  14.847  0.00  0.00    +0.000 HD
ATOM     30  H   UNL     1     -11.377   9.346  15.381  0.00  0.00    +0.000 HD
BRANCH  28  32
ATOM     31  O   UNL     1      -8.939  11.360  15.990  0.00  0.00    +0.000 OA
ATOM     32  C   UNL     1      -9.532  10.288  15.886  0.00  0.00    +0.000 C 
BRANCH  32  33
ATOM     33  C   UNL     1      -9.131   9.094  16.713  0.00  0.00    +0.000 C 
ATOM     34  H   UNL     1      -8.602   9.430  17.608  0.00  0.00    +0.000 HD
ATOM     35  H   UNL     1      -8.491   8.435  16.120  0.00  0.00    +0.000 HD
ATOM     36  H   UNL     1     -10.024   8.539  17.017  0.00  0.00    +0.000 HD
ENDBRANCH  32  33
ENDBRANCH  28  32
ENDBRANCH  25  28
ENDBRANCH  14  25
ENDBRANCH   2  12
BRANCH   3  37
ATOM     37  C   UNL     1     -10.454   9.623   8.203  0.00  0.00    +0.000 C 
ATOM     38  H   UNL     1     -11.326  10.279   8.101  0.00  0.00    +0.000 HD
ATOM     39  H   UNL     1     -10.054   9.398   7.211  0.00  0.00    +0.000 HD
ATOM     40  H   UNL     1     -10.850   8.659   8.549  0.00  0.00    +0.000 HD
ENDBRANCH   3  37
BRANCH   3  41
ATOM     41  C   UNL     1      -9.395  11.690   9.127  0.00  0.00    +0.000 C 
ATOM     42  H   UNL     1     -10.111  12.060   9.862  0.00  0.00    +0.000 HD
BRANCH  41  43
ATOM     43  C   UNL     1      -9.843  12.150   7.750  0.00  0.00    +0.000 A 
ATOM     44  C   UNL     1     -11.142  12.623   7.561  0.00  0.00    +0.000 A 
ATOM     45  C   UNL     1      -8.957  12.098   6.674  0.00  0.00    +0.000 A 
ATOM     46  C   UNL     1     -11.554  13.046   6.298  0.00  0.00    +0.000 A 
ATOM     47  C   UNL     1      -9.369  12.520   5.410  0.00  0.00    +0.000 A 
ATOM     48  C   UNL     1     -10.667  12.994   5.222  0.00  0.00    +0.000 A 
BRANCH  46  50
ATOM     49  O   UNL     1     -13.689  13.053   5.278  0.00  0.00    +0.000 OA
ATOM     50  C   UNL     1     -12.912  13.541   6.100  0.00  0.00    +0.000 C 
ATOM     51  H   UNL     1     -13.244  14.381   6.731  0.00  0.00    +0.000 HD
ENDBRANCH  46  50
BRANCH  47  53
ATOM     52  O   UNL     1      -7.663  11.528   4.104  0.00  0.00    +0.000 OA
ATOM     53  C   UNL     1      -8.442  12.466   4.285  0.00  0.00    +0.000 C 
ATOM     54  H   UNL     1      -8.450  13.309   3.576  0.00  0.00    +0.000 HD
ENDBRANCH  47  53
BRANCH  48  55
ATOM     55  O   UNL     1     -11.070  13.407   3.985  0.00  0.00    +0.000 OA
ATOM     56  H   UNL     1     -12.031  13.543   3.974  0.00  0.00    +0.000 HD
ENDBRANCH  48  55
BRANCH  45  57
ATOM     57  O   UNL     1      -7.688  11.634   6.862  0.00  0.00    +0.000 OA
ATOM     58  H   UNL     1      -7.482  11.548   7.805  0.00  0.00    +0.000 HD
ENDBRANCH  45  57
BRANCH  44  59
ATOM     59  O   UNL     1     -12.005  12.672   8.617  0.00  0.00    +0.000 OA
ATOM     60  H   UNL     1     -11.648  13.221   9.333  0.00  0.00    +0.000 HD
ENDBRANCH  44  59
ENDBRANCH  41  43
BRANCH  41  61
ATOM     61  C   UNL     1      -7.998  12.223   9.523  0.00  0.00    +0.000 C 
ATOM     62  H   UNL     1      -7.653  11.736  10.443  0.00  0.00    +0.000 HD
ATOM     63  H   UNL     1      -7.244  12.035   8.754  0.00  0.00    +0.000 HD
BRANCH  61  64
ATOM     64  C   UNL     1      -7.912  13.746   9.763  0.00  0.00    +0.000 C 
ATOM     65  H   UNL     1      -8.800  14.230   9.341  0.00  0.00    +0.000 HD
BRANCH  64  66
ATOM     66  C   UNL     1      -7.834  14.099  11.249  0.00  0.00    +0.000 C 
ATOM     67  H   UNL     1      -7.483  13.257  11.850  0.00  0.00    +0.000 HD
ATOM     68  H   UNL     1      -8.826  14.367  11.631  0.00  0.00    +0.000 HD
ATOM     69  H   UNL     1      -7.173  14.955  11.419  0.00  0.00    +0.000 HD
ENDBRANCH  64  66
BRANCH  64  70
ATOM     70  C   UNL     1      -6.688  14.313   9.037  0.00  0.00    +0.000 C 
ATOM     71  H   UNL     1      -6.419  15.303   9.421  0.00  0.00    +0.000 HD
ATOM     72  H   UNL     1      -6.882  14.407   7.963  0.00  0.00    +0.000 HD
ATOM     73  H   UNL     1      -5.821  13.655   9.160  0.00  0.00    +0.000 HD
ENDBRANCH  64  70
ENDBRANCH  61  64
ENDBRANCH  41  61
ENDBRANCH   3  41
TORSDOF 19
ENDMDL
