MODEL 1
REMARK VINA RESULT:    -5.190      0.000      0.000
REMARK INTER + INTRA:          -7.319
REMARK INTER:                  -6.689
REMARK INTRA:                  -0.630
REMARK UNBOUND:                -0.309
REMARK  Name = 637566
REMARK  8 active torsions:
REMARK  status: ('A' for Active; 'I' for Inactive)
REMARK    1  A    between atoms: O_1  and  C_11
REMARK    2  A    between atoms: C_2  and  C_3
REMARK    3  A    between atoms: C_2  and  C_4
REMARK    4  A    between atoms: C_3  and  C_5
REMARK    5  A    between atoms: C_4  and  C_7
REMARK    6  A    between atoms: C_6  and  C_9
REMARK    7  A    between atoms: C_6  and  C_10
REMARK    8  A    between atoms: C_8  and  C_11
REMARK                            x       y       z     vdW  Elec       q    Type
REMARK                         _______ _______ _______ _____ _____    ______ ____
ROOT
ATOM      1  C   UNL     1       5.935   8.166   1.310  0.00  0.00    +0.000 C 
ATOM      2  H   UNL     1       6.364   7.839   2.267  0.00  0.00    +0.000 HD
ATOM      3  H   UNL     1       5.514   7.264   0.846  0.00  0.00    +0.000 HD
ENDROOT
BRANCH   1   4
ATOM      4  C   UNL     1       4.802   9.169   1.566  0.00  0.00    +0.000 C 
ATOM      5  H   UNL     1       5.188  10.040   2.108  0.00  0.00    +0.000 HD
ATOM      6  H   UNL     1       4.045   8.726   2.225  0.00  0.00    +0.000 HD
BRANCH   4   7
ATOM      7  C   UNL     1       4.108   9.593   0.301  0.00  0.00    +0.000 C 
ATOM      8  C   UNL     1       4.101  10.809  -0.276  0.00  0.00    +0.000 C 
ATOM      9  H   UNL     1       3.553   8.792  -0.187  0.00  0.00    +0.000 HD
BRANCH   8  10
ATOM     10  C   UNL     1       3.333  11.042  -1.550  0.00  0.00    +0.000 C 
ATOM     11  H   UNL     1       2.796  11.996  -1.500  0.00  0.00    +0.000 HD
ATOM     12  H   UNL     1       3.984  11.074  -2.430  0.00  0.00    +0.000 HD
ATOM     13  H   UNL     1       2.604  10.240  -1.705  0.00  0.00    +0.000 HD
ENDBRANCH   8  10
BRANCH   8  14
ATOM     14  C   UNL     1       4.830  12.018   0.236  0.00  0.00    +0.000 C 
ATOM     15  H   UNL     1       4.694  12.860  -0.451  0.00  0.00    +0.000 HD
ATOM     16  H   UNL     1       4.493  12.335   1.226  0.00  0.00    +0.000 HD
ATOM     17  H   UNL     1       5.902  11.807   0.315  0.00  0.00    +0.000 HD
ENDBRANCH   8  14
ENDBRANCH   4   7
ENDBRANCH   1   4
BRANCH   1  18
ATOM     18  C   UNL     1       7.049   8.711   0.442  0.00  0.00    +0.000 C 
ATOM     19  C   UNL     1       7.273   8.352  -0.837  0.00  0.00    +0.000 C 
ATOM     20  H   UNL     1       6.602   7.607  -1.262  0.00  0.00    +0.000 HD
BRANCH  18  21
ATOM     21  C   UNL     1       7.964   9.699   1.119  0.00  0.00    +0.000 C 
ATOM     22  H   UNL     1       8.884   9.821   0.536  0.00  0.00    +0.000 HD
ATOM     23  H   UNL     1       8.236   9.343   2.118  0.00  0.00    +0.000 HD
ATOM     24  H   UNL     1       7.533  10.698   1.217  0.00  0.00    +0.000 HD
ENDBRANCH  18  21
BRANCH  19  25
ATOM     25  C   UNL     1       8.365   8.819  -1.745  0.00  0.00    +0.000 C 
ATOM     26  H   UNL     1       8.728   9.805  -1.443  0.00  0.00    +0.000 HD
ATOM     27  H   UNL     1       8.053   8.853  -2.792  0.00  0.00    +0.000 HD
BRANCH  25  28
ATOM     28  O   UNL     1       9.447   7.900  -1.663  0.00  0.00    +0.000 OA
ATOM     29  H   UNL     1       9.321   7.230  -2.357  0.00  0.00    +0.000 HD
ENDBRANCH  25  28
ENDBRANCH  19  25
ENDBRANCH   1  18
TORSDOF 8
ENDMDL
MODEL 2
REMARK VINA RESULT:    -5.023      2.860      5.060
REMARK INTER + INTRA:          -7.094
REMARK INTER:                  -6.656
REMARK INTRA:                  -0.438
REMARK UNBOUND:                -0.309
REMARK  Name = 637566
REMARK  8 active torsions:
REMARK  status: ('A' for Active; 'I' for Inactive)
REMARK    1  A    between atoms: O_1  and  C_11
REMARK    2  A    between atoms: C_2  and  C_3
REMARK    3  A    between atoms: C_2  and  C_4
REMARK    4  A    between atoms: C_3  and  C_5
REMARK    5  A    between atoms: C_4  and  C_7
REMARK    6  A    between atoms: C_6  and  C_9
REMARK    7  A    between atoms: C_6  and  C_10
REMARK    8  A    between atoms: C_8  and  C_11
REMARK                            x       y       z     vdW  Elec       q    Type
REMARK                         _______ _______ _______ _____ _____    ______ ____
ROOT
ATOM      1  C   UNL     1       6.640   9.779   0.556  0.00  0.00    +0.000 C 
ATOM      2  H   UNL     1       6.986  10.580   1.224  0.00  0.00    +0.000 HD
ATOM      3  H   UNL     1       7.271   9.843  -0.341  0.00  0.00    +0.000 HD
ENDROOT
BRANCH   1   4
ATOM      4  C   UNL     1       6.861   8.416   1.225  0.00  0.00    +0.000 C 
ATOM      5  H   UNL     1       7.667   7.875   0.716  0.00  0.00    +0.000 HD
ATOM      6  H   UNL     1       5.969   7.788   1.108  0.00  0.00    +0.000 HD
BRANCH   4   7
ATOM      7  C   UNL     1       7.142   8.533   2.697  0.00  0.00    +0.000 C 
ATOM      8  C   UNL     1       6.560   7.864   3.710  0.00  0.00    +0.000 C 
ATOM      9  H   UNL     1       7.921   9.254   2.943  0.00  0.00    +0.000 HD
BRANCH   8  10
ATOM     10  C   UNL     1       6.974   8.126   5.134  0.00  0.00    +0.000 C 
ATOM     11  H   UNL     1       6.383   8.946   5.556  0.00  0.00    +0.000 HD
ATOM     12  H   UNL     1       6.835   7.251   5.777  0.00  0.00    +0.000 HD
ATOM     13  H   UNL     1       8.032   8.403   5.175  0.00  0.00    +0.000 HD
ENDBRANCH   8  10
BRANCH   8  14
ATOM     14  C   UNL     1       5.494   6.816   3.561  0.00  0.00    +0.000 C 
ATOM     15  H   UNL     1       5.948   5.844   3.340  0.00  0.00    +0.000 HD
ATOM     16  H   UNL     1       4.876   6.701   4.455  0.00  0.00    +0.000 HD
ATOM     17  H   UNL     1       4.821   7.077   2.737  0.00  0.00    +0.000 HD
ENDBRANCH   8  14
ENDBRANCH   4   7
ENDBRANCH   1   4
BRANCH   1  18
ATOM     18  C   UNL     1       5.198  10.050   0.182  0.00  0.00    +0.000 C 
ATOM     19  C   UNL     1       4.728  11.230  -0.266  0.00  0.00    +0.000 C 
ATOM     20  H   UNL     1       5.447  12.044  -0.351  0.00  0.00    +0.000 HD
BRANCH  18  21
ATOM     21  C   UNL     1       4.257   8.888   0.377  0.00  0.00    +0.000 C 
ATOM     22  H   UNL     1       4.366   8.480   1.388  0.00  0.00    +0.000 HD
ATOM     23  H   UNL     1       4.482   8.092  -0.340  0.00  0.00    +0.000 HD
ATOM     24  H   UNL     1       3.203   9.157   0.271  0.00  0.00    +0.000 HD
ENDBRANCH  18  21
BRANCH  19  25
ATOM     25  C   UNL     1       3.319  11.583  -0.623  0.00  0.00    +0.000 C 
ATOM     26  H   UNL     1       3.132  12.648  -0.464  0.00  0.00    +0.000 HD
ATOM     27  H   UNL     1       2.586  10.998  -0.062  0.00  0.00    +0.000 HD
BRANCH  25  28
ATOM     28  O   UNL     1       3.116  11.295  -2.000  0.00  0.00    +0.000 OA
ATOM     29  H   UNL     1       3.844  10.721  -2.295  0.00  0.00    +0.000 HD
ENDBRANCH  25  28
ENDBRANCH  19  25
ENDBRANCH   1  18
TORSDOF 8
ENDMDL
MODEL 3
REMARK VINA RESULT:    -4.839     12.650     14.519
REMARK INTER + INTRA:          -6.845
REMARK INTER:                  -6.342
REMARK INTRA:                  -0.503
REMARK UNBOUND:                -0.309
REMARK  Name = 637566
REMARK  8 active torsions:
REMARK  status: ('A' for Active; 'I' for Inactive)
REMARK    1  A    between atoms: O_1  and  C_11
REMARK    2  A    between atoms: C_2  and  C_3
REMARK    3  A    between atoms: C_2  and  C_4
REMARK    4  A    between atoms: C_3  and  C_5
REMARK    5  A    between atoms: C_4  and  C_7
REMARK    6  A    between atoms: C_6  and  C_9
REMARK    7  A    between atoms: C_6  and  C_10
REMARK    8  A    between atoms: C_8  and  C_11
REMARK                            x       y       z     vdW  Elec       q    Type
REMARK                         _______ _______ _______ _____ _____    ______ ____
ROOT
ATOM      1  C   UNL     1      -1.423   6.804 -11.795  0.00  0.00    +0.000 C 
ATOM      2  H   UNL     1      -0.744   7.191 -11.023  0.00  0.00    +0.000 HD
ATOM      3  H   UNL     1      -1.123   5.761 -11.963  0.00  0.00    +0.000 HD
ENDROOT
BRANCH   1   4
ATOM      4  C   UNL     1      -2.867   6.831 -11.277  0.00  0.00    +0.000 C 
ATOM      5  H   UNL     1      -3.299   5.825 -11.321  0.00  0.00    +0.000 HD
ATOM      6  H   UNL     1      -3.493   7.447 -11.934  0.00  0.00    +0.000 HD
BRANCH   4   7
ATOM      7  C   UNL     1      -2.973   7.398  -9.889  0.00  0.00    +0.000 C 
ATOM      8  C   UNL     1      -2.947   8.691  -9.515  0.00  0.00    +0.000 C 
ATOM      9  H   UNL     1      -3.088   6.644  -9.111  0.00  0.00    +0.000 HD
BRANCH   8  10
ATOM     10  C   UNL     1      -3.060   9.066  -8.062  0.00  0.00    +0.000 C 
ATOM     11  H   UNL     1      -3.319  10.125  -7.961  0.00  0.00    +0.000 HD
ATOM     12  H   UNL     1      -3.828   8.486  -7.539  0.00  0.00    +0.000 HD
ATOM     13  H   UNL     1      -2.108   8.891  -7.551  0.00  0.00    +0.000 HD
ENDBRANCH   8  10
BRANCH   8  14
ATOM     14  C   UNL     1      -2.825   9.863 -10.448  0.00  0.00    +0.000 C 
ATOM     15  H   UNL     1      -2.385  10.718  -9.924  0.00  0.00    +0.000 HD
ATOM     16  H   UNL     1      -2.207   9.652 -11.324  0.00  0.00    +0.000 HD
ATOM     17  H   UNL     1      -3.814  10.156 -10.815  0.00  0.00    +0.000 HD
ENDBRANCH   8  14
ENDBRANCH   4   7
ENDBRANCH   1   4
BRANCH   1  18
ATOM     18  C   UNL     1      -1.214   7.602 -13.065  0.00  0.00    +0.000 C 
ATOM     19  C   UNL     1      -0.263   8.540 -13.237  0.00  0.00    +0.000 C 
ATOM     20  H   UNL     1       0.392   8.736 -12.389  0.00  0.00    +0.000 HD
BRANCH  18  21
ATOM     21  C   UNL     1      -2.193   7.308 -14.174  0.00  0.00    +0.000 C 
ATOM     22  H   UNL     1      -1.666   6.896 -15.042  0.00  0.00    +0.000 HD
ATOM     23  H   UNL     1      -2.702   8.226 -14.485  0.00  0.00    +0.000 HD
ATOM     24  H   UNL     1      -2.952   6.571 -13.903  0.00  0.00    +0.000 HD
ENDBRANCH  18  21
BRANCH  19  25
ATOM     25  C   UNL     1      -0.015   9.388 -14.444  0.00  0.00    +0.000 C 
ATOM     26  H   UNL     1       0.491  10.318 -14.169  0.00  0.00    +0.000 HD
ATOM     27  H   UNL     1      -0.934   9.622 -14.987  0.00  0.00    +0.000 HD
BRANCH  25  28
ATOM     28  O   UNL     1       0.825   8.670 -15.338  0.00  0.00    +0.000 OA
ATOM     29  H   UNL     1       1.450   8.148 -14.805  0.00  0.00    +0.000 HD
ENDBRANCH  25  28
ENDBRANCH  19  25
ENDBRANCH   1  18
TORSDOF 8
ENDMDL
MODEL 4
REMARK VINA RESULT:    -4.789      2.959      3.854
REMARK INTER + INTRA:          -6.778
REMARK INTER:                  -6.225
REMARK INTRA:                  -0.553
REMARK UNBOUND:                -0.309
REMARK  Name = 637566
REMARK  8 active torsions:
REMARK  status: ('A' for Active; 'I' for Inactive)
REMARK    1  A    between atoms: O_1  and  C_11
REMARK    2  A    between atoms: C_2  and  C_3
REMARK    3  A    between atoms: C_2  and  C_4
REMARK    4  A    between atoms: C_3  and  C_5
REMARK    5  A    between atoms: C_4  and  C_7
REMARK    6  A    between atoms: C_6  and  C_9
REMARK    7  A    between atoms: C_6  and  C_10
REMARK    8  A    between atoms: C_8  and  C_11
REMARK                            x       y       z     vdW  Elec       q    Type
REMARK                         _______ _______ _______ _____ _____    ______ ____
ROOT
ATOM      1  C   UNL     1       7.196   8.615   1.039  0.00  0.00    +0.000 C 
ATOM      2  H   UNL     1       7.871   7.813   0.712  0.00  0.00    +0.000 HD
ATOM      3  H   UNL     1       7.682   9.555   0.744  0.00  0.00    +0.000 HD
ENDROOT
BRANCH   1   4
ATOM      4  C   UNL     1       5.854   8.495   0.304  0.00  0.00    +0.000 C 
ATOM      5  H   UNL     1       5.187   7.820   0.852  0.00  0.00    +0.000 HD
ATOM      6  H   UNL     1       6.001   8.029  -0.678  0.00  0.00    +0.000 HD
BRANCH   4   7
ATOM      7  C   UNL     1       5.198   9.829   0.078  0.00  0.00    +0.000 C 
ATOM      8  C   UNL     1       4.148  10.360   0.731  0.00  0.00    +0.000 C 
ATOM      9  H   UNL     1       5.654  10.416  -0.719  0.00  0.00    +0.000 HD
BRANCH   8  10
ATOM     10  C   UNL     1       3.623  11.719   0.351  0.00  0.00    +0.000 C 
ATOM     11  H   UNL     1       3.436  12.318   1.248  0.00  0.00    +0.000 HD
ATOM     12  H   UNL     1       4.324  12.276  -0.279  0.00  0.00    +0.000 HD
ATOM     13  H   UNL     1       2.685  11.620  -0.204  0.00  0.00    +0.000 HD
ENDBRANCH   8  10
BRANCH   8  14
ATOM     14  C   UNL     1       3.414   9.711   1.870  0.00  0.00    +0.000 C 
ATOM     15  H   UNL     1       3.807   8.704   2.047  0.00  0.00    +0.000 HD
ATOM     16  H   UNL     1       3.494  10.270   2.806  0.00  0.00    +0.000 HD
ATOM     17  H   UNL     1       2.348   9.629   1.635  0.00  0.00    +0.000 HD
ENDBRANCH   8  14
ENDBRANCH   4   7
ENDBRANCH   1   4
BRANCH   1  18
ATOM     18  C   UNL     1       7.074   8.558   2.547  0.00  0.00    +0.000 C 
ATOM     19  C   UNL     1       6.093   7.923   3.217  0.00  0.00    +0.000 C 
ATOM     20  H   UNL     1       5.333   7.425   2.616  0.00  0.00    +0.000 HD
BRANCH  18  21
ATOM     21  C   UNL     1       8.137   9.314   3.304  0.00  0.00    +0.000 C 
ATOM     22  H   UNL     1       7.847   9.418   4.356  0.00  0.00    +0.000 HD
ATOM     23  H   UNL     1       8.264  10.316   2.883  0.00  0.00    +0.000 HD
ATOM     24  H   UNL     1       9.110   8.817   3.306  0.00  0.00    +0.000 HD
ENDBRANCH  18  21
BRANCH  19  25
ATOM     25  C   UNL     1       5.888   7.849   4.696  0.00  0.00    +0.000 C 
ATOM     26  H   UNL     1       6.844   7.895   5.225  0.00  0.00    +0.000 HD
ATOM     27  H   UNL     1       5.350   6.948   4.999  0.00  0.00    +0.000 HD
BRANCH  25  28
ATOM     28  O   UNL     1       5.100   8.961   5.100  0.00  0.00    +0.000 OA
ATOM     29  H   UNL     1       5.689   9.731   5.176  0.00  0.00    +0.000 HD
ENDBRANCH  25  28
ENDBRANCH  19  25
ENDBRANCH   1  18
TORSDOF 8
ENDMDL
MODEL 5
REMARK VINA RESULT:    -4.777     13.378     14.494
REMARK INTER + INTRA:          -6.762
REMARK INTER:                  -6.231
REMARK INTRA:                  -0.530
REMARK UNBOUND:                -0.309
REMARK  Name = 637566
REMARK  8 active torsions:
REMARK  status: ('A' for Active; 'I' for Inactive)
REMARK    1  A    between atoms: O_1  and  C_11
REMARK    2  A    between atoms: C_2  and  C_3
REMARK    3  A    between atoms: C_2  and  C_4
REMARK    4  A    between atoms: C_3  and  C_5
REMARK    5  A    between atoms: C_4  and  C_7
REMARK    6  A    between atoms: C_6  and  C_9
REMARK    7  A    between atoms: C_6  and  C_10
REMARK    8  A    between atoms: C_8  and  C_11
REMARK                            x       y       z     vdW  Elec       q    Type
REMARK                         _______ _______ _______ _____ _____    ______ ____
ROOT
ATOM      1  C   UNL     1      -1.032   9.804 -10.963  0.00  0.00    +0.000 C 
ATOM      2  H   UNL     1      -0.453  10.704 -10.716  0.00  0.00    +0.000 HD
ATOM      3  H   UNL     1      -0.487   8.964 -10.513  0.00  0.00    +0.000 HD
ENDROOT
BRANCH   1   4
ATOM      4  C   UNL     1      -2.426   9.893 -10.327  0.00  0.00    +0.000 C 
ATOM      5  H   UNL     1      -3.186  10.020 -11.106  0.00  0.00    +0.000 HD
ATOM      6  H   UNL     1      -2.498  10.789  -9.698  0.00  0.00    +0.000 HD
BRANCH   4   7
ATOM      7  C   UNL     1      -2.742   8.706  -9.460  0.00  0.00    +0.000 C 
ATOM      8  C   UNL     1      -3.192   7.495  -9.840  0.00  0.00    +0.000 C 
ATOM      9  H   UNL     1      -2.574   8.878  -8.397  0.00  0.00    +0.000 HD
BRANCH   8  10
ATOM     10  C   UNL     1      -3.462   6.427  -8.814  0.00  0.00    +0.000 C 
ATOM     11  H   UNL     1      -4.203   6.776  -8.088  0.00  0.00    +0.000 HD
ATOM     12  H   UNL     1      -3.847   5.505  -9.263  0.00  0.00    +0.000 HD
ATOM     13  H   UNL     1      -2.541   6.175  -8.279  0.00  0.00    +0.000 HD
ENDBRANCH   8  10
BRANCH   8  14
ATOM     14  C   UNL     1      -3.452   7.071 -11.257  0.00  0.00    +0.000 C 
ATOM     15  H   UNL     1      -2.510   6.816 -11.754  0.00  0.00    +0.000 HD
ATOM     16  H   UNL     1      -4.114   6.204 -11.331  0.00  0.00    +0.000 HD
ATOM     17  H   UNL     1      -3.926   7.885 -11.814  0.00  0.00    +0.000 HD
ENDBRANCH   8  14
ENDBRANCH   4   7
ENDBRANCH   1   4
BRANCH   1  18
ATOM     18  C   UNL     1      -1.056   9.644 -12.468  0.00  0.00    +0.000 C 
ATOM     19  C   UNL     1      -0.071   9.088 -13.199  0.00  0.00    +0.000 C 
ATOM     20  H   UNL     1       0.808   8.742 -12.655  0.00  0.00    +0.000 HD
BRANCH  18  21
ATOM     21  C   UNL     1      -2.283  10.193 -13.151  0.00  0.00    +0.000 C 
ATOM     22  H   UNL     1      -2.265  11.289 -13.134  0.00  0.00    +0.000 HD
ATOM     23  H   UNL     1      -3.188   9.857 -12.636  0.00  0.00    +0.000 HD
ATOM     24  H   UNL     1      -2.362   9.909 -14.203  0.00  0.00    +0.000 HD
ENDBRANCH  18  21
BRANCH  19  25
ATOM     25  C   UNL     1      -0.008   8.923 -14.684  0.00  0.00    +0.000 C 
ATOM     26  H   UNL     1       1.022   8.756 -15.014  0.00  0.00    +0.000 HD
ATOM     27  H   UNL     1      -0.424   9.781 -15.218  0.00  0.00    +0.000 HD
BRANCH  25  28
ATOM     28  O   UNL     1      -0.783   7.789 -15.047  0.00  0.00    +0.000 OA
ATOM     29  H   UNL     1      -1.675   8.100 -15.280  0.00  0.00    +0.000 HD
ENDBRANCH  25  28
ENDBRANCH  19  25
ENDBRANCH   1  18
TORSDOF 8
ENDMDL
MODEL 6
REMARK VINA RESULT:    -4.747     13.101     15.151
REMARK INTER + INTRA:          -6.721
REMARK INTER:                  -6.372
REMARK INTRA:                  -0.349
REMARK UNBOUND:                -0.309
REMARK  Name = 637566
REMARK  8 active torsions:
REMARK  status: ('A' for Active; 'I' for Inactive)
REMARK    1  A    between atoms: O_1  and  C_11
REMARK    2  A    between atoms: C_2  and  C_3
REMARK    3  A    between atoms: C_2  and  C_4
REMARK    4  A    between atoms: C_3  and  C_5
REMARK    5  A    between atoms: C_4  and  C_7
REMARK    6  A    between atoms: C_6  and  C_9
REMARK    7  A    between atoms: C_6  and  C_10
REMARK    8  A    between atoms: C_8  and  C_11
REMARK                            x       y       z     vdW  Elec       q    Type
REMARK                         _______ _______ _______ _____ _____    ______ ____
ROOT
ATOM      1  C   UNL     1      -4.610   6.792 -10.989  0.00  0.00    +0.000 C 
ATOM      2  H   UNL     1      -4.815   7.823 -11.306  0.00  0.00    +0.000 HD
ATOM      3  H   UNL     1      -4.494   6.211 -11.913  0.00  0.00    +0.000 HD
ENDROOT
BRANCH   1   4
ATOM      4  C   UNL     1      -3.293   6.743 -10.202  0.00  0.00    +0.000 C 
ATOM      5  H   UNL     1      -2.819   5.763 -10.324  0.00  0.00    +0.000 HD
ATOM      6  H   UNL     1      -3.491   6.841  -9.127  0.00  0.00    +0.000 HD
BRANCH   4   7
ATOM      7  C   UNL     1      -2.347   7.846 -10.589  0.00  0.00    +0.000 C 
ATOM      8  C   UNL     1      -2.181   9.044  -9.999  0.00  0.00    +0.000 C 
ATOM      9  H   UNL     1      -1.730   7.614 -11.457  0.00  0.00    +0.000 HD
BRANCH   8  10
ATOM     10  C   UNL     1      -1.180  10.029 -10.542  0.00  0.00    +0.000 C 
ATOM     11  H   UNL     1      -0.930  10.776  -9.782  0.00  0.00    +0.000 HD
ATOM     12  H   UNL     1      -0.246   9.546 -10.852  0.00  0.00    +0.000 HD
ATOM     13  H   UNL     1      -1.592  10.544 -11.415  0.00  0.00    +0.000 HD
ENDBRANCH   8  10
BRANCH   8  14
ATOM     14  C   UNL     1      -2.918   9.523  -8.780  0.00  0.00    +0.000 C 
ATOM     15  H   UNL     1      -2.988  10.615  -8.786  0.00  0.00    +0.000 HD
ATOM     16  H   UNL     1      -3.932   9.122  -8.708  0.00  0.00    +0.000 HD
ATOM     17  H   UNL     1      -2.387   9.216  -7.873  0.00  0.00    +0.000 HD
ENDBRANCH   8  14
ENDBRANCH   4   7
ENDBRANCH   1   4
BRANCH   1  18
ATOM     18  C   UNL     1      -5.804   6.278 -10.213  0.00  0.00    +0.000 C 
ATOM     19  C   UNL     1      -5.805   6.005  -8.894  0.00  0.00    +0.000 C 
ATOM     20  H   UNL     1      -4.868   6.158  -8.360  0.00  0.00    +0.000 HD
BRANCH  18  21
ATOM     21  C   UNL     1      -7.047   6.043 -11.033  0.00  0.00    +0.000 C 
ATOM     22  H   UNL     1      -7.701   6.921 -10.986  0.00  0.00    +0.000 HD
ATOM     23  H   UNL     1      -7.601   5.182 -10.646  0.00  0.00    +0.000 HD
ATOM     24  H   UNL     1      -6.846   5.872 -12.093  0.00  0.00    +0.000 HD
ENDBRANCH  18  21
BRANCH  19  25
ATOM     25  C   UNL     1      -6.930   5.468  -8.067  0.00  0.00    +0.000 C 
ATOM     26  H   UNL     1      -6.719   4.445  -7.740  0.00  0.00    +0.000 HD
ATOM     27  H   UNL     1      -7.885   5.488  -8.597  0.00  0.00    +0.000 HD
BRANCH  25  28
ATOM     28  O   UNL     1      -7.075   6.285  -6.914  0.00  0.00    +0.000 OA
ATOM     29  H   UNL     1      -6.805   5.760  -6.141  0.00  0.00    +0.000 HD
ENDBRANCH  25  28
ENDBRANCH  19  25
ENDBRANCH   1  18
TORSDOF 8
ENDMDL
MODEL 7
REMARK VINA RESULT:    -4.610     14.967     16.309
REMARK INTER + INTRA:          -6.536
REMARK INTER:                  -6.081
REMARK INTRA:                  -0.455
REMARK UNBOUND:                -0.309
REMARK  Name = 637566
REMARK  8 active torsions:
REMARK  status: ('A' for Active; 'I' for Inactive)
REMARK    1  A    between atoms: O_1  and  C_11
REMARK    2  A    between atoms: C_2  and  C_3
REMARK    3  A    between atoms: C_2  and  C_4
REMARK    4  A    between atoms: C_3  and  C_5
REMARK    5  A    between atoms: C_4  and  C_7
REMARK    6  A    between atoms: C_6  and  C_9
REMARK    7  A    between atoms: C_6  and  C_10
REMARK    8  A    between atoms: C_8  and  C_11
REMARK                            x       y       z     vdW  Elec       q    Type
REMARK                         _______ _______ _______ _____ _____    ______ ____
ROOT
ATOM      1  C   UNL     1      -9.221  11.174   5.908  0.00  0.00    +0.000 C 
ATOM      2  H   UNL     1      -9.481  12.201   6.196  0.00  0.00    +0.000 HD
ATOM      3  H   UNL     1      -9.968  10.873   5.161  0.00  0.00    +0.000 HD
ENDROOT
BRANCH   1   4
ATOM      4  C   UNL     1      -7.831  11.154   5.257  0.00  0.00    +0.000 C 
ATOM      5  H   UNL     1      -7.842  10.514   4.368  0.00  0.00    +0.000 HD
ATOM      6  H   UNL     1      -7.101  10.697   5.937  0.00  0.00    +0.000 HD
BRANCH   4   7
ATOM      7  C   UNL     1      -7.331  12.531   4.918  0.00  0.00    +0.000 C 
ATOM      8  C   UNL     1      -6.816  13.456   5.749  0.00  0.00    +0.000 C 
ATOM      9  H   UNL     1      -7.406  12.780   3.860  0.00  0.00    +0.000 HD
BRANCH   8  10
ATOM     10  C   UNL     1      -6.374  14.794   5.219  0.00  0.00    +0.000 C 
ATOM     11  H   UNL     1      -6.199  14.737   4.140  0.00  0.00    +0.000 HD
ATOM     12  H   UNL     1      -7.119  15.579   5.393  0.00  0.00    +0.000 HD
ATOM     13  H   UNL     1      -5.445  15.106   5.707  0.00  0.00    +0.000 HD
ENDBRANCH   8  10
BRANCH   8  14
ATOM     14  C   UNL     1      -6.610  13.279   7.227  0.00  0.00    +0.000 C 
ATOM     15  H   UNL     1      -6.695  12.221   7.496  0.00  0.00    +0.000 HD
ATOM     16  H   UNL     1      -5.635  13.634   7.570  0.00  0.00    +0.000 HD
ATOM     17  H   UNL     1      -7.369  13.838   7.783  0.00  0.00    +0.000 HD
ENDBRANCH   8  14
ENDBRANCH   4   7
ENDBRANCH   1   4
BRANCH   1  18
ATOM     18  C   UNL     1      -9.337  10.286   7.128  0.00  0.00    +0.000 C 
ATOM     19  C   UNL     1      -8.337  10.035   7.995  0.00  0.00    +0.000 C 
ATOM     20  H   UNL     1      -7.376  10.503   7.785  0.00  0.00    +0.000 HD
BRANCH  18  21
ATOM     21  C   UNL     1     -10.683   9.634   7.320  0.00  0.00    +0.000 C 
ATOM     22  H   UNL     1     -10.638   8.914   8.145  0.00  0.00    +0.000 HD
ATOM     23  H   UNL     1     -10.979   9.098   6.413  0.00  0.00    +0.000 HD
ATOM     24  H   UNL     1     -11.477  10.339   7.576  0.00  0.00    +0.000 HD
ENDBRANCH  18  21
BRANCH  19  25
ATOM     25  C   UNL     1      -8.365   9.148   9.199  0.00  0.00    +0.000 C 
ATOM     26  H   UNL     1      -9.391   8.874   9.457  0.00  0.00    +0.000 HD
ATOM     27  H   UNL     1      -7.883   9.606  10.067  0.00  0.00    +0.000 HD
BRANCH  25  28
ATOM     28  O   UNL     1      -7.645   7.959   8.903  0.00  0.00    +0.000 OA
ATOM     29  H   UNL     1      -6.774   8.216   8.554  0.00  0.00    +0.000 HD
ENDBRANCH  25  28
ENDBRANCH  19  25
ENDBRANCH   1  18
TORSDOF 8
ENDMDL
MODEL 8
REMARK VINA RESULT:    -4.457     15.652     17.191
REMARK INTER + INTRA:          -6.329
REMARK INTER:                  -5.990
REMARK INTRA:                  -0.339
REMARK UNBOUND:                -0.309
REMARK  Name = 637566
REMARK  8 active torsions:
REMARK  status: ('A' for Active; 'I' for Inactive)
REMARK    1  A    between atoms: O_1  and  C_11
REMARK    2  A    between atoms: C_2  and  C_3
REMARK    3  A    between atoms: C_2  and  C_4
REMARK    4  A    between atoms: C_3  and  C_5
REMARK    5  A    between atoms: C_4  and  C_7
REMARK    6  A    between atoms: C_6  and  C_9
REMARK    7  A    between atoms: C_6  and  C_10
REMARK    8  A    between atoms: C_8  and  C_11
REMARK                            x       y       z     vdW  Elec       q    Type
REMARK                         _______ _______ _______ _____ _____    ______ ____
ROOT
ATOM      1  C   UNL     1      -8.401   9.604   7.591  0.00  0.00    +0.000 C 
ATOM      2  H   UNL     1      -8.775   8.707   7.079  0.00  0.00    +0.000 HD
ATOM      3  H   UNL     1      -7.330   9.660   7.355  0.00  0.00    +0.000 HD
ENDROOT
BRANCH   1   4
ATOM      4  C   UNL     1      -9.102  10.849   7.032  0.00  0.00    +0.000 C 
ATOM      5  H   UNL     1      -9.869  11.194   7.734  0.00  0.00    +0.000 HD
ATOM      6  H   UNL     1      -9.640  10.599   6.110  0.00  0.00    +0.000 HD
BRANCH   4   7
ATOM      7  C   UNL     1      -8.139  11.957   6.706  0.00  0.00    +0.000 C 
ATOM      8  C   UNL     1      -7.418  12.129   5.582  0.00  0.00    +0.000 C 
ATOM      9  H   UNL     1      -8.036  12.700   7.497  0.00  0.00    +0.000 HD
BRANCH   8  10
ATOM     10  C   UNL     1      -6.492  13.307   5.444  0.00  0.00    +0.000 C 
ATOM     11  H   UNL     1      -6.991  14.121   4.906  0.00  0.00    +0.000 HD
ATOM     12  H   UNL     1      -6.169  13.701   6.414  0.00  0.00    +0.000 HD
ATOM     13  H   UNL     1      -5.595  13.020   4.887  0.00  0.00    +0.000 HD
ENDBRANCH   8  10
BRANCH   8  14
ATOM     14  C   UNL     1      -7.454  11.227   4.381  0.00  0.00    +0.000 C 
ATOM     15  H   UNL     1      -6.437  11.034   4.023  0.00  0.00    +0.000 HD
ATOM     16  H   UNL     1      -7.926  10.262   4.583  0.00  0.00    +0.000 HD
ATOM     17  H   UNL     1      -8.021  11.698   3.572  0.00  0.00    +0.000 HD
ENDBRANCH   8  14
ENDBRANCH   4   7
ENDBRANCH   1   4
BRANCH   1  18
ATOM     18  C   UNL     1      -8.582   9.419   9.083  0.00  0.00    +0.000 C 
ATOM     19  C   UNL     1      -9.772   9.335   9.709  0.00  0.00    +0.000 C 
ATOM     20  H   UNL     1     -10.661   9.419   9.086  0.00  0.00    +0.000 HD
BRANCH  18  21
ATOM     21  C   UNL     1      -7.304   9.363   9.880  0.00  0.00    +0.000 C 
ATOM     22  H   UNL     1      -7.429   9.898  10.829  0.00  0.00    +0.000 HD
ATOM     23  H   UNL     1      -6.488   9.835   9.325  0.00  0.00    +0.000 HD
ATOM     24  H   UNL     1      -6.997   8.348  10.144  0.00  0.00    +0.000 HD
ENDBRANCH  18  21
BRANCH  19  25
ATOM     25  C   UNL     1     -10.031   9.185  11.174  0.00  0.00    +0.000 C 
ATOM     26  H   UNL     1     -10.979   9.654  11.452  0.00  0.00    +0.000 HD
ATOM     27  H   UNL     1      -9.227   9.603  11.786  0.00  0.00    +0.000 HD
BRANCH  25  28
ATOM     28  O   UNL     1     -10.111   7.799  11.481  0.00  0.00    +0.000 OA
ATOM     29  H   UNL     1     -10.890   7.438  11.024  0.00  0.00    +0.000 HD
ENDBRANCH  25  28
ENDBRANCH  19  25
ENDBRANCH   1  18
TORSDOF 8
ENDMDL
MODEL 9
REMARK VINA RESULT:    -4.450     12.997     14.404
REMARK INTER + INTRA:          -6.319
REMARK INTER:                  -5.971
REMARK INTRA:                  -0.348
REMARK UNBOUND:                -0.309
REMARK  Name = 637566
REMARK  8 active torsions:
REMARK  status: ('A' for Active; 'I' for Inactive)
REMARK    1  A    between atoms: O_1  and  C_11
REMARK    2  A    between atoms: C_2  and  C_3
REMARK    3  A    between atoms: C_2  and  C_4
REMARK    4  A    between atoms: C_3  and  C_5
REMARK    5  A    between atoms: C_4  and  C_7
REMARK    6  A    between atoms: C_6  and  C_9
REMARK    7  A    between atoms: C_6  and  C_10
REMARK    8  A    between atoms: C_8  and  C_11
REMARK                            x       y       z     vdW  Elec       q    Type
REMARK                         _______ _______ _______ _____ _____    ______ ____
ROOT
ATOM      1  C   UNL     1      -2.807   8.462  -9.131  0.00  0.00    +0.000 C 
ATOM      2  H   UNL     1      -3.679   8.990  -8.724  0.00  0.00    +0.000 HD
ATOM      3  H   UNL     1      -2.024   8.542  -8.364  0.00  0.00    +0.000 HD
ENDROOT
BRANCH   1   4
ATOM      4  C   UNL     1      -3.149   6.982  -9.342  0.00  0.00    +0.000 C 
ATOM      5  H   UNL     1      -3.404   6.515  -8.384  0.00  0.00    +0.000 HD
ATOM      6  H   UNL     1      -2.268   6.438  -9.707  0.00  0.00    +0.000 HD
BRANCH   4   7
ATOM      7  C   UNL     1      -4.251   6.780 -10.345  0.00  0.00    +0.000 C 
ATOM      8  C   UNL     1      -5.487   6.289 -10.135  0.00  0.00    +0.000 C 
ATOM      9  H   UNL     1      -3.987   7.082 -11.359  0.00  0.00    +0.000 HD
BRANCH   8  10
ATOM     10  C   UNL     1      -6.457   6.154 -11.278  0.00  0.00    +0.000 C 
ATOM     11  H   UNL     1      -6.004   6.519 -12.206  0.00  0.00    +0.000 HD
ATOM     12  H   UNL     1      -6.763   5.116 -11.444  0.00  0.00    +0.000 HD
ATOM     13  H   UNL     1      -7.361   6.738 -11.078  0.00  0.00    +0.000 HD
ENDBRANCH   8  10
BRANCH   8  14
ATOM     14  C   UNL     1      -6.034   5.853  -8.805  0.00  0.00    +0.000 C 
ATOM     15  H   UNL     1      -5.290   5.253  -8.270  0.00  0.00    +0.000 HD
ATOM     16  H   UNL     1      -6.315   6.690  -8.161  0.00  0.00    +0.000 HD
ATOM     17  H   UNL     1      -6.931   5.243  -8.949  0.00  0.00    +0.000 HD
ENDBRANCH   8  14
ENDBRANCH   4   7
ENDBRANCH   1   4
BRANCH   1  18
ATOM     18  C   UNL     1      -2.357   9.171 -10.391  0.00  0.00    +0.000 C 
ATOM     19  C   UNL     1      -1.182   8.959 -11.016  0.00  0.00    +0.000 C 
ATOM     20  H   UNL     1      -0.512   8.228 -10.565  0.00  0.00    +0.000 HD
BRANCH  18  21
ATOM     21  C   UNL     1      -3.317  10.204 -10.922  0.00  0.00    +0.000 C 
ATOM     22  H   UNL     1      -3.018  11.204 -10.588  0.00  0.00    +0.000 HD
ATOM     23  H   UNL     1      -4.329  10.008 -10.554  0.00  0.00    +0.000 HD
ATOM     24  H   UNL     1      -3.353  10.248 -12.013  0.00  0.00    +0.000 HD
ENDBRANCH  18  21
BRANCH  19  25
ATOM     25  C   UNL     1      -0.656   9.638 -12.239  0.00  0.00    +0.000 C 
ATOM     26  H   UNL     1      -0.133  10.563 -11.977  0.00  0.00    +0.000 HD
ATOM     27  H   UNL     1      -1.441   9.860 -12.966  0.00  0.00    +0.000 HD
BRANCH  25  28
ATOM     28  O   UNL     1       0.269   8.768 -12.878  0.00  0.00    +0.000 OA
ATOM     29  H   UNL     1       0.902   8.462 -12.206  0.00  0.00    +0.000 HD
ENDBRANCH  25  28
ENDBRANCH  19  25
ENDBRANCH   1  18
TORSDOF 8
ENDMDL
MODEL 10
REMARK VINA RESULT:    -4.404     27.745     29.085
REMARK INTER + INTRA:          -6.258
REMARK INTER:                  -5.949
REMARK INTRA:                  -0.309
REMARK UNBOUND:                -0.309
REMARK  Name = 637566
REMARK  8 active torsions:
REMARK  status: ('A' for Active; 'I' for Inactive)
REMARK    1  A    between atoms: O_1  and  C_11
REMARK    2  A    between atoms: C_2  and  C_3
REMARK    3  A    between atoms: C_2  and  C_4
REMARK    4  A    between atoms: C_3  and  C_5
REMARK    5  A    between atoms: C_4  and  C_7
REMARK    6  A    between atoms: C_6  and  C_9
REMARK    7  A    between atoms: C_6  and  C_10
REMARK    8  A    between atoms: C_8  and  C_11
REMARK                            x       y       z     vdW  Elec       q    Type
REMARK                         _______ _______ _______ _____ _____    ______ ____
ROOT
ATOM      1  C   UNL     1     -19.292  -5.264   4.452  0.00  0.00    +0.000 C 
ATOM      2  H   UNL     1     -18.484  -4.811   5.043  0.00  0.00    +0.000 HD
ATOM      3  H   UNL     1     -19.402  -6.289   4.830  0.00  0.00    +0.000 HD
ENDROOT
BRANCH   1   4
ATOM      4  C   UNL     1     -20.601  -4.500   4.693  0.00  0.00    +0.000 C 
ATOM      5  H   UNL     1     -21.406  -5.204   4.932  0.00  0.00    +0.000 HD
ATOM      6  H   UNL     1     -20.918  -3.993   3.774  0.00  0.00    +0.000 HD
BRANCH   4   7
ATOM      7  C   UNL     1     -20.471  -3.454   5.765  0.00  0.00    +0.000 C 
ATOM      8  C   UNL     1     -20.672  -2.127   5.660  0.00  0.00    +0.000 C 
ATOM      9  H   UNL     1     -20.181  -3.851   6.738  0.00  0.00    +0.000 HD
BRANCH   8  10
ATOM     10  C   UNL     1     -20.482  -1.231   6.855  0.00  0.00    +0.000 C 
ATOM     11  H   UNL     1     -21.421  -0.723   7.102  0.00  0.00    +0.000 HD
ATOM     12  H   UNL     1     -20.160  -1.784   7.744  0.00  0.00    +0.000 HD
ATOM     13  H   UNL     1     -19.722  -0.473   6.642  0.00  0.00    +0.000 HD
ENDBRANCH   8  10
BRANCH   8  14
ATOM     14  C   UNL     1     -21.102  -1.409   4.412  0.00  0.00    +0.000 C 
ATOM     15  H   UNL     1     -21.699  -2.076   3.780  0.00  0.00    +0.000 HD
ATOM     16  H   UNL     1     -21.699  -0.516   4.615  0.00  0.00    +0.000 HD
ATOM     17  H   UNL     1     -20.225  -1.087   3.841  0.00  0.00    +0.000 HD
ENDBRANCH   8  14
ENDBRANCH   4   7
ENDBRANCH   1   4
BRANCH   1  18
ATOM     18  C   UNL     1     -18.865  -5.301   3.000  0.00  0.00    +0.000 C 
ATOM     19  C   UNL     1     -17.935  -4.497   2.450  0.00  0.00    +0.000 C 
ATOM     20  H   UNL     1     -17.471  -3.763   3.107  0.00  0.00    +0.000 HD
BRANCH  18  21
ATOM     21  C   UNL     1     -19.590  -6.310   2.146  0.00  0.00    +0.000 C 
ATOM     22  H   UNL     1     -20.122  -7.028   2.780  0.00  0.00    +0.000 HD
ATOM     23  H   UNL     1     -18.879  -6.862   1.523  0.00  0.00    +0.000 HD
ATOM     24  H   UNL     1     -20.345  -5.867   1.491  0.00  0.00    +0.000 HD
ENDBRANCH  18  21
BRANCH  19  25
ATOM     25  C   UNL     1     -17.484  -4.452   1.025  0.00  0.00    +0.000 C 
ATOM     26  H   UNL     1     -18.233  -3.964   0.395  0.00  0.00    +0.000 HD
ATOM     27  H   UNL     1     -17.265  -5.445   0.624  0.00  0.00    +0.000 HD
BRANCH  25  28
ATOM     28  O   UNL     1     -16.281  -3.699   0.954  0.00  0.00    +0.000 OA
ATOM     29  H   UNL     1     -15.607  -4.255   0.526  0.00  0.00    +0.000 HD
ENDBRANCH  25  28
ENDBRANCH  19  25
ENDBRANCH   1  18
TORSDOF 8
ENDMDL
