MODEL 1
REMARK VINA RESULT:    -5.159      0.000      0.000
REMARK INTER + INTRA:          -8.490
REMARK INTER:                  -8.105
REMARK INTRA:                  -0.385
REMARK UNBOUND:                -0.918
REMARK  Name = 102861
REMARK  9 active torsions:
REMARK  status: ('A' for Active; 'I' for Inactive)
REMARK    1  A    between atoms: O_2  and  C_13
REMARK    2  A    between atoms: O_2  and  C_16
REMARK    3  A    between atoms: C_4  and  C_10
REMARK    4  A    between atoms: C_5  and  C_7
REMARK    5  A    between atoms: C_7  and  C_11
REMARK    6  A    between atoms: C_10  and  C_13
REMARK    7  A    between atoms: C_11  and  C_12
REMARK    8  A    between atoms: C_12  and  C_14
REMARK    9  A    between atoms: C_14  and  C_15
REMARK                            x       y       z     vdW  Elec       q    Type
REMARK                         _______ _______ _______ _____ _____    ______ ____
ROOT
ATOM      1  O   UNL     1      -2.680   8.846  -8.038  0.00  0.00    +0.000 OA
ATOM      2  C   UNL     1      -2.907   7.276 -11.225  0.00  0.00    +0.000 C 
ATOM      3  C   UNL     1      -3.049   7.122  -9.700  0.00  0.00    +0.000 C 
ATOM      4  C   UNL     1      -3.347   8.716 -11.507  0.00  0.00    +0.000 C 
ATOM      5  C   UNL     1      -2.812   9.539 -10.342  0.00  0.00    +0.000 C 
ATOM      6  C   UNL     1      -2.829   8.541  -9.215  0.00  0.00    +0.000 C 
ATOM      7  H   UNL     1      -3.554   6.593 -11.784  0.00  0.00    +0.000 HD
ATOM      8  H   UNL     1      -2.273   6.483  -9.264  0.00  0.00    +0.000 HD
ATOM      9  H   UNL     1      -2.990   9.094 -12.470  0.00  0.00    +0.000 HD
ATOM     10  H   UNL     1      -4.443   8.771 -11.520  0.00  0.00    +0.000 HD
ATOM     11  H   UNL     1      -1.783   9.866 -10.516  0.00  0.00    +0.000 HD
ATOM     12  H   UNL     1      -3.455  10.394 -10.122  0.00  0.00    +0.000 HD
ENDROOT
BRANCH   3  13
ATOM     13  C   UNL     1      -4.431   6.643  -9.280  0.00  0.00    +0.000 C 
ATOM     14  H   UNL     1      -4.917   7.381  -8.628  0.00  0.00    +0.000 HD
ATOM     15  H   UNL     1      -4.332   5.729  -8.680  0.00  0.00    +0.000 HD
BRANCH  13  16
ATOM     16  C   UNL     1      -5.320   6.355 -10.491  0.00  0.00    +0.000 C 
ATOM     17  H   UNL     1      -4.850   5.585 -11.115  0.00  0.00    +0.000 HD
ATOM     18  H   UNL     1      -5.437   7.247 -11.114  0.00  0.00    +0.000 HD
BRANCH  16  19
ATOM     19  C   UNL     1      -6.711   5.882 -10.064  0.00  0.00    +0.000 C 
ATOM     20  H   UNL     1      -7.446   6.672 -10.262  0.00  0.00    +0.000 HD
ATOM     21  H   UNL     1      -7.002   5.012 -10.666  0.00  0.00    +0.000 HD
BRANCH  19  22
ATOM     22  C   UNL     1      -6.741   5.510  -8.583  0.00  0.00    +0.000 C 
ATOM     23  H   UNL     1      -7.451   6.154  -8.051  0.00  0.00    +0.000 HD
ATOM     24  H   UNL     1      -5.754   5.676  -8.135  0.00  0.00    +0.000 HD
BRANCH  22  25
ATOM     25  C   UNL     1      -7.139   4.055  -8.382  0.00  0.00    +0.000 C 
ATOM     26  H   UNL     1      -8.225   3.935  -8.436  0.00  0.00    +0.000 HD
ATOM     27  H   UNL     1      -6.806   3.704  -7.401  0.00  0.00    +0.000 HD
ATOM     28  H   UNL     1      -6.682   3.416  -9.145  0.00  0.00    +0.000 HD
ENDBRANCH  22  25
ENDBRANCH  19  22
ENDBRANCH  16  19
ENDBRANCH  13  16
ENDBRANCH   3  13
BRANCH   2  29
ATOM     29  C   UNL     1      -1.468   7.030 -11.685  0.00  0.00    +0.000 C 
ATOM     30  H   UNL     1      -1.244   5.956 -11.668  0.00  0.00    +0.000 HD
ATOM     31  H   UNL     1      -0.760   7.529 -11.014  0.00  0.00    +0.000 HD
BRANCH  29  33
ATOM     32  O   UNL     1      -1.787   7.159 -14.091  0.00  0.00    +0.000 OA
ATOM     33  C   UNL     1      -1.223   7.552 -13.080  0.00  0.00    +0.000 C 
BRANCH  33  34
ATOM     34  O   UNL     1      -0.272   8.531 -13.022  0.00  0.00    +0.000 OA
BRANCH  34  35
ATOM     35  C   UNL     1       0.122   9.083 -14.282  0.00  0.00    +0.000 C 
ATOM     36  H   UNL     1      -0.508   8.684 -15.083  0.00  0.00    +0.000 HD
ATOM     37  H   UNL     1       0.064  10.175 -14.252  0.00  0.00    +0.000 HD
ATOM     38  H   UNL     1       1.159   8.792 -14.473  0.00  0.00    +0.000 HD
ENDBRANCH  34  35
ENDBRANCH  33  34
ENDBRANCH  29  33
ENDBRANCH   2  29
TORSDOF 9
ENDMDL
MODEL 2
REMARK VINA RESULT:    -5.009     19.056     20.992
REMARK INTER + INTRA:          -8.270
REMARK INTER:                  -7.815
REMARK INTRA:                  -0.455
REMARK UNBOUND:                -0.918
REMARK  Name = 102861
REMARK  9 active torsions:
REMARK  status: ('A' for Active; 'I' for Inactive)
REMARK    1  A    between atoms: O_2  and  C_13
REMARK    2  A    between atoms: O_2  and  C_16
REMARK    3  A    between atoms: C_4  and  C_10
REMARK    4  A    between atoms: C_5  and  C_7
REMARK    5  A    between atoms: C_7  and  C_11
REMARK    6  A    between atoms: C_10  and  C_13
REMARK    7  A    between atoms: C_11  and  C_12
REMARK    8  A    between atoms: C_12  and  C_14
REMARK    9  A    between atoms: C_14  and  C_15
REMARK                            x       y       z     vdW  Elec       q    Type
REMARK                         _______ _______ _______ _____ _____    ______ ____
ROOT
ATOM      1  O   UNL     1       9.060   8.140   8.102  0.00  0.00    +0.000 OA
ATOM      2  C   UNL     1       8.254  11.386   6.881  0.00  0.00    +0.000 C 
ATOM      3  C   UNL     1       8.386   9.886   6.562  0.00  0.00    +0.000 C 
ATOM      4  C   UNL     1       7.781  11.427   8.338  0.00  0.00    +0.000 C 
ATOM      5  C   UNL     1       8.522  10.295   9.038  0.00  0.00    +0.000 C 
ATOM      6  C   UNL     1       8.700   9.297   7.923  0.00  0.00    +0.000 C 
ATOM      7  H   UNL     1       7.512  11.891   6.255  0.00  0.00    +0.000 HD
ATOM      8  H   UNL     1       9.223   9.668   5.890  0.00  0.00    +0.000 HD
ATOM      9  H   UNL     1       7.962  12.392   8.821  0.00  0.00    +0.000 HD
ATOM     10  H   UNL     1       6.701  11.239   8.381  0.00  0.00    +0.000 HD
ATOM     11  H   UNL     1       9.505  10.614   9.394  0.00  0.00    +0.000 HD
ATOM     12  H   UNL     1       7.935   9.872   9.856  0.00  0.00    +0.000 HD
ENDROOT
BRANCH   3  13
ATOM     13  C   UNL     1       7.098   9.280   6.024  0.00  0.00    +0.000 C 
ATOM     14  H   UNL     1       6.366  10.064   5.792  0.00  0.00    +0.000 HD
ATOM     15  H   UNL     1       6.637   8.656   6.801  0.00  0.00    +0.000 HD
BRANCH  13  16
ATOM     16  C   UNL     1       7.353   8.427   4.780  0.00  0.00    +0.000 C 
ATOM     17  H   UNL     1       8.417   8.166   4.728  0.00  0.00    +0.000 HD
ATOM     18  H   UNL     1       7.111   8.979   3.868  0.00  0.00    +0.000 HD
BRANCH  16  19
ATOM     19  C   UNL     1       6.518   7.145   4.800  0.00  0.00    +0.000 C 
ATOM     20  H   UNL     1       7.152   6.297   5.088  0.00  0.00    +0.000 HD
ATOM     21  H   UNL     1       5.732   7.233   5.560  0.00  0.00    +0.000 HD
BRANCH  19  22
ATOM     22  C   UNL     1       5.883   6.874   3.438  0.00  0.00    +0.000 C 
ATOM     23  H   UNL     1       4.794   6.984   3.506  0.00  0.00    +0.000 HD
ATOM     24  H   UNL     1       6.086   5.842   3.129  0.00  0.00    +0.000 HD
BRANCH  22  25
ATOM     25  C   UNL     1       6.415   7.824   2.376  0.00  0.00    +0.000 C 
ATOM     26  H   UNL     1       7.130   7.318   1.720  0.00  0.00    +0.000 HD
ATOM     27  H   UNL     1       6.926   8.670   2.847  0.00  0.00    +0.000 HD
ATOM     28  H   UNL     1       5.600   8.218   1.759  0.00  0.00    +0.000 HD
ENDBRANCH  22  25
ENDBRANCH  19  22
ENDBRANCH  16  19
ENDBRANCH  13  16
ENDBRANCH   3  13
BRANCH   2  29
ATOM     29  C   UNL     1       9.586  12.120   6.703  0.00  0.00    +0.000 C 
ATOM     30  H   UNL     1      10.191  11.624   5.935  0.00  0.00    +0.000 HD
ATOM     31  H   UNL     1      10.157  12.108   7.638  0.00  0.00    +0.000 HD
BRANCH  29  33
ATOM     32  O   UNL     1       8.573  14.328   6.801  0.00  0.00    +0.000 OA
ATOM     33  C   UNL     1       9.388  13.562   6.305  0.00  0.00    +0.000 C 
BRANCH  33  34
ATOM     34  O   UNL     1      10.266  13.866   5.304  0.00  0.00    +0.000 OA
BRANCH  34  35
ATOM     35  C   UNL     1      10.078  13.148   4.080  0.00  0.00    +0.000 C 
ATOM     36  H   UNL     1       9.820  12.105   4.289  0.00  0.00    +0.000 HD
ATOM     37  H   UNL     1       9.302  13.626   3.475  0.00  0.00    +0.000 HD
ATOM     38  H   UNL     1      11.020  13.171   3.524  0.00  0.00    +0.000 HD
ENDBRANCH  34  35
ENDBRANCH  33  34
ENDBRANCH  29  33
ENDBRANCH   2  29
TORSDOF 9
ENDMDL
MODEL 3
REMARK VINA RESULT:    -4.965     17.680     20.422
REMARK INTER + INTRA:          -8.205
REMARK INTER:                  -7.498
REMARK INTRA:                  -0.706
REMARK UNBOUND:                -0.918
REMARK  Name = 102861
REMARK  9 active torsions:
REMARK  status: ('A' for Active; 'I' for Inactive)
REMARK    1  A    between atoms: O_2  and  C_13
REMARK    2  A    between atoms: O_2  and  C_16
REMARK    3  A    between atoms: C_4  and  C_10
REMARK    4  A    between atoms: C_5  and  C_7
REMARK    5  A    between atoms: C_7  and  C_11
REMARK    6  A    between atoms: C_10  and  C_13
REMARK    7  A    between atoms: C_11  and  C_12
REMARK    8  A    between atoms: C_12  and  C_14
REMARK    9  A    between atoms: C_14  and  C_15
REMARK                            x       y       z     vdW  Elec       q    Type
REMARK                         _______ _______ _______ _____ _____    ______ ____
ROOT
ATOM      1  O   UNL     1     -11.874  10.483   6.542  0.00  0.00    +0.000 OA
ATOM      2  C   UNL     1      -8.623  10.306   7.983  0.00  0.00    +0.000 C 
ATOM      3  C   UNL     1      -9.457  10.373   6.691  0.00  0.00    +0.000 C 
ATOM      4  C   UNL     1      -9.414  11.143   8.994  0.00  0.00    +0.000 C 
ATOM      5  C   UNL     1     -10.880  10.845   8.708  0.00  0.00    +0.000 C 
ATOM      6  C   UNL     1     -10.862  10.558   7.229  0.00  0.00    +0.000 C 
ATOM      7  H   UNL     1      -7.625  10.741   7.868  0.00  0.00    +0.000 HD
ATOM      8  H   UNL     1      -9.427   9.441   6.117  0.00  0.00    +0.000 HD
ATOM      9  H   UNL     1      -9.149  10.923  10.033  0.00  0.00    +0.000 HD
ATOM     10  H   UNL     1      -9.218  12.209   8.825  0.00  0.00    +0.000 HD
ATOM     11  H   UNL     1     -11.224   9.954   9.241  0.00  0.00    +0.000 HD
ATOM     12  H   UNL     1     -11.519  11.700   8.936  0.00  0.00    +0.000 HD
ENDROOT
BRANCH   3  13
ATOM     13  C   UNL     1      -9.085  11.555   5.807  0.00  0.00    +0.000 C 
ATOM     14  H   UNL     1      -8.810  12.425   6.417  0.00  0.00    +0.000 HD
ATOM     15  H   UNL     1      -9.961  11.862   5.222  0.00  0.00    +0.000 HD
BRANCH  13  16
ATOM     16  C   UNL     1      -7.941  11.207   4.854  0.00  0.00    +0.000 C 
ATOM     17  H   UNL     1      -8.343  11.029   3.849  0.00  0.00    +0.000 HD
ATOM     18  H   UNL     1      -7.433  10.290   5.166  0.00  0.00    +0.000 HD
BRANCH  16  19
ATOM     19  C   UNL     1      -6.904  12.331   4.792  0.00  0.00    +0.000 C 
ATOM     20  H   UNL     1      -5.904  11.903   4.654  0.00  0.00    +0.000 HD
ATOM     21  H   UNL     1      -7.106  12.967   3.920  0.00  0.00    +0.000 HD
BRANCH  19  22
ATOM     22  C   UNL     1      -6.929  13.182   6.060  0.00  0.00    +0.000 C 
ATOM     23  H   UNL     1      -6.230  12.772   6.798  0.00  0.00    +0.000 HD
ATOM     24  H   UNL     1      -7.929  13.154   6.509  0.00  0.00    +0.000 HD
BRANCH  22  25
ATOM     25  C   UNL     1      -6.557  14.628   5.769  0.00  0.00    +0.000 C 
ATOM     26  H   UNL     1      -7.064  15.310   6.457  0.00  0.00    +0.000 HD
ATOM     27  H   UNL     1      -6.848  14.895   4.748  0.00  0.00    +0.000 HD
ATOM     28  H   UNL     1      -5.477  14.780   5.866  0.00  0.00    +0.000 HD
ENDBRANCH  22  25
ENDBRANCH  19  22
ENDBRANCH  16  19
ENDBRANCH  13  16
ENDBRANCH   3  13
BRANCH   2  29
ATOM     29  C   UNL     1      -8.446   8.864   8.465  0.00  0.00    +0.000 C 
ATOM     30  H   UNL     1      -7.818   8.304   7.761  0.00  0.00    +0.000 HD
ATOM     31  H   UNL     1      -9.416   8.358   8.523  0.00  0.00    +0.000 HD
BRANCH  29  33
ATOM     32  O   UNL     1      -6.880   9.493  10.215  0.00  0.00    +0.000 OA
ATOM     33  C   UNL     1      -7.812   8.799   9.833  0.00  0.00    +0.000 C 
BRANCH  33  34
ATOM     34  O   UNL     1      -8.452   7.842  10.569  0.00  0.00    +0.000 OA
BRANCH  34  35
ATOM     35  C   UNL     1      -9.614   8.284  11.278  0.00  0.00    +0.000 C 
ATOM     36  H   UNL     1      -9.933   9.263  10.908  0.00  0.00    +0.000 HD
ATOM     37  H   UNL     1     -10.420   7.551  11.180  0.00  0.00    +0.000 HD
ATOM     38  H   UNL     1      -9.352   8.378  12.336  0.00  0.00    +0.000 HD
ENDBRANCH  34  35
ENDBRANCH  33  34
ENDBRANCH  29  33
ENDBRANCH   2  29
TORSDOF 9
ENDMDL
MODEL 4
REMARK VINA RESULT:    -4.770      2.318      4.971
REMARK INTER + INTRA:          -7.918
REMARK INTER:                  -7.000
REMARK INTRA:                  -0.918
REMARK UNBOUND:                -0.918
REMARK  Name = 102861
REMARK  9 active torsions:
REMARK  status: ('A' for Active; 'I' for Inactive)
REMARK    1  A    between atoms: O_2  and  C_13
REMARK    2  A    between atoms: O_2  and  C_16
REMARK    3  A    between atoms: C_4  and  C_10
REMARK    4  A    between atoms: C_5  and  C_7
REMARK    5  A    between atoms: C_7  and  C_11
REMARK    6  A    between atoms: C_10  and  C_13
REMARK    7  A    between atoms: C_11  and  C_12
REMARK    8  A    between atoms: C_12  and  C_14
REMARK    9  A    between atoms: C_14  and  C_15
REMARK                            x       y       z     vdW  Elec       q    Type
REMARK                         _______ _______ _______ _____ _____    ______ ____
ROOT
ATOM      1  O   UNL     1      -3.202   9.012  -8.094  0.00  0.00    +0.000 OA
ATOM      2  C   UNL     1      -2.884   7.975 -11.485  0.00  0.00    +0.000 C 
ATOM      3  C   UNL     1      -2.735   9.122 -10.469  0.00  0.00    +0.000 C 
ATOM      4  C   UNL     1      -2.527   6.713 -10.693  0.00  0.00    +0.000 C 
ATOM      5  C   UNL     1      -3.108   6.928  -9.301  0.00  0.00    +0.000 C 
ATOM      6  C   UNL     1      -3.035   8.426  -9.157  0.00  0.00    +0.000 C 
ATOM      7  H   UNL     1      -2.199   8.065 -12.333  0.00  0.00    +0.000 HD
ATOM      8  H   UNL     1      -3.473   9.917 -10.616  0.00  0.00    +0.000 HD
ATOM      9  H   UNL     1      -2.904   5.795 -11.154  0.00  0.00    +0.000 HD
ATOM     10  H   UNL     1      -1.436   6.618 -10.622  0.00  0.00    +0.000 HD
ATOM     11  H   UNL     1      -4.154   6.614  -9.246  0.00  0.00    +0.000 HD
ATOM     12  H   UNL     1      -2.516   6.428  -8.533  0.00  0.00    +0.000 HD
ENDROOT
BRANCH   3  13
ATOM     13  C   UNL     1      -1.328   9.701 -10.434  0.00  0.00    +0.000 C 
ATOM     14  H   UNL     1      -0.747   9.262  -9.612  0.00  0.00    +0.000 HD
ATOM     15  H   UNL     1      -1.382  10.777 -10.224  0.00  0.00    +0.000 HD
BRANCH  13  16
ATOM     16  C   UNL     1      -0.596   9.484 -11.759  0.00  0.00    +0.000 C 
ATOM     17  H   UNL     1      -0.935   8.545 -12.215  0.00  0.00    +0.000 HD
ATOM     18  H   UNL     1       0.483   9.394 -11.603  0.00  0.00    +0.000 HD
BRANCH  16  19
ATOM     19  C   UNL     1      -0.845  10.638 -12.732  0.00  0.00    +0.000 C 
ATOM     20  H   UNL     1      -1.817  11.099 -12.516  0.00  0.00    +0.000 HD
ATOM     21  H   UNL     1      -0.081  11.412 -12.585  0.00  0.00    +0.000 HD
BRANCH  19  22
ATOM     22  C   UNL     1      -0.812  10.159 -14.182  0.00  0.00    +0.000 C 
ATOM     23  H   UNL     1      -0.457  10.967 -14.833  0.00  0.00    +0.000 HD
ATOM     24  H   UNL     1      -1.824   9.897 -14.512  0.00  0.00    +0.000 HD
BRANCH  22  25
ATOM     25  C   UNL     1       0.093   8.949 -14.349  0.00  0.00    +0.000 C 
ATOM     26  H   UNL     1       1.111   9.171 -14.014  0.00  0.00    +0.000 HD
ATOM     27  H   UNL     1       0.139   8.652 -15.402  0.00  0.00    +0.000 HD
ATOM     28  H   UNL     1      -0.281   8.097 -13.772  0.00  0.00    +0.000 HD
ENDBRANCH  22  25
ENDBRANCH  19  22
ENDBRANCH  16  19
ENDBRANCH  13  16
ENDBRANCH   3  13
BRANCH   2  29
ATOM     29  C   UNL     1      -4.307   7.900 -12.045  0.00  0.00    +0.000 C 
ATOM     30  H   UNL     1      -4.709   8.910 -12.191  0.00  0.00    +0.000 HD
ATOM     31  H   UNL     1      -4.967   7.375 -11.346  0.00  0.00    +0.000 HD
BRANCH  29  33
ATOM     32  O   UNL     1      -5.204   6.342 -13.681  0.00  0.00    +0.000 OA
ATOM     33  C   UNL     1      -4.358   7.166 -13.363  0.00  0.00    +0.000 C 
BRANCH  33  34
ATOM     34  O   UNL     1      -3.307   7.573 -14.134  0.00  0.00    +0.000 OA
BRANCH  34  35
ATOM     35  C   UNL     1      -2.818   6.607 -15.070  0.00  0.00    +0.000 C 
ATOM     36  H   UNL     1      -3.574   6.406 -15.836  0.00  0.00    +0.000 HD
ATOM     37  H   UNL     1      -1.888   6.958 -15.526  0.00  0.00    +0.000 HD
ATOM     38  H   UNL     1      -2.614   5.679 -14.526  0.00  0.00    +0.000 HD
ENDBRANCH  34  35
ENDBRANCH  33  34
ENDBRANCH  29  33
ENDBRANCH   2  29
TORSDOF 9
ENDMDL
MODEL 5
REMARK VINA RESULT:    -4.622     17.522     19.934
REMARK INTER + INTRA:          -7.702
REMARK INTER:                  -6.943
REMARK INTRA:                  -0.759
REMARK UNBOUND:                -0.918
REMARK  Name = 102861
REMARK  9 active torsions:
REMARK  status: ('A' for Active; 'I' for Inactive)
REMARK    1  A    between atoms: O_2  and  C_13
REMARK    2  A    between atoms: O_2  and  C_16
REMARK    3  A    between atoms: C_4  and  C_10
REMARK    4  A    between atoms: C_5  and  C_7
REMARK    5  A    between atoms: C_7  and  C_11
REMARK    6  A    between atoms: C_10  and  C_13
REMARK    7  A    between atoms: C_11  and  C_12
REMARK    8  A    between atoms: C_12  and  C_14
REMARK    9  A    between atoms: C_14  and  C_15
REMARK                            x       y       z     vdW  Elec       q    Type
REMARK                         _______ _______ _______ _____ _____    ______ ____
ROOT
ATOM      1  O   UNL     1     -11.090  12.246   5.078  0.00  0.00    +0.000 OA
ATOM      2  C   UNL     1      -7.963  11.686   6.685  0.00  0.00    +0.000 C 
ATOM      3  C   UNL     1      -9.496  11.583   6.778  0.00  0.00    +0.000 C 
ATOM      4  C   UNL     1      -7.651  11.435   5.206  0.00  0.00    +0.000 C 
ATOM      5  C   UNL     1      -8.771  12.121   4.433  0.00  0.00    +0.000 C 
ATOM      6  C   UNL     1      -9.929  12.012   5.390  0.00  0.00    +0.000 C 
ATOM      7  H   UNL     1      -7.448  10.932   7.287  0.00  0.00    +0.000 HD
ATOM      8  H   UNL     1      -9.924  12.282   7.505  0.00  0.00    +0.000 HD
ATOM      9  H   UNL     1      -6.665  11.803   4.906  0.00  0.00    +0.000 HD
ATOM     10  H   UNL     1      -7.674  10.357   5.002  0.00  0.00    +0.000 HD
ATOM     11  H   UNL     1      -8.552  13.177   4.255  0.00  0.00    +0.000 HD
ATOM     12  H   UNL     1      -8.987  11.609   3.493  0.00  0.00    +0.000 HD
ENDROOT
BRANCH   3  13
ATOM     13  C   UNL     1      -9.978  10.166   7.053  0.00  0.00    +0.000 C 
ATOM     14  H   UNL     1     -10.063   9.596   6.118  0.00  0.00    +0.000 HD
ATOM     15  H   UNL     1     -10.989  10.201   7.478  0.00  0.00    +0.000 HD
BRANCH  13  16
ATOM     16  C   UNL     1      -9.050   9.433   8.023  0.00  0.00    +0.000 C 
ATOM     17  H   UNL     1      -8.049   9.881   7.981  0.00  0.00    +0.000 HD
ATOM     18  H   UNL     1      -8.943   8.380   7.746  0.00  0.00    +0.000 HD
BRANCH  16  19
ATOM     19  C   UNL     1      -9.575   9.501   9.458  0.00  0.00    +0.000 C 
ATOM     20  H   UNL     1      -9.576  10.543   9.802  0.00  0.00    +0.000 HD
ATOM     21  H   UNL     1     -10.615   9.152   9.484  0.00  0.00    +0.000 HD
BRANCH  19  22
ATOM     22  C   UNL     1      -8.727   8.648  10.401  0.00  0.00    +0.000 C 
ATOM     23  H   UNL     1      -8.007   9.283  10.931  0.00  0.00    +0.000 HD
ATOM     24  H   UNL     1      -8.152   7.914   9.825  0.00  0.00    +0.000 HD
BRANCH  22  25
ATOM     25  C   UNL     1      -9.590   7.916  11.417  0.00  0.00    +0.000 C 
ATOM     26  H   UNL     1      -9.235   6.892  11.568  0.00  0.00    +0.000 HD
ATOM     27  H   UNL     1     -10.627   7.869  11.070  0.00  0.00    +0.000 HD
ATOM     28  H   UNL     1      -9.578   8.430  12.384  0.00  0.00    +0.000 HD
ENDBRANCH  22  25
ENDBRANCH  19  22
ENDBRANCH  16  19
ENDBRANCH  13  16
ENDBRANCH   3  13
BRANCH   2  29
ATOM     29  C   UNL     1      -7.462  13.060   7.137  0.00  0.00    +0.000 C 
ATOM     30  H   UNL     1      -8.310  13.705   7.397  0.00  0.00    +0.000 HD
ATOM     31  H   UNL     1      -6.904  13.550   6.331  0.00  0.00    +0.000 HD
BRANCH  29  33
ATOM     32  O   UNL     1      -5.532  13.626   8.504  0.00  0.00    +0.000 OA
ATOM     33  C   UNL     1      -6.546  12.962   8.333  0.00  0.00    +0.000 C 
BRANCH  33  34
ATOM     34  O   UNL     1      -7.036  12.015   9.186  0.00  0.00    +0.000 OA
BRANCH  34  35
ATOM     35  C   UNL     1      -6.081  11.439  10.083  0.00  0.00    +0.000 C 
ATOM     36  H   UNL     1      -5.225  12.110  10.205  0.00  0.00    +0.000 HD
ATOM     37  H   UNL     1      -6.548  11.227  11.049  0.00  0.00    +0.000 HD
ATOM     38  H   UNL     1      -5.730  10.498   9.648  0.00  0.00    +0.000 HD
ENDBRANCH  34  35
ENDBRANCH  33  34
ENDBRANCH  29  33
ENDBRANCH   2  29
TORSDOF 9
ENDMDL
MODEL 6
REMARK VINA RESULT:    -4.603     18.568     21.442
REMARK INTER + INTRA:          -7.673
REMARK INTER:                  -6.934
REMARK INTRA:                  -0.739
REMARK UNBOUND:                -0.918
REMARK  Name = 102861
REMARK  9 active torsions:
REMARK  status: ('A' for Active; 'I' for Inactive)
REMARK    1  A    between atoms: O_2  and  C_13
REMARK    2  A    between atoms: O_2  and  C_16
REMARK    3  A    between atoms: C_4  and  C_10
REMARK    4  A    between atoms: C_5  and  C_7
REMARK    5  A    between atoms: C_7  and  C_11
REMARK    6  A    between atoms: C_10  and  C_13
REMARK    7  A    between atoms: C_11  and  C_12
REMARK    8  A    between atoms: C_12  and  C_14
REMARK    9  A    between atoms: C_14  and  C_15
REMARK                            x       y       z     vdW  Elec       q    Type
REMARK                         _______ _______ _______ _____ _____    ______ ____
ROOT
ATOM      1  O   UNL     1      -7.263  12.610   8.665  0.00  0.00    +0.000 OA
ATOM      2  C   UNL     1      -8.432   9.464   9.851  0.00  0.00    +0.000 C 
ATOM      3  C   UNL     1      -8.632  10.620   8.854  0.00  0.00    +0.000 C 
ATOM      4  C   UNL     1      -6.913   9.366  10.024  0.00  0.00    +0.000 C 
ATOM      5  C   UNL     1      -6.410  10.804  10.013  0.00  0.00    +0.000 C 
ATOM      6  C   UNL     1      -7.415  11.483   9.121  0.00  0.00    +0.000 C 
ATOM      7  H   UNL     1      -8.806   8.507   9.474  0.00  0.00    +0.000 HD
ATOM      8  H   UNL     1      -9.529  11.211   9.065  0.00  0.00    +0.000 HD
ATOM      9  H   UNL     1      -6.618   8.839  10.937  0.00  0.00    +0.000 HD
ATOM     10  H   UNL     1      -6.479   8.820   9.177  0.00  0.00    +0.000 HD
ATOM     11  H   UNL     1      -6.451  11.255  11.008  0.00  0.00    +0.000 HD
ATOM     12  H   UNL     1      -5.402  10.877   9.599  0.00  0.00    +0.000 HD
ENDROOT
BRANCH   3  13
ATOM     13  C   UNL     1      -8.627  10.158   7.404  0.00  0.00    +0.000 C 
ATOM     14  H   UNL     1      -8.698   9.064   7.344  0.00  0.00    +0.000 HD
ATOM     15  H   UNL     1      -7.669  10.425   6.940  0.00  0.00    +0.000 HD
BRANCH  13  16
ATOM     16  C   UNL     1      -9.766  10.794   6.606  0.00  0.00    +0.000 C 
ATOM     17  H   UNL     1     -10.321  11.487   7.250  0.00  0.00    +0.000 HD
ATOM     18  H   UNL     1     -10.476  10.037   6.260  0.00  0.00    +0.000 HD
BRANCH  16  19
ATOM     19  C   UNL     1      -9.239  11.551   5.385  0.00  0.00    +0.000 C 
ATOM     20  H   UNL     1      -9.846  11.300   4.506  0.00  0.00    +0.000 HD
ATOM     21  H   UNL     1      -9.343  12.631   5.551  0.00  0.00    +0.000 HD
BRANCH  19  22
ATOM     22  C   UNL     1      -7.774  11.215   5.113  0.00  0.00    +0.000 C 
ATOM     23  H   UNL     1      -7.692  10.625   4.192  0.00  0.00    +0.000 HD
ATOM     24  H   UNL     1      -7.373  10.602   5.928  0.00  0.00    +0.000 HD
BRANCH  22  25
ATOM     25  C   UNL     1      -6.930  12.473   4.976  0.00  0.00    +0.000 C 
ATOM     26  H   UNL     1      -7.509  13.364   5.239  0.00  0.00    +0.000 HD
ATOM     27  H   UNL     1      -6.583  12.586   3.945  0.00  0.00    +0.000 HD
ATOM     28  H   UNL     1      -6.052  12.428   5.629  0.00  0.00    +0.000 HD
ENDBRANCH  22  25
ENDBRANCH  19  22
ENDBRANCH  16  19
ENDBRANCH  13  16
ENDBRANCH   3  13
BRANCH   2  29
ATOM     29  C   UNL     1      -9.132   9.741  11.184  0.00  0.00    +0.000 C 
ATOM     30  H   UNL     1      -9.282  10.820  11.314  0.00  0.00    +0.000 HD
ATOM     31  H   UNL     1      -8.519   9.386  12.019  0.00  0.00    +0.000 HD
BRANCH  29  33
ATOM     32  O   UNL     1     -10.642   7.860  11.484  0.00  0.00    +0.000 OA
ATOM     33  C   UNL     1     -10.472   9.053  11.273  0.00  0.00    +0.000 C 
BRANCH  33  34
ATOM     34  O   UNL     1     -11.456   9.981  11.080  0.00  0.00    +0.000 OA
BRANCH  34  35
ATOM     35  C   UNL     1     -11.197  11.277  11.628  0.00  0.00    +0.000 C 
ATOM     36  H   UNL     1     -10.134  11.520  11.539  0.00  0.00    +0.000 HD
ATOM     37  H   UNL     1     -11.810  12.031  11.125  0.00  0.00    +0.000 HD
ATOM     38  H   UNL     1     -11.465  11.258  12.689  0.00  0.00    +0.000 HD
ENDBRANCH  34  35
ENDBRANCH  33  34
ENDBRANCH  29  33
ENDBRANCH   2  29
TORSDOF 9
ENDMDL
MODEL 7
REMARK VINA RESULT:    -4.591     17.718     20.317
REMARK INTER + INTRA:          -7.656
REMARK INTER:                  -7.001
REMARK INTRA:                  -0.656
REMARK UNBOUND:                -0.918
REMARK  Name = 102861
REMARK  9 active torsions:
REMARK  status: ('A' for Active; 'I' for Inactive)
REMARK    1  A    between atoms: O_2  and  C_13
REMARK    2  A    between atoms: O_2  and  C_16
REMARK    3  A    between atoms: C_4  and  C_10
REMARK    4  A    between atoms: C_5  and  C_7
REMARK    5  A    between atoms: C_7  and  C_11
REMARK    6  A    between atoms: C_10  and  C_13
REMARK    7  A    between atoms: C_11  and  C_12
REMARK    8  A    between atoms: C_12  and  C_14
REMARK    9  A    between atoms: C_14  and  C_15
REMARK                            x       y       z     vdW  Elec       q    Type
REMARK                         _______ _______ _______ _____ _____    ______ ____
ROOT
ATOM      1  O   UNL     1      -7.281  11.181  10.142  0.00  0.00    +0.000 OA
ATOM      2  C   UNL     1      -9.377   9.933   7.549  0.00  0.00    +0.000 C 
ATOM      3  C   UNL     1      -8.658  11.155   8.149  0.00  0.00    +0.000 C 
ATOM      4  C   UNL     1      -8.444   8.754   7.849  0.00  0.00    +0.000 C 
ATOM      5  C   UNL     1      -7.878   9.029   9.237  0.00  0.00    +0.000 C 
ATOM      6  C   UNL     1      -7.866  10.534   9.282  0.00  0.00    +0.000 C 
ATOM      7  H   UNL     1      -9.513  10.008   6.466  0.00  0.00    +0.000 HD
ATOM      8  H   UNL     1      -9.352  11.889   8.573  0.00  0.00    +0.000 HD
ATOM      9  H   UNL     1      -8.948   7.784   7.800  0.00  0.00    +0.000 HD
ATOM     10  H   UNL     1      -7.626   8.736   7.118  0.00  0.00    +0.000 HD
ATOM     11  H   UNL     1      -8.536   8.652  10.024  0.00  0.00    +0.000 HD
ATOM     12  H   UNL     1      -6.871   8.623   9.350  0.00  0.00    +0.000 HD
ENDROOT
BRANCH   3  13
ATOM     13  C   UNL     1      -7.710  11.825   7.165  0.00  0.00    +0.000 C 
ATOM     14  H   UNL     1      -6.678  11.486   7.326  0.00  0.00    +0.000 HD
ATOM     15  H   UNL     1      -7.703  12.907   7.345  0.00  0.00    +0.000 HD
BRANCH  13  16
ATOM     16  C   UNL     1      -8.121  11.559   5.716  0.00  0.00    +0.000 C 
ATOM     17  H   UNL     1      -9.126  11.963   5.541  0.00  0.00    +0.000 HD
ATOM     18  H   UNL     1      -8.166  10.486   5.509  0.00  0.00    +0.000 HD
BRANCH  16  19
ATOM     19  C   UNL     1      -7.140  12.196   4.730  0.00  0.00    +0.000 C 
ATOM     20  H   UNL     1      -6.417  11.444   4.390  0.00  0.00    +0.000 HD
ATOM     21  H   UNL     1      -7.686  12.542   3.843  0.00  0.00    +0.000 HD
BRANCH  19  22
ATOM     22  C   UNL     1      -6.400  13.373   5.364  0.00  0.00    +0.000 C 
ATOM     23  H   UNL     1      -5.354  13.374   5.038  0.00  0.00    +0.000 HD
ATOM     24  H   UNL     1      -6.401  13.271   6.455  0.00  0.00    +0.000 HD
BRANCH  22  25
ATOM     25  C   UNL     1      -7.041  14.701   4.990  0.00  0.00    +0.000 C 
ATOM     26  H   UNL     1      -7.445  14.669   3.974  0.00  0.00    +0.000 HD
ATOM     27  H   UNL     1      -6.299  15.504   5.035  0.00  0.00    +0.000 HD
ATOM     28  H   UNL     1      -7.856  14.950   5.677  0.00  0.00    +0.000 HD
ENDBRANCH  22  25
ENDBRANCH  19  22
ENDBRANCH  16  19
ENDBRANCH  13  16
ENDBRANCH   3  13
BRANCH   2  29
ATOM     29  C   UNL     1     -10.758   9.728   8.176  0.00  0.00    +0.000 C 
ATOM     30  H   UNL     1     -10.764  10.098   9.208  0.00  0.00    +0.000 HD
ATOM     31  H   UNL     1     -11.013   8.662   8.202  0.00  0.00    +0.000 HD
BRANCH  29  33
ATOM     32  O   UNL     1     -12.296  10.079   6.326  0.00  0.00    +0.000 OA
ATOM     33  C   UNL     1     -11.842  10.440   7.403  0.00  0.00    +0.000 C 
BRANCH  33  34
ATOM     34  O   UNL     1     -12.228  11.546   8.104  0.00  0.00    +0.000 OA
BRANCH  34  35
ATOM     35  C   UNL     1     -12.127  11.440   9.528  0.00  0.00    +0.000 C 
ATOM     36  H   UNL     1     -12.384  12.394   9.998  0.00  0.00    +0.000 HD
ATOM     37  H   UNL     1     -12.778  10.641   9.895  0.00  0.00    +0.000 HD
ATOM     38  H   UNL     1     -11.091  11.192   9.779  0.00  0.00    +0.000 HD
ENDBRANCH  34  35
ENDBRANCH  33  34
ENDBRANCH  29  33
ENDBRANCH   2  29
TORSDOF 9
ENDMDL
MODEL 8
REMARK VINA RESULT:    -4.468     19.103     20.826
REMARK INTER + INTRA:          -7.476
REMARK INTER:                  -7.021
REMARK INTRA:                  -0.455
REMARK UNBOUND:                -0.918
REMARK  Name = 102861
REMARK  9 active torsions:
REMARK  status: ('A' for Active; 'I' for Inactive)
REMARK    1  A    between atoms: O_2  and  C_13
REMARK    2  A    between atoms: O_2  and  C_16
REMARK    3  A    between atoms: C_4  and  C_10
REMARK    4  A    between atoms: C_5  and  C_7
REMARK    5  A    between atoms: C_7  and  C_11
REMARK    6  A    between atoms: C_10  and  C_13
REMARK    7  A    between atoms: C_11  and  C_12
REMARK    8  A    between atoms: C_12  and  C_14
REMARK    9  A    between atoms: C_14  and  C_15
REMARK                            x       y       z     vdW  Elec       q    Type
REMARK                         _______ _______ _______ _____ _____    ______ ____
ROOT
ATOM      1  O   UNL     1       8.214   9.795   9.066  0.00  0.00    +0.000 OA
ATOM      2  C   UNL     1       9.202  11.057   5.887  0.00  0.00    +0.000 C 
ATOM      3  C   UNL     1       8.613   9.875   6.677  0.00  0.00    +0.000 C 
ATOM      4  C   UNL     1       8.686  12.302   6.618  0.00  0.00    +0.000 C 
ATOM      5  C   UNL     1       8.718  11.945   8.098  0.00  0.00    +0.000 C 
ATOM      6  C   UNL     1       8.482  10.457   8.070  0.00  0.00    +0.000 C 
ATOM      7  H   UNL     1       8.858  11.090   4.849  0.00  0.00    +0.000 HD
ATOM      8  H   UNL     1       9.291   9.016   6.724  0.00  0.00    +0.000 HD
ATOM      9  H   UNL     1       9.273  13.200   6.403  0.00  0.00    +0.000 HD
ATOM     10  H   UNL     1       7.652  12.506   6.313  0.00  0.00    +0.000 HD
ATOM     11  H   UNL     1       9.697  12.143   8.542  0.00  0.00    +0.000 HD
ATOM     12  H   UNL     1       7.932  12.458   8.656  0.00  0.00    +0.000 HD
ENDROOT
BRANCH   3  13
ATOM     13  C   UNL     1       7.245   9.446   6.168  0.00  0.00    +0.000 C 
ATOM     14  H   UNL     1       6.766  10.260   5.607  0.00  0.00    +0.000 HD
ATOM     15  H   UNL     1       6.586   9.240   7.021  0.00  0.00    +0.000 HD
BRANCH  13  16
ATOM     16  C   UNL     1       7.336   8.197   5.290  0.00  0.00    +0.000 C 
ATOM     17  H   UNL     1       7.866   7.406   5.835  0.00  0.00    +0.000 HD
ATOM     18  H   UNL     1       7.905   8.397   4.378  0.00  0.00    +0.000 HD
BRANCH  16  19
ATOM     19  C   UNL     1       5.948   7.693   4.888  0.00  0.00    +0.000 C 
ATOM     20  H   UNL     1       5.571   7.002   5.652  0.00  0.00    +0.000 HD
ATOM     21  H   UNL     1       5.250   8.538   4.845  0.00  0.00    +0.000 HD
BRANCH  19  22
ATOM     22  C   UNL     1       5.983   6.991   3.532  0.00  0.00    +0.000 C 
ATOM     23  H   UNL     1       4.976   6.653   3.262  0.00  0.00    +0.000 HD
ATOM     24  H   UNL     1       6.621   6.101   3.587  0.00  0.00    +0.000 HD
BRANCH  22  25
ATOM     25  C   UNL     1       6.510   7.912   2.442  0.00  0.00    +0.000 C 
ATOM     26  H   UNL     1       5.775   8.030   1.639  0.00  0.00    +0.000 HD
ATOM     27  H   UNL     1       7.425   7.499   2.007  0.00  0.00    +0.000 HD
ATOM     28  H   UNL     1       6.742   8.903   2.845  0.00  0.00    +0.000 HD
ENDBRANCH  22  25
ENDBRANCH  19  22
ENDBRANCH  16  19
ENDBRANCH  13  16
ENDBRANCH   3  13
BRANCH   2  29
ATOM     29  C   UNL     1      10.732  11.014   5.865  0.00  0.00    +0.000 C 
ATOM     30  H   UNL     1      11.084   9.990   6.036  0.00  0.00    +0.000 HD
ATOM     31  H   UNL     1      11.144  11.646   6.660  0.00  0.00    +0.000 HD
BRANCH  29  33
ATOM     32  O   UNL     1      10.856  11.221   3.446  0.00  0.00    +0.000 OA
ATOM     33  C   UNL     1      11.293  11.504   4.553  0.00  0.00    +0.000 C 
BRANCH  33  34
ATOM     34  O   UNL     1      12.365  12.313   4.807  0.00  0.00    +0.000 OA
BRANCH  34  35
ATOM     35  C   UNL     1      13.530  12.059   4.016  0.00  0.00    +0.000 C 
ATOM     36  H   UNL     1      13.649  10.984   3.852  0.00  0.00    +0.000 HD
ATOM     37  H   UNL     1      13.465  12.591   3.063  0.00  0.00    +0.000 HD
ATOM     38  H   UNL     1      14.401  12.428   4.565  0.00  0.00    +0.000 HD
ENDBRANCH  34  35
ENDBRANCH  33  34
ENDBRANCH  29  33
ENDBRANCH   2  29
TORSDOF 9
ENDMDL
MODEL 9
REMARK VINA RESULT:    -4.442      8.597     10.147
REMARK INTER + INTRA:          -7.437
REMARK INTER:                  -6.821
REMARK INTRA:                  -0.616
REMARK UNBOUND:                -0.918
REMARK  Name = 102861
REMARK  9 active torsions:
REMARK  status: ('A' for Active; 'I' for Inactive)
REMARK    1  A    between atoms: O_2  and  C_13
REMARK    2  A    between atoms: O_2  and  C_16
REMARK    3  A    between atoms: C_4  and  C_10
REMARK    4  A    between atoms: C_5  and  C_7
REMARK    5  A    between atoms: C_7  and  C_11
REMARK    6  A    between atoms: C_10  and  C_13
REMARK    7  A    between atoms: C_11  and  C_12
REMARK    8  A    between atoms: C_12  and  C_14
REMARK    9  A    between atoms: C_14  and  C_15
REMARK                            x       y       z     vdW  Elec       q    Type
REMARK                         _______ _______ _______ _____ _____    ______ ____
ROOT
ATOM      1  O   UNL     1       3.468  -2.592 -13.308  0.00  0.00    +0.000 OA
ATOM      2  C   UNL     1       3.104   0.400 -15.202  0.00  0.00    +0.000 C 
ATOM      3  C   UNL     1       2.487  -0.545 -14.156  0.00  0.00    +0.000 C 
ATOM      4  C   UNL     1       4.613   0.325 -14.945  0.00  0.00    +0.000 C 
ATOM      5  C   UNL     1       4.892  -1.131 -14.591  0.00  0.00    +0.000 C 
ATOM      6  C   UNL     1       3.600  -1.551 -13.940  0.00  0.00    +0.000 C 
ATOM      7  H   UNL     1       2.778   1.438 -15.085  0.00  0.00    +0.000 HD
ATOM      8  H   UNL     1       1.607  -1.077 -14.532  0.00  0.00    +0.000 HD
ATOM      9  H   UNL     1       5.212   0.658 -15.798  0.00  0.00    +0.000 HD
ATOM     10  H   UNL     1       4.874   0.965 -14.093  0.00  0.00    +0.000 HD
ATOM     11  H   UNL     1       5.058  -1.740 -15.483  0.00  0.00    +0.000 HD
ATOM     12  H   UNL     1       5.731  -1.225 -13.899  0.00  0.00    +0.000 HD
ENDROOT
BRANCH   3  13
ATOM     13  C   UNL     1       2.166   0.156 -12.844  0.00  0.00    +0.000 C 
ATOM     14  H   UNL     1       2.973   0.845 -12.562  0.00  0.00    +0.000 HD
ATOM     15  H   UNL     1       2.109  -0.587 -12.038  0.00  0.00    +0.000 HD
BRANCH  13  16
ATOM     16  C   UNL     1       0.841   0.916 -12.920  0.00  0.00    +0.000 C 
ATOM     17  H   UNL     1       0.845   1.570 -13.801  0.00  0.00    +0.000 HD
ATOM     18  H   UNL     1       0.702   1.556 -12.044  0.00  0.00    +0.000 HD
BRANCH  16  19
ATOM     19  C   UNL     1      -0.350  -0.041 -13.007  0.00  0.00    +0.000 C 
ATOM     20  H   UNL     1      -1.139   0.406 -13.623  0.00  0.00    +0.000 HD
ATOM     21  H   UNL     1      -0.038  -0.968 -13.505  0.00  0.00    +0.000 HD
BRANCH  19  22
ATOM     22  C   UNL     1      -0.902  -0.369 -11.621  0.00  0.00    +0.000 C 
ATOM     23  H   UNL     1      -0.528   0.358 -10.890  0.00  0.00    +0.000 HD
ATOM     24  H   UNL     1      -0.552  -1.358 -11.303  0.00  0.00    +0.000 HD
BRANCH  22  25
ATOM     25  C   UNL     1      -2.422  -0.352 -11.608  0.00  0.00    +0.000 C 
ATOM     26  H   UNL     1      -2.827  -0.746 -12.545  0.00  0.00    +0.000 HD
ATOM     27  H   UNL     1      -2.789   0.671 -11.483  0.00  0.00    +0.000 HD
ATOM     28  H   UNL     1      -2.813  -0.957 -10.783  0.00  0.00    +0.000 HD
ENDBRANCH  22  25
ENDBRANCH  19  22
ENDBRANCH  16  19
ENDBRANCH  13  16
ENDBRANCH   3  13
BRANCH   2  29
ATOM     29  C   UNL     1       2.757  -0.035 -16.629  0.00  0.00    +0.000 C 
ATOM     30  H   UNL     1       2.700  -1.129 -16.687  0.00  0.00    +0.000 HD
ATOM     31  H   UNL     1       3.531   0.297 -17.330  0.00  0.00    +0.000 HD
BRANCH  29  33
ATOM     32  O   UNL     1       0.498  -0.106 -17.523  0.00  0.00    +0.000 OA
ATOM     33  C   UNL     1       1.441   0.542 -17.091  0.00  0.00    +0.000 C 
BRANCH  33  34
ATOM     34  O   UNL     1       1.481   1.900 -16.946  0.00  0.00    +0.000 OA
BRANCH  34  35
ATOM     35  C   UNL     1       1.255   2.654 -18.142  0.00  0.00    +0.000 C 
ATOM     36  H   UNL     1       0.270   3.130 -18.108  0.00  0.00    +0.000 HD
ATOM     37  H   UNL     1       2.043   3.402 -18.272  0.00  0.00    +0.000 HD
ATOM     38  H   UNL     1       1.282   1.964 -18.990  0.00  0.00    +0.000 HD
ENDBRANCH  34  35
ENDBRANCH  33  34
ENDBRANCH  29  33
ENDBRANCH   2  29
TORSDOF 9
ENDMDL
MODEL 10
REMARK VINA RESULT:    -4.347     31.252     33.514
REMARK INTER + INTRA:          -7.298
REMARK INTER:                  -6.380
REMARK INTRA:                  -0.918
REMARK UNBOUND:                -0.918
REMARK  Name = 102861
REMARK  9 active torsions:
REMARK  status: ('A' for Active; 'I' for Inactive)
REMARK    1  A    between atoms: O_2  and  C_13
REMARK    2  A    between atoms: O_2  and  C_16
REMARK    3  A    between atoms: C_4  and  C_10
REMARK    4  A    between atoms: C_5  and  C_7
REMARK    5  A    between atoms: C_7  and  C_11
REMARK    6  A    between atoms: C_10  and  C_13
REMARK    7  A    between atoms: C_11  and  C_12
REMARK    8  A    between atoms: C_12  and  C_14
REMARK    9  A    between atoms: C_14  and  C_15
REMARK                            x       y       z     vdW  Elec       q    Type
REMARK                         _______ _______ _______ _____ _____    ______ ____
ROOT
ATOM      1  O   UNL     1     -14.394  -7.444  14.633  0.00  0.00    +0.000 OA
ATOM      2  C   UNL     1     -16.979  -5.315  15.839  0.00  0.00    +0.000 C 
ATOM      3  C   UNL     1     -15.481  -5.668  15.871  0.00  0.00    +0.000 C 
ATOM      4  C   UNL     1     -17.415  -5.623  14.403  0.00  0.00    +0.000 C 
ATOM      5  C   UNL     1     -16.653  -6.882  14.009  0.00  0.00    +0.000 C 
ATOM      6  C   UNL     1     -15.387  -6.750  14.814  0.00  0.00    +0.000 C 
ATOM      7  H   UNL     1     -17.173  -4.258  16.047  0.00  0.00    +0.000 HD
ATOM      8  H   UNL     1     -15.166  -6.092  16.830  0.00  0.00    +0.000 HD
ATOM      9  H   UNL     1     -18.497  -5.754  14.301  0.00  0.00    +0.000 HD
ATOM     10  H   UNL     1     -17.122  -4.797  13.743  0.00  0.00    +0.000 HD
ATOM     11  H   UNL     1     -17.181  -7.789  14.318  0.00  0.00    +0.000 HD
ATOM     12  H   UNL     1     -16.439  -6.908  12.939  0.00  0.00    +0.000 HD
ENDROOT
BRANCH   3  13
ATOM     13  C   UNL     1     -14.590  -4.496  15.488  0.00  0.00    +0.000 C 
ATOM     14  H   UNL     1     -15.155  -3.555  15.505  0.00  0.00    +0.000 HD
ATOM     15  H   UNL     1     -14.246  -4.623  14.453  0.00  0.00    +0.000 HD
BRANCH  13  16
ATOM     16  C   UNL     1     -13.375  -4.387  16.410  0.00  0.00    +0.000 C 
ATOM     17  H   UNL     1     -13.370  -3.403  16.894  0.00  0.00    +0.000 HD
ATOM     18  H   UNL     1     -12.442  -4.472  15.845  0.00  0.00    +0.000 HD
BRANCH  16  19
ATOM     19  C   UNL     1     -13.386  -5.478  17.483  0.00  0.00    +0.000 C 
ATOM     20  H   UNL     1     -14.284  -6.098  17.368  0.00  0.00    +0.000 HD
ATOM     21  H   UNL     1     -12.520  -6.137  17.343  0.00  0.00    +0.000 HD
BRANCH  19  22
ATOM     22  C   UNL     1     -13.350  -4.878  18.887  0.00  0.00    +0.000 C 
ATOM     23  H   UNL     1     -13.273  -3.786  18.823  0.00  0.00    +0.000 HD
ATOM     24  H   UNL     1     -12.463  -5.235  19.423  0.00  0.00    +0.000 HD
BRANCH  22  25
ATOM     25  C   UNL     1     -14.593  -5.245  19.683  0.00  0.00    +0.000 C 
ATOM     26  H   UNL     1     -15.317  -4.426  19.678  0.00  0.00    +0.000 HD
ATOM     27  H   UNL     1     -14.327  -5.459  20.722  0.00  0.00    +0.000 HD
ATOM     28  H   UNL     1     -15.076  -6.135  19.264  0.00  0.00    +0.000 HD
ENDBRANCH  22  25
ENDBRANCH  19  22
ENDBRANCH  16  19
ENDBRANCH  13  16
ENDBRANCH   3  13
BRANCH   2  29
ATOM     29  C   UNL     1     -17.774  -6.139  16.855  0.00  0.00    +0.000 C 
ATOM     30  H   UNL     1     -17.226  -7.054  17.112  0.00  0.00    +0.000 HD
ATOM     31  H   UNL     1     -18.741  -6.436  16.435  0.00  0.00    +0.000 HD
BRANCH  29  33
ATOM     32  O   UNL     1     -18.188  -4.154  18.196  0.00  0.00    +0.000 OA
ATOM     33  C   UNL     1     -18.044  -5.367  18.124  0.00  0.00    +0.000 C 
BRANCH  33  34
ATOM     34  O   UNL     1     -18.100  -6.244  19.169  0.00  0.00    +0.000 OA
BRANCH  34  35
ATOM     35  C   UNL     1     -17.634  -7.568  18.889  0.00  0.00    +0.000 C 
ATOM     36  H   UNL     1     -16.552  -7.629  19.045  0.00  0.00    +0.000 HD
ATOM     37  H   UNL     1     -18.157  -8.295  19.517  0.00  0.00    +0.000 HD
ATOM     38  H   UNL     1     -17.850  -7.790  17.840  0.00  0.00    +0.000 HD
ENDBRANCH  34  35
ENDBRANCH  33  34
ENDBRANCH  29  33
ENDBRANCH   2  29
TORSDOF 9
ENDMDL
