MODEL 1
REMARK VINA RESULT:    -4.435      0.000      0.000
REMARK INTER + INTRA:          -6.449
REMARK INTER:                  -6.162
REMARK INTRA:                  -0.287
REMARK UNBOUND:                -0.199
REMARK  Name = 8908
REMARK  8 active torsions:
REMARK  status: ('A' for Active; 'I' for Inactive)
REMARK    1  A    between atoms: O_1  and  C_7
REMARK    2  A    between atoms: O_1  and  C_9
REMARK    3  A    between atoms: C_3  and  C_4
REMARK    4  A    between atoms: C_3  and  C_5
REMARK    5  A    between atoms: C_4  and  C_6
REMARK    6  A    between atoms: C_5  and  C_7
REMARK    7  A    between atoms: C_6  and  C_8
REMARK    8  A    between atoms: C_9  and  C_10
REMARK                            x       y       z     vdW  Elec       q    Type
REMARK                         _______ _______ _______ _____ _____    ______ ____
ROOT
ATOM      1  C   UNL     1       6.547   8.032   2.051  0.00  0.00    +0.000 C 
ATOM      2  H   UNL     1       5.825   7.324   2.476  0.00  0.00    +0.000 HD
ATOM      3  H   UNL     1       7.200   7.455   1.384  0.00  0.00    +0.000 HD
ENDROOT
BRANCH   1   4
ATOM      4  C   UNL     1       7.389   8.625   3.185  0.00  0.00    +0.000 C 
ATOM      5  H   UNL     1       8.414   8.240   3.111  0.00  0.00    +0.000 HD
ATOM      6  H   UNL     1       7.450   9.712   3.049  0.00  0.00    +0.000 HD
BRANCH   4   7
ATOM      7  C   UNL     1       6.835   8.319   4.577  0.00  0.00    +0.000 C 
ATOM      8  H   UNL     1       7.651   8.317   5.309  0.00  0.00    +0.000 HD
ATOM      9  H   UNL     1       6.131   9.105   4.876  0.00  0.00    +0.000 HD
BRANCH   7  10
ATOM     10  C   UNL     1       6.132   6.970   4.609  0.00  0.00    +0.000 C 
ATOM     11  H   UNL     1       6.861   6.168   4.757  0.00  0.00    +0.000 HD
ATOM     12  H   UNL     1       5.406   6.926   5.427  0.00  0.00    +0.000 HD
ATOM     13  H   UNL     1       5.604   6.781   3.669  0.00  0.00    +0.000 HD
ENDBRANCH   7  10
ENDBRANCH   4   7
ENDBRANCH   1   4
BRANCH   1  14
ATOM     14  C   UNL     1       5.799   9.085   1.235  0.00  0.00    +0.000 C 
ATOM     15  H   UNL     1       5.926   8.893   0.162  0.00  0.00    +0.000 HD
ATOM     16  H   UNL     1       6.227  10.079   1.414  0.00  0.00    +0.000 HD
BRANCH  14  17
ATOM     17  C   UNL     1       4.315   9.105   1.575  0.00  0.00    +0.000 C 
ATOM     18  H   UNL     1       3.989   8.106   1.890  0.00  0.00    +0.000 HD
ATOM     19  H   UNL     1       4.126   9.816   2.387  0.00  0.00    +0.000 HD
BRANCH  17  20
ATOM     20  O   UNL     1       3.584   9.497   0.421  0.00  0.00    +0.000 OA
BRANCH  20  22
ATOM     21  O   UNL     1       3.275  11.678   1.117  0.00  0.00    +0.000 OA
ATOM     22  C   UNL     1       3.441  10.846   0.237  0.00  0.00    +0.000 C 
BRANCH  22  23
ATOM     23  C   UNL     1       3.517  11.171  -1.224  0.00  0.00    +0.000 C 
ATOM     24  H   UNL     1       2.538  11.027  -1.688  0.00  0.00    +0.000 HD
ATOM     25  H   UNL     1       4.269  10.541  -1.705  0.00  0.00    +0.000 HD
ATOM     26  H   UNL     1       3.810  12.218  -1.347  0.00  0.00    +0.000 HD
ENDBRANCH  22  23
ENDBRANCH  20  22
ENDBRANCH  17  20
ENDBRANCH  14  17
ENDBRANCH   1  14
TORSDOF 8
ENDMDL
MODEL 2
REMARK VINA RESULT:    -4.381      1.727      3.062
REMARK INTER + INTRA:          -6.373
REMARK INTER:                  -5.843
REMARK INTRA:                  -0.530
REMARK UNBOUND:                -0.199
REMARK  Name = 8908
REMARK  8 active torsions:
REMARK  status: ('A' for Active; 'I' for Inactive)
REMARK    1  A    between atoms: O_1  and  C_7
REMARK    2  A    between atoms: O_1  and  C_9
REMARK    3  A    between atoms: C_3  and  C_4
REMARK    4  A    between atoms: C_3  and  C_5
REMARK    5  A    between atoms: C_4  and  C_6
REMARK    6  A    between atoms: C_5  and  C_7
REMARK    7  A    between atoms: C_6  and  C_8
REMARK    8  A    between atoms: C_9  and  C_10
REMARK                            x       y       z     vdW  Elec       q    Type
REMARK                         _______ _______ _______ _____ _____    ______ ____
ROOT
ATOM      1  C   UNL     1       6.530   8.646   1.562  0.00  0.00    +0.000 C 
ATOM      2  H   UNL     1       6.926   9.587   1.965  0.00  0.00    +0.000 HD
ATOM      3  H   UNL     1       7.057   7.834   2.078  0.00  0.00    +0.000 HD
ENDROOT
BRANCH   1   4
ATOM      4  C   UNL     1       6.845   8.575   0.064  0.00  0.00    +0.000 C 
ATOM      5  H   UNL     1       7.113   7.544  -0.198  0.00  0.00    +0.000 HD
ATOM      6  H   UNL     1       5.937   8.820  -0.501  0.00  0.00    +0.000 HD
BRANCH   4   7
ATOM      7  C   UNL     1       7.976   9.513  -0.364  0.00  0.00    +0.000 C 
ATOM      8  H   UNL     1       8.476   9.920   0.523  0.00  0.00    +0.000 HD
ATOM      9  H   UNL     1       8.727   8.952  -0.932  0.00  0.00    +0.000 HD
BRANCH   7  10
ATOM     10  C   UNL     1       7.451  10.661  -1.213  0.00  0.00    +0.000 C 
ATOM     11  H   UNL     1       7.203  11.517  -0.579  0.00  0.00    +0.000 HD
ATOM     12  H   UNL     1       8.201  10.983  -1.942  0.00  0.00    +0.000 HD
ATOM     13  H   UNL     1       6.548  10.366  -1.756  0.00  0.00    +0.000 HD
ENDBRANCH   7  10
ENDBRANCH   4   7
ENDBRANCH   1   4
BRANCH   1  14
ATOM     14  C   UNL     1       5.037   8.554   1.873  0.00  0.00    +0.000 C 
ATOM     15  H   UNL     1       4.805   9.121   2.784  0.00  0.00    +0.000 HD
ATOM     16  H   UNL     1       4.757   7.515   2.087  0.00  0.00    +0.000 HD
BRANCH  14  17
ATOM     17  C   UNL     1       4.193   9.078   0.719  0.00  0.00    +0.000 C 
ATOM     18  H   UNL     1       4.802   9.149  -0.189  0.00  0.00    +0.000 HD
ATOM     19  H   UNL     1       3.350   8.403   0.534  0.00  0.00    +0.000 HD
BRANCH  17  20
ATOM     20  O   UNL     1       3.700  10.368   1.059  0.00  0.00    +0.000 OA
BRANCH  20  22
ATOM     21  O   UNL     1       4.689  12.388   0.534  0.00  0.00    +0.000 OA
ATOM     22  C   UNL     1       4.064  11.385   0.220  0.00  0.00    +0.000 C 
BRANCH  22  23
ATOM     23  C   UNL     1       3.583  11.095  -1.170  0.00  0.00    +0.000 C 
ATOM     24  H   UNL     1       2.490  11.063  -1.185  0.00  0.00    +0.000 HD
ATOM     25  H   UNL     1       4.002  10.148  -1.517  0.00  0.00    +0.000 HD
ATOM     26  H   UNL     1       3.917  11.892  -1.842  0.00  0.00    +0.000 HD
ENDBRANCH  22  23
ENDBRANCH  20  22
ENDBRANCH  17  20
ENDBRANCH  14  17
ENDBRANCH   1  14
TORSDOF 8
ENDMDL
MODEL 3
REMARK VINA RESULT:    -4.311     14.086     15.277
REMARK INTER + INTRA:          -6.275
REMARK INTER:                  -5.827
REMARK INTRA:                  -0.448
REMARK UNBOUND:                -0.199
REMARK  Name = 8908
REMARK  8 active torsions:
REMARK  status: ('A' for Active; 'I' for Inactive)
REMARK    1  A    between atoms: O_1  and  C_7
REMARK    2  A    between atoms: O_1  and  C_9
REMARK    3  A    between atoms: C_3  and  C_4
REMARK    4  A    between atoms: C_3  and  C_5
REMARK    5  A    between atoms: C_4  and  C_6
REMARK    6  A    between atoms: C_5  and  C_7
REMARK    7  A    between atoms: C_6  and  C_8
REMARK    8  A    between atoms: C_9  and  C_10
REMARK                            x       y       z     vdW  Elec       q    Type
REMARK                         _______ _______ _______ _____ _____    ______ ____
ROOT
ATOM      1  C   UNL     1      -2.750   9.678  -9.964  0.00  0.00    +0.000 C 
ATOM      2  H   UNL     1      -2.947   9.557  -8.891  0.00  0.00    +0.000 HD
ATOM      3  H   UNL     1      -3.289  10.577 -10.286  0.00  0.00    +0.000 HD
ENDROOT
BRANCH   1   4
ATOM      4  C   UNL     1      -3.309   8.464 -10.713  0.00  0.00    +0.000 C 
ATOM      5  H   UNL     1      -4.404   8.468 -10.637  0.00  0.00    +0.000 HD
ATOM      6  H   UNL     1      -3.066   8.563 -11.778  0.00  0.00    +0.000 HD
BRANCH   4   7
ATOM      7  C   UNL     1      -2.773   7.130 -10.192  0.00  0.00    +0.000 C 
ATOM      8  H   UNL     1      -2.844   6.369 -10.978  0.00  0.00    +0.000 HD
ATOM      9  H   UNL     1      -1.713   7.232  -9.933  0.00  0.00    +0.000 HD
BRANCH   7  10
ATOM     10  C   UNL     1      -3.550   6.659  -8.972  0.00  0.00    +0.000 C 
ATOM     11  H   UNL     1      -3.916   7.518  -8.402  0.00  0.00    +0.000 HD
ATOM     12  H   UNL     1      -4.413   6.053  -9.266  0.00  0.00    +0.000 HD
ATOM     13  H   UNL     1      -2.917   6.058  -8.311  0.00  0.00    +0.000 HD
ENDBRANCH   7  10
ENDBRANCH   4   7
ENDBRANCH   1   4
BRANCH   1  14
ATOM     14  C   UNL     1      -1.251   9.887 -10.179  0.00  0.00    +0.000 C 
ATOM     15  H   UNL     1      -0.691   9.022  -9.800  0.00  0.00    +0.000 HD
ATOM     16  H   UNL     1      -0.901  10.749  -9.599  0.00  0.00    +0.000 HD
BRANCH  14  17
ATOM     17  C   UNL     1      -0.923  10.100 -11.651  0.00  0.00    +0.000 C 
ATOM     18  H   UNL     1      -1.848  10.162 -12.236  0.00  0.00    +0.000 HD
ATOM     19  H   UNL     1      -0.355  11.029 -11.777  0.00  0.00    +0.000 HD
BRANCH  17  20
ATOM     20  O   UNL     1      -0.145   9.003 -12.112  0.00  0.00    +0.000 OA
BRANCH  20  22
ATOM     21  O   UNL     1       0.624   9.254 -14.275  0.00  0.00    +0.000 OA
ATOM     22  C   UNL     1      -0.162   8.788 -13.463  0.00  0.00    +0.000 C 
BRANCH  22  23
ATOM     23  C   UNL     1      -1.302   7.882 -13.821  0.00  0.00    +0.000 C 
ATOM     24  H   UNL     1      -1.061   6.854 -13.538  0.00  0.00    +0.000 HD
ATOM     25  H   UNL     1      -1.506   7.950 -14.892  0.00  0.00    +0.000 HD
ATOM     26  H   UNL     1      -2.196   8.194 -13.274  0.00  0.00    +0.000 HD
ENDBRANCH  22  23
ENDBRANCH  20  22
ENDBRANCH  17  20
ENDBRANCH  14  17
ENDBRANCH   1  14
TORSDOF 8
ENDMDL
MODEL 4
REMARK VINA RESULT:    -4.157     14.298     15.509
REMARK INTER + INTRA:          -6.058
REMARK INTER:                  -5.747
REMARK INTRA:                  -0.311
REMARK UNBOUND:                -0.199
REMARK  Name = 8908
REMARK  8 active torsions:
REMARK  status: ('A' for Active; 'I' for Inactive)
REMARK    1  A    between atoms: O_1  and  C_7
REMARK    2  A    between atoms: O_1  and  C_9
REMARK    3  A    between atoms: C_3  and  C_4
REMARK    4  A    between atoms: C_3  and  C_5
REMARK    5  A    between atoms: C_4  and  C_6
REMARK    6  A    between atoms: C_5  and  C_7
REMARK    7  A    between atoms: C_6  and  C_8
REMARK    8  A    between atoms: C_9  and  C_10
REMARK                            x       y       z     vdW  Elec       q    Type
REMARK                         _______ _______ _______ _____ _____    ______ ____
ROOT
ATOM      1  C   UNL     1      -2.921   7.424 -11.213  0.00  0.00    +0.000 C 
ATOM      2  H   UNL     1      -2.853   8.516 -11.137  0.00  0.00    +0.000 HD
ATOM      3  H   UNL     1      -3.793   7.204 -11.842  0.00  0.00    +0.000 HD
ENDROOT
BRANCH   1   4
ATOM      4  C   UNL     1      -3.153   6.842  -9.815  0.00  0.00    +0.000 C 
ATOM      5  H   UNL     1      -4.096   6.280  -9.811  0.00  0.00    +0.000 HD
ATOM      6  H   UNL     1      -2.356   6.121  -9.595  0.00  0.00    +0.000 HD
BRANCH   4   7
ATOM      7  C   UNL     1      -3.194   7.903  -8.715  0.00  0.00    +0.000 C 
ATOM      8  H   UNL     1      -4.220   8.015  -8.345  0.00  0.00    +0.000 HD
ATOM      9  H   UNL     1      -2.576   7.582  -7.867  0.00  0.00    +0.000 HD
BRANCH   7  10
ATOM     10  C   UNL     1      -2.697   9.248  -9.224  0.00  0.00    +0.000 C 
ATOM     11  H   UNL     1      -1.989   9.683  -8.513  0.00  0.00    +0.000 HD
ATOM     12  H   UNL     1      -2.189   9.138 -10.187  0.00  0.00    +0.000 HD
ATOM     13  H   UNL     1      -3.527   9.950  -9.350  0.00  0.00    +0.000 HD
ENDBRANCH   7  10
ENDBRANCH   4   7
ENDBRANCH   1   4
BRANCH   1  14
ATOM     14  C   UNL     1      -1.663   6.887 -11.894  0.00  0.00    +0.000 C 
ATOM     15  H   UNL     1      -1.925   6.398 -12.841  0.00  0.00    +0.000 HD
ATOM     16  H   UNL     1      -1.199   6.110 -11.274  0.00  0.00    +0.000 HD
BRANCH  14  17
ATOM     17  C   UNL     1      -0.653   7.995 -12.155  0.00  0.00    +0.000 C 
ATOM     18  H   UNL     1      -1.024   8.944 -11.750  0.00  0.00    +0.000 HD
ATOM     19  H   UNL     1       0.303   7.751 -11.679  0.00  0.00    +0.000 HD
BRANCH  17  20
ATOM     20  O   UNL     1      -0.464   8.123 -13.559  0.00  0.00    +0.000 OA
BRANCH  20  22
ATOM     21  O   UNL     1       0.941   9.462 -14.810  0.00  0.00    +0.000 OA
ATOM     22  C   UNL     1       0.052   9.317 -13.983  0.00  0.00    +0.000 C 
BRANCH  22  23
ATOM     23  C   UNL     1      -0.635  10.448 -13.280  0.00  0.00    +0.000 C 
ATOM     24  H   UNL     1       0.096  11.034 -12.717  0.00  0.00    +0.000 HD
ATOM     25  H   UNL     1      -1.410  10.056 -12.617  0.00  0.00    +0.000 HD
ATOM     26  H   UNL     1      -1.108  11.100 -14.021  0.00  0.00    +0.000 HD
ENDBRANCH  22  23
ENDBRANCH  20  22
ENDBRANCH  17  20
ENDBRANCH  14  17
ENDBRANCH   1  14
TORSDOF 8
ENDMDL
MODEL 5
REMARK VINA RESULT:    -4.124     27.919     28.620
REMARK INTER + INTRA:          -6.011
REMARK INTER:                  -5.785
REMARK INTRA:                  -0.226
REMARK UNBOUND:                -0.199
REMARK  Name = 8908
REMARK  8 active torsions:
REMARK  status: ('A' for Active; 'I' for Inactive)
REMARK    1  A    between atoms: O_1  and  C_7
REMARK    2  A    between atoms: O_1  and  C_9
REMARK    3  A    between atoms: C_3  and  C_4
REMARK    4  A    between atoms: C_3  and  C_5
REMARK    5  A    between atoms: C_4  and  C_6
REMARK    6  A    between atoms: C_5  and  C_7
REMARK    7  A    between atoms: C_6  and  C_8
REMARK    8  A    between atoms: C_9  and  C_10
REMARK                            x       y       z     vdW  Elec       q    Type
REMARK                         _______ _______ _______ _____ _____    ______ ____
ROOT
ATOM      1  C   UNL     1     -20.881  -1.314   4.781  0.00  0.00    +0.000 C 
ATOM      2  H   UNL     1     -20.184  -1.171   3.945  0.00  0.00    +0.000 HD
ATOM      3  H   UNL     1     -21.882  -1.069   4.404  0.00  0.00    +0.000 HD
ENDROOT
BRANCH   1   4
ATOM      4  C   UNL     1     -20.517  -0.339   5.905  0.00  0.00    +0.000 C 
ATOM      5  H   UNL     1     -19.563   0.147   5.665  0.00  0.00    +0.000 HD
ATOM      6  H   UNL     1     -21.275   0.454   5.944  0.00  0.00    +0.000 HD
BRANCH   4   7
ATOM      7  C   UNL     1     -20.411  -1.006   7.277  0.00  0.00    +0.000 C 
ATOM      8  H   UNL     1     -20.471  -2.095   7.166  0.00  0.00    +0.000 HD
ATOM      9  H   UNL     1     -19.437  -0.778   7.725  0.00  0.00    +0.000 HD
BRANCH   7  10
ATOM     10  C   UNL     1     -21.520  -0.538   8.207  0.00  0.00    +0.000 C 
ATOM     11  H   UNL     1     -22.053   0.309   7.765  0.00  0.00    +0.000 HD
ATOM     12  H   UNL     1     -22.244  -1.339   8.388  0.00  0.00    +0.000 HD
ATOM     13  H   UNL     1     -21.113  -0.217   9.172  0.00  0.00    +0.000 HD
ENDBRANCH   7  10
ENDBRANCH   4   7
ENDBRANCH   1   4
BRANCH   1  14
ATOM     14  C   UNL     1     -20.852  -2.779   5.215  0.00  0.00    +0.000 C 
ATOM     15  H   UNL     1     -21.701  -2.994   5.877  0.00  0.00    +0.000 HD
ATOM     16  H   UNL     1     -19.951  -2.982   5.806  0.00  0.00    +0.000 HD
BRANCH  14  17
ATOM     17  C   UNL     1     -20.893  -3.718   4.016  0.00  0.00    +0.000 C 
ATOM     18  H   UNL     1     -21.388  -4.657   4.292  0.00  0.00    +0.000 HD
ATOM     19  H   UNL     1     -21.445  -3.250   3.193  0.00  0.00    +0.000 HD
BRANCH  17  20
ATOM     20  O   UNL     1     -19.562  -3.990   3.600  0.00  0.00    +0.000 OA
BRANCH  20  22
ATOM     21  O   UNL     1     -18.515  -5.554   4.939  0.00  0.00    +0.000 OA
ATOM     22  C   UNL     1     -19.085  -5.235   3.905  0.00  0.00    +0.000 C 
BRANCH  22  23
ATOM     23  C   UNL     1     -19.363  -6.178   2.773  0.00  0.00    +0.000 C 
ATOM     24  H   UNL     1     -19.711  -7.137   3.166  0.00  0.00    +0.000 HD
ATOM     25  H   UNL     1     -18.460  -6.312   2.173  0.00  0.00    +0.000 HD
ATOM     26  H   UNL     1     -20.147  -5.757   2.136  0.00  0.00    +0.000 HD
ENDBRANCH  22  23
ENDBRANCH  20  22
ENDBRANCH  17  20
ENDBRANCH  14  17
ENDBRANCH   1  14
TORSDOF 8
ENDMDL
MODEL 6
REMARK VINA RESULT:    -4.035      1.788      2.664
REMARK INTER + INTRA:          -5.886
REMARK INTER:                  -5.729
REMARK INTRA:                  -0.156
REMARK UNBOUND:                -0.199
REMARK  Name = 8908
REMARK  8 active torsions:
REMARK  status: ('A' for Active; 'I' for Inactive)
REMARK    1  A    between atoms: O_1  and  C_7
REMARK    2  A    between atoms: O_1  and  C_9
REMARK    3  A    between atoms: C_3  and  C_4
REMARK    4  A    between atoms: C_3  and  C_5
REMARK    5  A    between atoms: C_4  and  C_6
REMARK    6  A    between atoms: C_5  and  C_7
REMARK    7  A    between atoms: C_6  and  C_8
REMARK    8  A    between atoms: C_9  and  C_10
REMARK                            x       y       z     vdW  Elec       q    Type
REMARK                         _______ _______ _______ _____ _____    ______ ____
ROOT
ATOM      1  C   UNL     1       6.420   7.213   4.769  0.00  0.00    +0.000 C 
ATOM      2  H   UNL     1       5.961   7.123   5.762  0.00  0.00    +0.000 HD
ATOM      3  H   UNL     1       7.074   6.342   4.642  0.00  0.00    +0.000 HD
ENDROOT
BRANCH   1   4
ATOM      4  C   UNL     1       7.270   8.487   4.728  0.00  0.00    +0.000 C 
ATOM      5  H   UNL     1       8.322   8.212   4.581  0.00  0.00    +0.000 HD
ATOM      6  H   UNL     1       6.974   9.082   3.855  0.00  0.00    +0.000 HD
BRANCH   4   7
ATOM      7  C   UNL     1       7.145   9.342   5.990  0.00  0.00    +0.000 C 
ATOM      8  H   UNL     1       6.967  10.388   5.714  0.00  0.00    +0.000 HD
ATOM      9  H   UNL     1       6.281   9.010   6.578  0.00  0.00    +0.000 HD
BRANCH   7  10
ATOM     10  C   UNL     1       8.401   9.258   6.843  0.00  0.00    +0.000 C 
ATOM     11  H   UNL     1       8.831   8.253   6.785  0.00  0.00    +0.000 HD
ATOM     12  H   UNL     1       9.157   9.971   6.499  0.00  0.00    +0.000 HD
ATOM     13  H   UNL     1       8.178   9.473   7.893  0.00  0.00    +0.000 HD
ENDBRANCH   7  10
ENDBRANCH   4   7
ENDBRANCH   1   4
BRANCH   1  14
ATOM     14  C   UNL     1       5.325   7.180   3.703  0.00  0.00    +0.000 C 
ATOM     15  H   UNL     1       4.393   7.598   4.105  0.00  0.00    +0.000 HD
ATOM     16  H   UNL     1       5.094   6.143   3.429  0.00  0.00    +0.000 HD
BRANCH  14  17
ATOM     17  C   UNL     1       5.734   7.954   2.458  0.00  0.00    +0.000 C 
ATOM     18  H   UNL     1       6.814   8.141   2.471  0.00  0.00    +0.000 HD
ATOM     19  H   UNL     1       5.480   7.380   1.559  0.00  0.00    +0.000 HD
BRANCH  17  20
ATOM     20  O   UNL     1       5.040   9.194   2.439  0.00  0.00    +0.000 OA
BRANCH  20  22
ATOM     21  O   UNL     1       2.736   9.339   2.523  0.00  0.00    +0.000 OA
ATOM     22  C   UNL     1       3.779   9.163   1.909  0.00  0.00    +0.000 C 
BRANCH  22  23
ATOM     23  C   UNL     1       3.851   8.876   0.439  0.00  0.00    +0.000 C 
ATOM     24  H   UNL     1       3.924   7.798   0.275  0.00  0.00    +0.000 HD
ATOM     25  H   UNL     1       4.710   9.392   0.003  0.00  0.00    +0.000 HD
ATOM     26  H   UNL     1       2.941   9.241  -0.046  0.00  0.00    +0.000 HD
ENDBRANCH  22  23
ENDBRANCH  20  22
ENDBRANCH  17  20
ENDBRANCH  14  17
ENDBRANCH   1  14
TORSDOF 8
ENDMDL
MODEL 7
REMARK VINA RESULT:    -3.933     14.002     15.462
REMARK INTER + INTRA:          -5.741
REMARK INTER:                  -5.516
REMARK INTRA:                  -0.225
REMARK UNBOUND:                -0.199
REMARK  Name = 8908
REMARK  8 active torsions:
REMARK  status: ('A' for Active; 'I' for Inactive)
REMARK    1  A    between atoms: O_1  and  C_7
REMARK    2  A    between atoms: O_1  and  C_9
REMARK    3  A    between atoms: C_3  and  C_4
REMARK    4  A    between atoms: C_3  and  C_5
REMARK    5  A    between atoms: C_4  and  C_6
REMARK    6  A    between atoms: C_5  and  C_7
REMARK    7  A    between atoms: C_6  and  C_8
REMARK    8  A    between atoms: C_9  and  C_10
REMARK                            x       y       z     vdW  Elec       q    Type
REMARK                         _______ _______ _______ _____ _____    ______ ____
ROOT
ATOM      1  C   UNL     1      -8.421  11.202   6.654  0.00  0.00    +0.000 C 
ATOM      2  H   UNL     1      -8.676  12.211   7.002  0.00  0.00    +0.000 HD
ATOM      3  H   UNL     1      -7.426  10.971   7.054  0.00  0.00    +0.000 HD
ENDROOT
BRANCH   1   4
ATOM      4  C   UNL     1      -8.355  11.206   5.123  0.00  0.00    +0.000 C 
ATOM      5  H   UNL     1      -8.435  10.175   4.757  0.00  0.00    +0.000 HD
ATOM      6  H   UNL     1      -9.226  11.748   4.733  0.00  0.00    +0.000 HD
BRANCH   4   7
ATOM      7  C   UNL     1      -7.076  11.839   4.572  0.00  0.00    +0.000 C 
ATOM      8  H   UNL     1      -6.242  11.134   4.668  0.00  0.00    +0.000 HD
ATOM      9  H   UNL     1      -7.199  12.053   3.504  0.00  0.00    +0.000 HD
BRANCH   7  10
ATOM     10  C   UNL     1      -6.732  13.123   5.310  0.00  0.00    +0.000 C 
ATOM     11  H   UNL     1      -6.666  12.936   6.386  0.00  0.00    +0.000 HD
ATOM     12  H   UNL     1      -5.768  13.521   4.975  0.00  0.00    +0.000 HD
ATOM     13  H   UNL     1      -7.496  13.889   5.144  0.00  0.00    +0.000 HD
ENDBRANCH   7  10
ENDBRANCH   4   7
ENDBRANCH   1   4
BRANCH   1  14
ATOM     14  C   UNL     1      -9.433  10.205   7.215  0.00  0.00    +0.000 C 
ATOM     15  H   UNL     1     -10.076   9.824   6.411  0.00  0.00    +0.000 HD
ATOM     16  H   UNL     1     -10.104  10.704   7.924  0.00  0.00    +0.000 HD
BRANCH  14  17
ATOM     17  C   UNL     1      -8.742   9.038   7.909  0.00  0.00    +0.000 C 
ATOM     18  H   UNL     1      -9.489   8.328   8.282  0.00  0.00    +0.000 HD
ATOM     19  H   UNL     1      -8.078   8.524   7.205  0.00  0.00    +0.000 HD
BRANCH  17  20
ATOM     20  O   UNL     1      -7.979   9.538   8.999  0.00  0.00    +0.000 OA
BRANCH  20  22
ATOM     21  O   UNL     1      -8.356   7.846  10.525  0.00  0.00    +0.000 OA
ATOM     22  C   UNL     1      -8.296   9.031  10.229  0.00  0.00    +0.000 C 
BRANCH  22  23
ATOM     23  C   UNL     1      -8.565  10.152  11.188  0.00  0.00    +0.000 C 
ATOM     24  H   UNL     1      -9.028  10.989  10.659  0.00  0.00    +0.000 HD
ATOM     25  H   UNL     1      -7.632  10.463  11.664  0.00  0.00    +0.000 HD
ATOM     26  H   UNL     1      -9.255   9.806  11.964  0.00  0.00    +0.000 HD
ENDBRANCH  22  23
ENDBRANCH  20  22
ENDBRANCH  17  20
ENDBRANCH  14  17
ENDBRANCH   1  14
TORSDOF 8
ENDMDL
MODEL 8
REMARK VINA RESULT:    -3.860     14.142     15.401
REMARK INTER + INTRA:          -5.639
REMARK INTER:                  -5.149
REMARK INTRA:                  -0.491
REMARK UNBOUND:                -0.199
REMARK  Name = 8908
REMARK  8 active torsions:
REMARK  status: ('A' for Active; 'I' for Inactive)
REMARK    1  A    between atoms: O_1  and  C_7
REMARK    2  A    between atoms: O_1  and  C_9
REMARK    3  A    between atoms: C_3  and  C_4
REMARK    4  A    between atoms: C_3  and  C_5
REMARK    5  A    between atoms: C_4  and  C_6
REMARK    6  A    between atoms: C_5  and  C_7
REMARK    7  A    between atoms: C_6  and  C_8
REMARK    8  A    between atoms: C_9  and  C_10
REMARK                            x       y       z     vdW  Elec       q    Type
REMARK                         _______ _______ _______ _____ _____    ______ ____
ROOT
ATOM      1  C   UNL     1      -2.740   8.667  -9.251  0.00  0.00    +0.000 C 
ATOM      2  H   UNL     1      -2.486   8.476  -8.201  0.00  0.00    +0.000 HD
ATOM      3  H   UNL     1      -3.746   9.104  -9.259  0.00  0.00    +0.000 HD
ENDROOT
BRANCH   1   4
ATOM      4  C   UNL     1      -2.768   7.334 -10.007  0.00  0.00    +0.000 C 
ATOM      5  H   UNL     1      -2.312   7.472 -10.995  0.00  0.00    +0.000 HD
ATOM      6  H   UNL     1      -2.143   6.610  -9.469  0.00  0.00    +0.000 HD
BRANCH   4   7
ATOM      7  C   UNL     1      -4.176   6.761 -10.176  0.00  0.00    +0.000 C 
ATOM      8  H   UNL     1      -4.831   7.514 -10.631  0.00  0.00    +0.000 HD
ATOM      9  H   UNL     1      -4.147   5.901 -10.855  0.00  0.00    +0.000 HD
BRANCH   7  10
ATOM     10  C   UNL     1      -4.763   6.333  -8.840  0.00  0.00    +0.000 C 
ATOM     11  H   UNL     1      -4.905   7.203  -8.192  0.00  0.00    +0.000 HD
ATOM     12  H   UNL     1      -5.735   5.848  -8.977  0.00  0.00    +0.000 HD
ATOM     13  H   UNL     1      -4.099   5.631  -8.326  0.00  0.00    +0.000 HD
ENDBRANCH   7  10
ENDBRANCH   4   7
ENDBRANCH   1   4
BRANCH   1  14
ATOM     14  C   UNL     1      -1.750   9.674  -9.833  0.00  0.00    +0.000 C 
ATOM     15  H   UNL     1      -0.875   9.768  -9.175  0.00  0.00    +0.000 HD
ATOM     16  H   UNL     1      -2.203  10.672  -9.873  0.00  0.00    +0.000 HD
BRANCH  14  17
ATOM     17  C   UNL     1      -1.295   9.269 -11.228  0.00  0.00    +0.000 C 
ATOM     18  H   UNL     1      -0.206   9.365 -11.311  0.00  0.00    +0.000 HD
ATOM     19  H   UNL     1      -1.579   8.229 -11.428  0.00  0.00    +0.000 HD
BRANCH  17  20
ATOM     20  O   UNL     1      -1.918  10.121 -12.181  0.00  0.00    +0.000 OA
BRANCH  20  22
ATOM     21  O   UNL     1      -2.756   8.682 -13.782  0.00  0.00    +0.000 OA
ATOM     22  C   UNL     1      -2.908   9.549 -12.933  0.00  0.00    +0.000 C 
BRANCH  22  23
ATOM     23  C   UNL     1      -4.234  10.145 -12.567  0.00  0.00    +0.000 C 
ATOM     24  H   UNL     1      -4.830  10.306 -13.469  0.00  0.00    +0.000 HD
ATOM     25  H   UNL     1      -4.082  11.085 -12.031  0.00  0.00    +0.000 HD
ATOM     26  H   UNL     1      -4.772   9.453 -11.912  0.00  0.00    +0.000 HD
ENDBRANCH  22  23
ENDBRANCH  20  22
ENDBRANCH  17  20
ENDBRANCH  14  17
ENDBRANCH   1  14
TORSDOF 8
ENDMDL
MODEL 9
REMARK VINA RESULT:    -3.816     27.595     28.503
REMARK INTER + INTRA:          -5.577
REMARK INTER:                  -5.348
REMARK INTRA:                  -0.229
REMARK UNBOUND:                -0.199
REMARK  Name = 8908
REMARK  8 active torsions:
REMARK  status: ('A' for Active; 'I' for Inactive)
REMARK    1  A    between atoms: O_1  and  C_7
REMARK    2  A    between atoms: O_1  and  C_9
REMARK    3  A    between atoms: C_3  and  C_4
REMARK    4  A    between atoms: C_3  and  C_5
REMARK    5  A    between atoms: C_4  and  C_6
REMARK    6  A    between atoms: C_5  and  C_7
REMARK    7  A    between atoms: C_6  and  C_8
REMARK    8  A    between atoms: C_9  and  C_10
REMARK                            x       y       z     vdW  Elec       q    Type
REMARK                         _______ _______ _______ _____ _____    ______ ____
ROOT
ATOM      1  C   UNL     1     -20.363  -4.169   4.149  0.00  0.00    +0.000 C 
ATOM      2  H   UNL     1     -21.223  -4.817   3.939  0.00  0.00    +0.000 HD
ATOM      3  H   UNL     1     -20.487  -3.269   3.535  0.00  0.00    +0.000 HD
ENDROOT
BRANCH   1   4
ATOM      4  C   UNL     1     -19.081  -4.892   3.723  0.00  0.00    +0.000 C 
ATOM      5  H   UNL     1     -18.221  -4.416   4.210  0.00  0.00    +0.000 HD
ATOM      6  H   UNL     1     -19.119  -5.926   4.089  0.00  0.00    +0.000 HD
BRANCH   4   7
ATOM      7  C   UNL     1     -18.862  -4.898   2.209  0.00  0.00    +0.000 C 
ATOM      8  H   UNL     1     -19.319  -5.793   1.772  0.00  0.00    +0.000 HD
ATOM      9  H   UNL     1     -19.355  -4.028   1.760  0.00  0.00    +0.000 HD
BRANCH   7  10
ATOM     10  C   UNL     1     -17.380  -4.876   1.864  0.00  0.00    +0.000 C 
ATOM     11  H   UNL     1     -17.029  -3.844   1.771  0.00  0.00    +0.000 HD
ATOM     12  H   UNL     1     -16.789  -5.367   2.644  0.00  0.00    +0.000 HD
ATOM     13  H   UNL     1     -17.190  -5.387   0.915  0.00  0.00    +0.000 HD
ENDBRANCH   7  10
ENDBRANCH   4   7
ENDBRANCH   1   4
BRANCH   1  14
ATOM     14  C   UNL     1     -20.377  -3.777   5.626  0.00  0.00    +0.000 C 
ATOM     15  H   UNL     1     -19.602  -3.025   5.825  0.00  0.00    +0.000 HD
ATOM     16  H   UNL     1     -20.122  -4.642   6.250  0.00  0.00    +0.000 HD
BRANCH  14  17
ATOM     17  C   UNL     1     -21.735  -3.231   6.046  0.00  0.00    +0.000 C 
ATOM     18  H   UNL     1     -22.534  -3.786   5.542  0.00  0.00    +0.000 HD
ATOM     19  H   UNL     1     -21.859  -3.329   7.130  0.00  0.00    +0.000 HD
BRANCH  17  20
ATOM     20  O   UNL     1     -21.811  -1.859   5.682  0.00  0.00    +0.000 OA
BRANCH  20  22
ATOM     21  O   UNL     1     -20.839  -1.015   7.600  0.00  0.00    +0.000 OA
ATOM     22  C   UNL     1     -21.003  -1.010   6.389  0.00  0.00    +0.000 C 
BRANCH  22  23
ATOM     23  C   UNL     1     -20.330  -0.051   5.453  0.00  0.00    +0.000 C 
ATOM     24  H   UNL     1     -19.593   0.544   5.998  0.00  0.00    +0.000 HD
ATOM     25  H   UNL     1     -21.078   0.595   4.985  0.00  0.00    +0.000 HD
ATOM     26  H   UNL     1     -19.814  -0.612   4.669  0.00  0.00    +0.000 HD
ENDBRANCH  22  23
ENDBRANCH  20  22
ENDBRANCH  17  20
ENDBRANCH  14  17
ENDBRANCH   1  14
TORSDOF 8
ENDMDL
MODEL 10
REMARK VINA RESULT:    -3.738     17.384     18.510
REMARK INTER + INTRA:          -5.467
REMARK INTER:                  -5.268
REMARK INTRA:                  -0.199
REMARK UNBOUND:                -0.199
REMARK  Name = 8908
REMARK  8 active torsions:
REMARK  status: ('A' for Active; 'I' for Inactive)
REMARK    1  A    between atoms: O_1  and  C_7
REMARK    2  A    between atoms: O_1  and  C_9
REMARK    3  A    between atoms: C_3  and  C_4
REMARK    4  A    between atoms: C_3  and  C_5
REMARK    5  A    between atoms: C_4  and  C_6
REMARK    6  A    between atoms: C_5  and  C_7
REMARK    7  A    between atoms: C_6  and  C_8
REMARK    8  A    between atoms: C_9  and  C_10
REMARK                            x       y       z     vdW  Elec       q    Type
REMARK                         _______ _______ _______ _____ _____    ______ ____
ROOT
ATOM      1  C   UNL     1      -0.138   0.361 -12.736  0.00  0.00    +0.000 C 
ATOM      2  H   UNL     1      -0.552   1.272 -12.286  0.00  0.00    +0.000 HD
ATOM      3  H   UNL     1      -0.349   0.415 -13.811  0.00  0.00    +0.000 HD
ENDROOT
BRANCH   1   4
ATOM      4  C   UNL     1      -0.856  -0.856 -12.145  0.00  0.00    +0.000 C 
ATOM      5  H   UNL     1      -1.051  -1.581 -12.945  0.00  0.00    +0.000 HD
ATOM      6  H   UNL     1      -0.187  -1.349 -11.429  0.00  0.00    +0.000 HD
BRANCH   4   7
ATOM      7  C   UNL     1      -2.174  -0.506 -11.451  0.00  0.00    +0.000 C 
ATOM      8  H   UNL     1      -2.531   0.469 -11.802  0.00  0.00    +0.000 HD
ATOM      9  H   UNL     1      -2.939  -1.247 -11.713  0.00  0.00    +0.000 HD
BRANCH   7  10
ATOM     10  C   UNL     1      -2.007  -0.462  -9.939  0.00  0.00    +0.000 C 
ATOM     11  H   UNL     1      -1.503  -1.366  -9.588  0.00  0.00    +0.000 HD
ATOM     12  H   UNL     1      -1.408   0.402  -9.637  0.00  0.00    +0.000 HD
ATOM     13  H   UNL     1      -2.979  -0.398  -9.440  0.00  0.00    +0.000 HD
ENDBRANCH   7  10
ENDBRANCH   4   7
ENDBRANCH   1   4
BRANCH   1  14
ATOM     14  C   UNL     1       1.375   0.337 -12.521  0.00  0.00    +0.000 C 
ATOM     15  H   UNL     1       1.614  -0.156 -11.570  0.00  0.00    +0.000 HD
ATOM     16  H   UNL     1       1.762   1.359 -12.434  0.00  0.00    +0.000 HD
BRANCH  14  17
ATOM     17  C   UNL     1       2.089  -0.380 -13.659  0.00  0.00    +0.000 C 
ATOM     18  H   UNL     1       1.649  -1.373 -13.812  0.00  0.00    +0.000 HD
ATOM     19  H   UNL     1       1.995   0.200 -14.585  0.00  0.00    +0.000 HD
BRANCH  17  20
ATOM     20  O   UNL     1       3.463  -0.519 -13.325  0.00  0.00    +0.000 OA
BRANCH  20  22
ATOM     21  O   UNL     1       5.499  -0.778 -14.384  0.00  0.00    +0.000 OA
ATOM     22  C   UNL     1       4.346  -0.374 -14.360  0.00  0.00    +0.000 C 
BRANCH  22  23
ATOM     23  C   UNL     1       3.690   0.364 -15.488  0.00  0.00    +0.000 C 
ATOM     24  H   UNL     1       3.914   1.432 -15.412  0.00  0.00    +0.000 HD
ATOM     25  H   UNL     1       2.611   0.194 -15.465  0.00  0.00    +0.000 HD
ATOM     26  H   UNL     1       4.082  -0.007 -16.439  0.00  0.00    +0.000 HD
ENDBRANCH  22  23
ENDBRANCH  20  22
ENDBRANCH  17  20
ENDBRANCH  14  17
ENDBRANCH   1  14
TORSDOF 8
ENDMDL
