MODEL 1
REMARK VINA RESULT:    -4.312      0.000      0.000
REMARK INTER + INTRA:          -5.823
REMARK INTER:                  -5.640
REMARK INTRA:                  -0.183
REMARK UNBOUND:                -0.124
REMARK  Name = 31276
REMARK  7 active torsions:
REMARK  status: ('A' for Active; 'I' for Inactive)
REMARK    1  A    between atoms: O_1  and  C_5
REMARK    2  A    between atoms: O_1  and  C_8
REMARK    3  A    between atoms: C_3  and  C_4
REMARK    4  A    between atoms: C_3  and  C_6
REMARK    5  A    between atoms: C_3  and  C_7
REMARK    6  A    between atoms: C_4  and  C_5
REMARK    7  A    between atoms: C_8  and  C_9
REMARK                            x       y       z     vdW  Elec       q    Type
REMARK                         _______ _______ _______ _____ _____    ______ ____
ROOT
ATOM      1  C   UNL     1       4.172   8.870   2.511  0.00  0.00    +0.000 C 
ATOM      2  H   UNL     1       4.018   9.710   3.200  0.00  0.00    +0.000 HD
ATOM      3  H   UNL     1       3.493   8.082   2.860  0.00  0.00    +0.000 HD
ENDROOT
BRANCH   1   4
ATOM      4  C   UNL     1       3.760   9.292   1.106  0.00  0.00    +0.000 C 
ATOM      5  H   UNL     1       4.611   9.238   0.419  0.00  0.00    +0.000 HD
ATOM      6  H   UNL     1       2.950   8.658   0.729  0.00  0.00    +0.000 HD
BRANCH   4   7
ATOM      7  O   UNL     1       3.293  10.634   1.151  0.00  0.00    +0.000 OA
BRANCH   7   9
ATOM      8  O   UNL     1       4.696  12.383   0.598  0.00  0.00    +0.000 OA
ATOM      9  C   UNL     1       3.901  11.505   0.292  0.00  0.00    +0.000 C 
BRANCH   9  10
ATOM     10  C   UNL     1       3.453  11.234  -1.113  0.00  0.00    +0.000 C 
ATOM     11  H   UNL     1       2.417  10.888  -1.111  0.00  0.00    +0.000 HD
ATOM     12  H   UNL     1       4.107  10.486  -1.572  0.00  0.00    +0.000 HD
ATOM     13  H   UNL     1       3.513  12.155  -1.698  0.00  0.00    +0.000 HD
ENDBRANCH   9  10
ENDBRANCH   7   9
ENDBRANCH   4   7
ENDBRANCH   1   4
BRANCH   1  14
ATOM     14  C   UNL     1       5.627   8.380   2.608  0.00  0.00    +0.000 C 
ATOM     15  H   UNL     1       6.185   9.105   3.213  0.00  0.00    +0.000 HD
BRANCH  14  16
ATOM     16  C   UNL     1       5.673   7.021   3.309  0.00  0.00    +0.000 C 
ATOM     17  H   UNL     1       6.579   6.479   3.016  0.00  0.00    +0.000 HD
ATOM     18  H   UNL     1       4.821   6.386   3.048  0.00  0.00    +0.000 HD
ATOM     19  H   UNL     1       5.699   7.139   4.397  0.00  0.00    +0.000 HD
ENDBRANCH  14  16
BRANCH  14  20
ATOM     20  C   UNL     1       6.299   8.278   1.238  0.00  0.00    +0.000 C 
ATOM     21  H   UNL     1       5.687   8.711   0.442  0.00  0.00    +0.000 HD
ATOM     22  H   UNL     1       6.478   7.228   0.981  0.00  0.00    +0.000 HD
ATOM     23  H   UNL     1       7.268   8.788   1.242  0.00  0.00    +0.000 HD
ENDBRANCH  14  20
ENDBRANCH   1  14
TORSDOF 7
ENDMDL
MODEL 2
REMARK VINA RESULT:    -4.199      2.499      3.689
REMARK INTER + INTRA:          -5.674
REMARK INTER:                  -5.386
REMARK INTRA:                  -0.288
REMARK UNBOUND:                -0.124
REMARK  Name = 31276
REMARK  7 active torsions:
REMARK  status: ('A' for Active; 'I' for Inactive)
REMARK    1  A    between atoms: O_1  and  C_5
REMARK    2  A    between atoms: O_1  and  C_8
REMARK    3  A    between atoms: C_3  and  C_4
REMARK    4  A    between atoms: C_3  and  C_6
REMARK    5  A    between atoms: C_3  and  C_7
REMARK    6  A    between atoms: C_4  and  C_5
REMARK    7  A    between atoms: C_8  and  C_9
REMARK                            x       y       z     vdW  Elec       q    Type
REMARK                         _______ _______ _______ _____ _____    ______ ____
ROOT
ATOM      1  C   UNL     1       7.172  10.897  -1.159  0.00  0.00    +0.000 C 
ATOM      2  H   UNL     1       6.561  10.489  -1.973  0.00  0.00    +0.000 HD
ATOM      3  H   UNL     1       7.776  11.690  -1.619  0.00  0.00    +0.000 HD
ENDROOT
BRANCH   1   4
ATOM      4  C   UNL     1       6.259  11.518  -0.108  0.00  0.00    +0.000 C 
ATOM      5  H   UNL     1       6.427  11.060   0.872  0.00  0.00    +0.000 HD
ATOM      6  H   UNL     1       6.424  12.598  -0.036  0.00  0.00    +0.000 HD
BRANCH   4   7
ATOM      7  O   UNL     1       4.908  11.297  -0.491  0.00  0.00    +0.000 OA
BRANCH   7   9
ATOM      8  O   UNL     1       3.283  11.660   1.110  0.00  0.00    +0.000 OA
ATOM      9  C   UNL     1       4.058  10.926   0.513  0.00  0.00    +0.000 C 
BRANCH   9  10
ATOM     10  C   UNL     1       4.207   9.460   0.793  0.00  0.00    +0.000 C 
ATOM     11  H   UNL     1       3.819   8.882  -0.049  0.00  0.00    +0.000 HD
ATOM     12  H   UNL     1       3.675   9.204   1.713  0.00  0.00    +0.000 HD
ATOM     13  H   UNL     1       5.265   9.220   0.923  0.00  0.00    +0.000 HD
ENDBRANCH   9  10
ENDBRANCH   7   9
ENDBRANCH   4   7
ENDBRANCH   1   4
BRANCH   1  14
ATOM     14  C   UNL     1       8.096   9.799  -0.605  0.00  0.00    +0.000 C 
ATOM     15  H   UNL     1       7.754   8.838  -1.009  0.00  0.00    +0.000 HD
BRANCH  14  16
ATOM     16  C   UNL     1       9.533  10.043  -1.072  0.00  0.00    +0.000 C 
ATOM     17  H   UNL     1      10.188  10.185  -0.206  0.00  0.00    +0.000 HD
ATOM     18  H   UNL     1       9.625  10.938  -1.694  0.00  0.00    +0.000 HD
ATOM     19  H   UNL     1       9.915   9.186  -1.636  0.00  0.00    +0.000 HD
ENDBRANCH  14  16
BRANCH  14  20
ATOM     20  C   UNL     1       8.056   9.720   0.922  0.00  0.00    +0.000 C 
ATOM     21  H   UNL     1       8.440  10.629   1.395  0.00  0.00    +0.000 HD
ATOM     22  H   UNL     1       8.667   8.883   1.275  0.00  0.00    +0.000 HD
ATOM     23  H   UNL     1       7.032   9.557   1.276  0.00  0.00    +0.000 HD
ENDBRANCH  14  20
ENDBRANCH   1  14
TORSDOF 7
ENDMDL
MODEL 3
REMARK VINA RESULT:    -4.137     13.158     14.026
REMARK INTER + INTRA:          -5.591
REMARK INTER:                  -5.294
REMARK INTRA:                  -0.297
REMARK UNBOUND:                -0.124
REMARK  Name = 31276
REMARK  7 active torsions:
REMARK  status: ('A' for Active; 'I' for Inactive)
REMARK    1  A    between atoms: O_1  and  C_5
REMARK    2  A    between atoms: O_1  and  C_8
REMARK    3  A    between atoms: C_3  and  C_4
REMARK    4  A    between atoms: C_3  and  C_6
REMARK    5  A    between atoms: C_3  and  C_7
REMARK    6  A    between atoms: C_4  and  C_5
REMARK    7  A    between atoms: C_8  and  C_9
REMARK                            x       y       z     vdW  Elec       q    Type
REMARK                         _______ _______ _______ _____ _____    ______ ____
ROOT
ATOM      1  C   UNL     1      -2.761   8.441  -9.274  0.00  0.00    +0.000 C 
ATOM      2  H   UNL     1      -1.821   8.440  -8.709  0.00  0.00    +0.000 HD
ATOM      3  H   UNL     1      -3.517   8.825  -8.577  0.00  0.00    +0.000 HD
ENDROOT
BRANCH   1   4
ATOM      4  C   UNL     1      -2.638   9.403 -10.449  0.00  0.00    +0.000 C 
ATOM      5  H   UNL     1      -2.947   8.919 -11.381  0.00  0.00    +0.000 HD
ATOM      6  H   UNL     1      -3.248  10.299 -10.287  0.00  0.00    +0.000 HD
BRANCH   4   7
ATOM      7  O   UNL     1      -1.280   9.805 -10.570  0.00  0.00    +0.000 OA
BRANCH   7   9
ATOM      8  O   UNL     1      -0.690  10.819 -12.560  0.00  0.00    +0.000 OA
ATOM      9  C   UNL     1      -0.779   9.833 -11.842  0.00  0.00    +0.000 C 
BRANCH   9  10
ATOM     10  C   UNL     1      -0.340   8.458 -12.248  0.00  0.00    +0.000 C 
ATOM     11  H   UNL     1      -0.493   8.322 -13.321  0.00  0.00    +0.000 HD
ATOM     12  H   UNL     1      -0.901   7.709 -11.681  0.00  0.00    +0.000 HD
ATOM     13  H   UNL     1       0.724   8.336 -12.029  0.00  0.00    +0.000 HD
ENDBRANCH   9  10
ENDBRANCH   7   9
ENDBRANCH   4   7
ENDBRANCH   1   4
BRANCH   1  14
ATOM     14  C   UNL     1      -3.119   7.003  -9.686  0.00  0.00    +0.000 C 
ATOM     15  H   UNL     1      -2.236   6.376  -9.513  0.00  0.00    +0.000 HD
BRANCH  14  16
ATOM     16  C   UNL     1      -4.266   6.484  -8.818  0.00  0.00    +0.000 C 
ATOM     17  H   UNL     1      -4.655   7.292  -8.188  0.00  0.00    +0.000 HD
ATOM     18  H   UNL     1      -3.953   5.678  -8.147  0.00  0.00    +0.000 HD
ATOM     19  H   UNL     1      -5.095   6.120  -9.435  0.00  0.00    +0.000 HD
ENDBRANCH  14  16
BRANCH  14  20
ATOM     20  C   UNL     1      -3.502   6.900 -11.163  0.00  0.00    +0.000 C 
ATOM     21  H   UNL     1      -3.406   5.879 -11.546  0.00  0.00    +0.000 HD
ATOM     22  H   UNL     1      -2.853   7.540 -11.769  0.00  0.00    +0.000 HD
ATOM     23  H   UNL     1      -4.534   7.229 -11.321  0.00  0.00    +0.000 HD
ENDBRANCH  14  20
ENDBRANCH   1  14
TORSDOF 7
ENDMDL
MODEL 4
REMARK VINA RESULT:    -4.132     13.489     14.361
REMARK INTER + INTRA:          -5.585
REMARK INTER:                  -5.338
REMARK INTRA:                  -0.246
REMARK UNBOUND:                -0.124
REMARK  Name = 31276
REMARK  7 active torsions:
REMARK  status: ('A' for Active; 'I' for Inactive)
REMARK    1  A    between atoms: O_1  and  C_5
REMARK    2  A    between atoms: O_1  and  C_8
REMARK    3  A    between atoms: C_3  and  C_4
REMARK    4  A    between atoms: C_3  and  C_6
REMARK    5  A    between atoms: C_3  and  C_7
REMARK    6  A    between atoms: C_4  and  C_5
REMARK    7  A    between atoms: C_8  and  C_9
REMARK                            x       y       z     vdW  Elec       q    Type
REMARK                         _______ _______ _______ _____ _____    ______ ____
ROOT
ATOM      1  C   UNL     1      -3.077   6.863 -10.877  0.00  0.00    +0.000 C 
ATOM      2  H   UNL     1      -3.750   7.613 -11.311  0.00  0.00    +0.000 HD
ATOM      3  H   UNL     1      -3.454   5.896 -11.232  0.00  0.00    +0.000 HD
ENDROOT
BRANCH   1   4
ATOM      4  C   UNL     1      -1.670   7.077 -11.423  0.00  0.00    +0.000 C 
ATOM      5  H   UNL     1      -1.003   7.451 -10.640  0.00  0.00    +0.000 HD
ATOM      6  H   UNL     1      -1.263   6.145 -11.831  0.00  0.00    +0.000 HD
BRANCH   4   7
ATOM      7  O   UNL     1      -1.728   8.035 -12.471  0.00  0.00    +0.000 OA
BRANCH   7   9
ATOM      8  O   UNL     1       0.219   8.938 -13.325  0.00  0.00    +0.000 OA
ATOM      9  C   UNL     1      -0.699   8.932 -12.515  0.00  0.00    +0.000 C 
BRANCH   9  10
ATOM     10  C   UNL     1      -0.848   9.935 -11.411  0.00  0.00    +0.000 C 
ATOM     11  H   UNL     1      -0.574  10.929 -11.774  0.00  0.00    +0.000 HD
ATOM     12  H   UNL     1      -0.218   9.648 -10.563  0.00  0.00    +0.000 HD
ATOM     13  H   UNL     1      -1.889   9.959 -11.079  0.00  0.00    +0.000 HD
ENDBRANCH   9  10
ENDBRANCH   7   9
ENDBRANCH   4   7
ENDBRANCH   1   4
BRANCH   1  14
ATOM     14  C   UNL     1      -3.160   6.920  -9.342  0.00  0.00    +0.000 C 
ATOM     15  H   UNL     1      -2.347   6.303  -8.939  0.00  0.00    +0.000 HD
BRANCH  14  16
ATOM     16  C   UNL     1      -2.966   8.360  -8.863  0.00  0.00    +0.000 C 
ATOM     17  H   UNL     1      -3.066   9.051  -9.706  0.00  0.00    +0.000 HD
ATOM     18  H   UNL     1      -1.976   8.526  -8.428  0.00  0.00    +0.000 HD
ATOM     19  H   UNL     1      -3.723   8.634  -8.121  0.00  0.00    +0.000 HD
ENDBRANCH  14  16
BRANCH  14  20
ATOM     20  C   UNL     1      -4.486   6.374  -8.811  0.00  0.00    +0.000 C 
ATOM     21  H   UNL     1      -5.329   7.031  -9.044  0.00  0.00    +0.000 HD
ATOM     22  H   UNL     1      -4.444   6.268  -7.722  0.00  0.00    +0.000 HD
ATOM     23  H   UNL     1      -4.696   5.385  -9.232  0.00  0.00    +0.000 HD
ENDBRANCH  14  20
ENDBRANCH   1  14
TORSDOF 7
ENDMDL
MODEL 5
REMARK VINA RESULT:    -3.908     12.708     14.247
REMARK INTER + INTRA:          -5.288
REMARK INTER:                  -4.946
REMARK INTRA:                  -0.342
REMARK UNBOUND:                -0.124
REMARK  Name = 31276
REMARK  7 active torsions:
REMARK  status: ('A' for Active; 'I' for Inactive)
REMARK    1  A    between atoms: O_1  and  C_5
REMARK    2  A    between atoms: O_1  and  C_8
REMARK    3  A    between atoms: C_3  and  C_4
REMARK    4  A    between atoms: C_3  and  C_6
REMARK    5  A    between atoms: C_3  and  C_7
REMARK    6  A    between atoms: C_4  and  C_5
REMARK    7  A    between atoms: C_8  and  C_9
REMARK                            x       y       z     vdW  Elec       q    Type
REMARK                         _______ _______ _______ _____ _____    ______ ____
ROOT
ATOM      1  C   UNL     1      -3.041   9.977 -10.081  0.00  0.00    +0.000 C 
ATOM      2  H   UNL     1      -4.073   9.606 -10.108  0.00  0.00    +0.000 HD
ATOM      3  H   UNL     1      -3.110  10.996  -9.678  0.00  0.00    +0.000 HD
ENDROOT
BRANCH   1   4
ATOM      4  C   UNL     1      -2.224   9.120  -9.122  0.00  0.00    +0.000 C 
ATOM      5  H   UNL     1      -1.419   8.603  -9.653  0.00  0.00    +0.000 HD
ATOM      6  H   UNL     1      -1.795   9.731  -8.320  0.00  0.00    +0.000 HD
BRANCH   4   7
ATOM      7  O   UNL     1      -3.081   8.150  -8.534  0.00  0.00    +0.000 OA
BRANCH   7   9
ATOM      8  O   UNL     1      -2.603   6.599 -10.177  0.00  0.00    +0.000 OA
ATOM      9  C   UNL     1      -3.318   7.033  -9.284  0.00  0.00    +0.000 C 
BRANCH   9  10
ATOM     10  C   UNL     1      -4.605   6.394  -8.856  0.00  0.00    +0.000 C 
ATOM     11  H   UNL     1      -4.446   5.821  -7.939  0.00  0.00    +0.000 HD
ATOM     12  H   UNL     1      -4.980   5.747  -9.654  0.00  0.00    +0.000 HD
ATOM     13  H   UNL     1      -5.348   7.170  -8.657  0.00  0.00    +0.000 HD
ENDBRANCH   9  10
ENDBRANCH   7   9
ENDBRANCH   4   7
ENDBRANCH   1   4
BRANCH   1  14
ATOM     14  C   UNL     1      -2.470  10.023 -11.509  0.00  0.00    +0.000 C 
ATOM     15  H   UNL     1      -2.501  11.065 -11.849  0.00  0.00    +0.000 HD
BRANCH  14  16
ATOM     16  C   UNL     1      -1.014   9.554 -11.503  0.00  0.00    +0.000 C 
ATOM     17  H   UNL     1      -0.420  10.167 -12.189  0.00  0.00    +0.000 HD
ATOM     18  H   UNL     1      -0.907   8.514 -11.828  0.00  0.00    +0.000 HD
ATOM     19  H   UNL     1      -0.572   9.654 -10.506  0.00  0.00    +0.000 HD
ENDBRANCH  14  16
BRANCH  14  20
ATOM     20  C   UNL     1      -3.282   9.174 -12.488  0.00  0.00    +0.000 C 
ATOM     21  H   UNL     1      -4.061   8.591 -11.985  0.00  0.00    +0.000 HD
ATOM     22  H   UNL     1      -2.629   8.467 -13.010  0.00  0.00    +0.000 HD
ATOM     23  H   UNL     1      -3.761   9.804 -13.244  0.00  0.00    +0.000 HD
ENDBRANCH  14  20
ENDBRANCH   1  14
TORSDOF 7
ENDMDL
MODEL 6
REMARK VINA RESULT:    -3.751      2.349      3.678
REMARK INTER + INTRA:          -5.081
REMARK INTER:                  -4.802
REMARK INTRA:                  -0.279
REMARK UNBOUND:                -0.124
REMARK  Name = 31276
REMARK  7 active torsions:
REMARK  status: ('A' for Active; 'I' for Inactive)
REMARK    1  A    between atoms: O_1  and  C_5
REMARK    2  A    between atoms: O_1  and  C_8
REMARK    3  A    between atoms: C_3  and  C_4
REMARK    4  A    between atoms: C_3  and  C_6
REMARK    5  A    between atoms: C_3  and  C_7
REMARK    6  A    between atoms: C_4  and  C_5
REMARK    7  A    between atoms: C_8  and  C_9
REMARK                            x       y       z     vdW  Elec       q    Type
REMARK                         _______ _______ _______ _____ _____    ______ ____
ROOT
ATOM      1  C   UNL     1       4.919   8.950   0.305  0.00  0.00    +0.000 C 
ATOM      2  H   UNL     1       4.689   9.375  -0.681  0.00  0.00    +0.000 HD
ATOM      3  H   UNL     1       4.411   7.978   0.326  0.00  0.00    +0.000 HD
ENDROOT
BRANCH   1   4
ATOM      4  C   UNL     1       6.422   8.727   0.416  0.00  0.00    +0.000 C 
ATOM      5  H   UNL     1       6.666   8.180   1.333  0.00  0.00    +0.000 HD
ATOM      6  H   UNL     1       6.800   8.171  -0.448  0.00  0.00    +0.000 HD
BRANCH   4   7
ATOM      7  O   UNL     1       7.070   9.991   0.452  0.00  0.00    +0.000 OA
BRANCH   7   9
ATOM      8  O   UNL     1       6.748  11.468  -1.294  0.00  0.00    +0.000 OA
ATOM      9  C   UNL     1       7.355  10.549  -0.763  0.00  0.00    +0.000 C 
BRANCH   9  10
ATOM     10  C   UNL     1       8.542   9.866  -1.372  0.00  0.00    +0.000 C 
ATOM     11  H   UNL     1       8.407   9.783  -2.453  0.00  0.00    +0.000 HD
ATOM     12  H   UNL     1       8.670   8.876  -0.924  0.00  0.00    +0.000 HD
ATOM     13  H   UNL     1       9.442  10.456  -1.177  0.00  0.00    +0.000 HD
ENDBRANCH   9  10
ENDBRANCH   7   9
ENDBRANCH   4   7
ENDBRANCH   1   4
BRANCH   1  14
ATOM     14  C   UNL     1       4.345   9.858   1.406  0.00  0.00    +0.000 C 
ATOM     15  H   UNL     1       5.179  10.186   2.038  0.00  0.00    +0.000 HD
BRANCH  14  16
ATOM     16  C   UNL     1       3.694  11.091   0.776  0.00  0.00    +0.000 C 
ATOM     17  H   UNL     1       2.654  10.871   0.511  0.00  0.00    +0.000 HD
ATOM     18  H   UNL     1       4.198  11.410  -0.141  0.00  0.00    +0.000 HD
ATOM     19  H   UNL     1       3.682  11.933   1.478  0.00  0.00    +0.000 HD
ENDBRANCH  14  16
BRANCH  14  20
ATOM     20  C   UNL     1       3.329   9.132   2.288  0.00  0.00    +0.000 C 
ATOM     21  H   UNL     1       3.806   8.582   3.105  0.00  0.00    +0.000 HD
ATOM     22  H   UNL     1       2.759   8.409   1.694  0.00  0.00    +0.000 HD
ATOM     23  H   UNL     1       2.615   9.840   2.722  0.00  0.00    +0.000 HD
ENDBRANCH  14  20
ENDBRANCH   1  14
TORSDOF 7
ENDMDL
MODEL 7
REMARK VINA RESULT:    -3.684     27.418     28.292
REMARK INTER + INTRA:          -4.993
REMARK INTER:                  -4.861
REMARK INTRA:                  -0.131
REMARK UNBOUND:                -0.124
REMARK  Name = 31276
REMARK  7 active torsions:
REMARK  status: ('A' for Active; 'I' for Inactive)
REMARK    1  A    between atoms: O_1  and  C_5
REMARK    2  A    between atoms: O_1  and  C_8
REMARK    3  A    between atoms: C_3  and  C_4
REMARK    4  A    between atoms: C_3  and  C_6
REMARK    5  A    between atoms: C_3  and  C_7
REMARK    6  A    between atoms: C_4  and  C_5
REMARK    7  A    between atoms: C_8  and  C_9
REMARK                            x       y       z     vdW  Elec       q    Type
REMARK                         _______ _______ _______ _____ _____    ______ ____
ROOT
ATOM      1  C   UNL     1     -19.158  -4.928   3.993  0.00  0.00    +0.000 C 
ATOM      2  H   UNL     1     -18.210  -4.630   4.458  0.00  0.00    +0.000 HD
ATOM      3  H   UNL     1     -19.404  -5.901   4.437  0.00  0.00    +0.000 HD
ENDROOT
BRANCH   1   4
ATOM      4  C   UNL     1     -20.239  -3.923   4.371  0.00  0.00    +0.000 C 
ATOM      5  H   UNL     1     -20.003  -2.930   3.975  0.00  0.00    +0.000 HD
ATOM      6  H   UNL     1     -21.217  -4.240   3.994  0.00  0.00    +0.000 HD
BRANCH   4   7
ATOM      7  O   UNL     1     -20.312  -3.843   5.789  0.00  0.00    +0.000 OA
BRANCH   7   9
ATOM      8  O   UNL     1     -21.106  -2.453   7.454  0.00  0.00    +0.000 OA
ATOM      9  C   UNL     1     -20.771  -2.660   6.295  0.00  0.00    +0.000 C 
BRANCH   9  10
ATOM     10  C   UNL     1     -20.808  -1.622   5.214  0.00  0.00    +0.000 C 
ATOM     11  H   UNL     1     -21.834  -1.488   4.865  0.00  0.00    +0.000 HD
ATOM     12  H   UNL     1     -20.156  -1.924   4.389  0.00  0.00    +0.000 HD
ATOM     13  H   UNL     1     -20.448  -0.669   5.612  0.00  0.00    +0.000 HD
ENDBRANCH   9  10
ENDBRANCH   7   9
ENDBRANCH   4   7
ENDBRANCH   1   4
BRANCH   1  14
ATOM     14  C   UNL     1     -18.963  -5.086   2.476  0.00  0.00    +0.000 C 
ATOM     15  H   UNL     1     -19.554  -4.307   1.979  0.00  0.00    +0.000 HD
BRANCH  14  16
ATOM     16  C   UNL     1     -17.490  -4.887   2.116  0.00  0.00    +0.000 C 
ATOM     17  H   UNL     1     -16.900  -4.734   3.026  0.00  0.00    +0.000 HD
ATOM     18  H   UNL     1     -17.328  -4.012   1.479  0.00  0.00    +0.000 HD
ATOM     19  H   UNL     1     -17.085  -5.768   1.607  0.00  0.00    +0.000 HD
ENDBRANCH  14  16
BRANCH  14  20
ATOM     20  C   UNL     1     -19.439  -6.448   1.967  0.00  0.00    +0.000 C 
ATOM     21  H   UNL     1     -20.051  -6.976   2.704  0.00  0.00    +0.000 HD
ATOM     22  H   UNL     1     -18.581  -7.087   1.734  0.00  0.00    +0.000 HD
ATOM     23  H   UNL     1     -20.027  -6.336   1.050  0.00  0.00    +0.000 HD
ENDBRANCH  14  20
ENDBRANCH   1  14
TORSDOF 7
ENDMDL
MODEL 8
REMARK VINA RESULT:    -3.633      4.480      5.974
REMARK INTER + INTRA:          -4.926
REMARK INTER:                  -4.753
REMARK INTRA:                  -0.172
REMARK UNBOUND:                -0.124
REMARK  Name = 31276
REMARK  7 active torsions:
REMARK  status: ('A' for Active; 'I' for Inactive)
REMARK    1  A    between atoms: O_1  and  C_5
REMARK    2  A    between atoms: O_1  and  C_8
REMARK    3  A    between atoms: C_3  and  C_4
REMARK    4  A    between atoms: C_3  and  C_6
REMARK    5  A    between atoms: C_3  and  C_7
REMARK    6  A    between atoms: C_4  and  C_5
REMARK    7  A    between atoms: C_8  and  C_9
REMARK                            x       y       z     vdW  Elec       q    Type
REMARK                         _______ _______ _______ _____ _____    ______ ____
ROOT
ATOM      1  C   UNL     1       8.379   9.734   5.454  0.00  0.00    +0.000 C 
ATOM      2  H   UNL     1       9.230   9.469   4.814  0.00  0.00    +0.000 HD
ATOM      3  H   UNL     1       7.880  10.566   4.942  0.00  0.00    +0.000 HD
ENDROOT
BRANCH   1   4
ATOM      4  C   UNL     1       7.420   8.552   5.529  0.00  0.00    +0.000 C 
ATOM      5  H   UNL     1       7.509   7.923   4.637  0.00  0.00    +0.000 HD
ATOM      6  H   UNL     1       7.614   7.946   6.420  0.00  0.00    +0.000 HD
BRANCH   4   7
ATOM      7  O   UNL     1       6.090   9.047   5.607  0.00  0.00    +0.000 OA
BRANCH   7   9
ATOM      8  O   UNL     1       4.232   9.080   4.236  0.00  0.00    +0.000 OA
ATOM      9  C   UNL     1       5.202   8.511   4.718  0.00  0.00    +0.000 C 
BRANCH   9  10
ATOM     10  C   UNL     1       5.585   7.096   4.404  0.00  0.00    +0.000 C 
ATOM     11  H   UNL     1       5.408   6.462   5.276  0.00  0.00    +0.000 HD
ATOM     12  H   UNL     1       6.636   7.056   4.105  0.00  0.00    +0.000 HD
ATOM     13  H   UNL     1       4.973   6.729   3.576  0.00  0.00    +0.000 HD
ENDBRANCH   9  10
ENDBRANCH   7   9
ENDBRANCH   4   7
ENDBRANCH   1   4
BRANCH   1  14
ATOM     14  C   UNL     1       8.891  10.203   6.827  0.00  0.00    +0.000 C 
ATOM     15  H   UNL     1       9.923  10.550   6.699  0.00  0.00    +0.000 HD
BRANCH  14  16
ATOM     16  C   UNL     1       8.040  11.371   7.328  0.00  0.00    +0.000 C 
ATOM     17  H   UNL     1       7.553  11.869   6.483  0.00  0.00    +0.000 HD
ATOM     18  H   UNL     1       8.633  12.130   7.848  0.00  0.00    +0.000 HD
ATOM     19  H   UNL     1       7.251  11.024   8.004  0.00  0.00    +0.000 HD
ENDBRANCH  14  16
BRANCH  14  20
ATOM     20  C   UNL     1       8.887   9.079   7.864  0.00  0.00    +0.000 C 
ATOM     21  H   UNL     1       8.484   9.405   8.828  0.00  0.00    +0.000 HD
ATOM     22  H   UNL     1       9.906   8.719   8.039  0.00  0.00    +0.000 HD
ATOM     23  H   UNL     1       8.291   8.230   7.514  0.00  0.00    +0.000 HD
ENDBRANCH  14  20
ENDBRANCH   1  14
TORSDOF 7
ENDMDL
MODEL 9
REMARK VINA RESULT:    -3.564     15.261     16.649
REMARK INTER + INTRA:          -4.834
REMARK INTER:                  -4.710
REMARK INTRA:                  -0.124
REMARK UNBOUND:                -0.124
REMARK  Name = 31276
REMARK  7 active torsions:
REMARK  status: ('A' for Active; 'I' for Inactive)
REMARK    1  A    between atoms: O_1  and  C_5
REMARK    2  A    between atoms: O_1  and  C_8
REMARK    3  A    between atoms: C_3  and  C_4
REMARK    4  A    between atoms: C_3  and  C_6
REMARK    5  A    between atoms: C_3  and  C_7
REMARK    6  A    between atoms: C_4  and  C_5
REMARK    7  A    between atoms: C_8  and  C_9
REMARK                            x       y       z     vdW  Elec       q    Type
REMARK                         _______ _______ _______ _____ _____    ______ ____
ROOT
ATOM      1  C   UNL     1     -10.277   6.589  -5.419  0.00  0.00    +0.000 C 
ATOM      2  H   UNL     1     -10.595   6.050  -6.320  0.00  0.00    +0.000 HD
ATOM      3  H   UNL     1     -10.572   5.947  -4.579  0.00  0.00    +0.000 HD
ENDROOT
BRANCH   1   4
ATOM      4  C   UNL     1      -8.759   6.727  -5.427  0.00  0.00    +0.000 C 
ATOM      5  H   UNL     1      -8.377   6.754  -6.452  0.00  0.00    +0.000 HD
ATOM      6  H   UNL     1      -8.446   7.635  -4.899  0.00  0.00    +0.000 HD
BRANCH   4   7
ATOM      7  O   UNL     1      -8.196   5.606  -4.758  0.00  0.00    +0.000 OA
BRANCH   7   9
ATOM      8  O   UNL     1      -7.761   4.248  -6.575  0.00  0.00    +0.000 OA
ATOM      9  C   UNL     1      -8.212   4.429  -5.452  0.00  0.00    +0.000 C 
BRANCH   9  10
ATOM     10  C   UNL     1      -8.871   3.361  -4.633  0.00  0.00    +0.000 C 
ATOM     11  H   UNL     1      -9.826   3.727  -4.248  0.00  0.00    +0.000 HD
ATOM     12  H   UNL     1      -8.213   3.066  -3.811  0.00  0.00    +0.000 HD
ATOM     13  H   UNL     1      -9.061   2.486  -5.260  0.00  0.00    +0.000 HD
ENDBRANCH   9  10
ENDBRANCH   7   9
ENDBRANCH   4   7
ENDBRANCH   1   4
BRANCH   1  14
ATOM     14  C   UNL     1     -11.020   7.933  -5.330  0.00  0.00    +0.000 C 
ATOM     15  H   UNL     1     -11.016   8.249  -4.280  0.00  0.00    +0.000 HD
BRANCH  14  16
ATOM     16  C   UNL     1     -10.288   8.988  -6.161  0.00  0.00    +0.000 C 
ATOM     17  H   UNL     1     -10.514   8.850  -7.224  0.00  0.00    +0.000 HD
ATOM     18  H   UNL     1      -9.201   8.927  -6.054  0.00  0.00    +0.000 HD
ATOM     19  H   UNL     1     -10.609   9.999  -5.887  0.00  0.00    +0.000 HD
ENDBRANCH  14  16
BRANCH  14  20
ATOM     20  C   UNL     1     -12.473   7.826  -5.794  0.00  0.00    +0.000 C 
ATOM     21  H   UNL     1     -12.867   8.783  -6.150  0.00  0.00    +0.000 HD
ATOM     22  H   UNL     1     -13.112   7.494  -4.969  0.00  0.00    +0.000 HD
ATOM     23  H   UNL     1     -12.569   7.094  -6.603  0.00  0.00    +0.000 HD
ENDBRANCH  14  20
ENDBRANCH   1  14
TORSDOF 7
ENDMDL
MODEL 10
REMARK VINA RESULT:    -3.478      2.402      4.115
REMARK INTER + INTRA:          -4.721
REMARK INTER:                  -4.402
REMARK INTRA:                  -0.318
REMARK UNBOUND:                -0.124
REMARK  Name = 31276
REMARK  7 active torsions:
REMARK  status: ('A' for Active; 'I' for Inactive)
REMARK    1  A    between atoms: O_1  and  C_5
REMARK    2  A    between atoms: O_1  and  C_8
REMARK    3  A    between atoms: C_3  and  C_4
REMARK    4  A    between atoms: C_3  and  C_6
REMARK    5  A    between atoms: C_3  and  C_7
REMARK    6  A    between atoms: C_4  and  C_5
REMARK    7  A    between atoms: C_8  and  C_9
REMARK                            x       y       z     vdW  Elec       q    Type
REMARK                         _______ _______ _______ _____ _____    ______ ____
ROOT
ATOM      1  C   UNL     1       4.436   9.249   0.692  0.00  0.00    +0.000 C 
ATOM      2  H   UNL     1       4.350   8.222   0.316  0.00  0.00    +0.000 HD
ATOM      3  H   UNL     1       3.760   9.844   0.065  0.00  0.00    +0.000 HD
ENDROOT
BRANCH   1   4
ATOM      4  C   UNL     1       3.947   9.299   2.134  0.00  0.00    +0.000 C 
ATOM      5  H   UNL     1       4.598   9.932   2.744  0.00  0.00    +0.000 HD
ATOM      6  H   UNL     1       2.920   9.678   2.186  0.00  0.00    +0.000 HD
BRANCH   4   7
ATOM      7  O   UNL     1       3.962   7.980   2.666  0.00  0.00    +0.000 OA
BRANCH   7   9
ATOM      8  O   UNL     1       5.832   6.769   3.275  0.00  0.00    +0.000 OA
ATOM      9  C   UNL     1       5.029   7.673   3.462  0.00  0.00    +0.000 C 
BRANCH   9  10
ATOM     10  C   UNL     1       5.087   8.616   4.626  0.00  0.00    +0.000 C 
ATOM     11  H   UNL     1       6.110   8.672   5.007  0.00  0.00    +0.000 HD
ATOM     12  H   UNL     1       4.402   8.279   5.410  0.00  0.00    +0.000 HD
ATOM     13  H   UNL     1       4.781   9.614   4.301  0.00  0.00    +0.000 HD
ENDBRANCH   9  10
ENDBRANCH   7   9
ENDBRANCH   4   7
ENDBRANCH   1   4
BRANCH   1  14
ATOM     14  C   UNL     1       5.881   9.747   0.511  0.00  0.00    +0.000 C 
ATOM     15  H   UNL     1       6.203  10.191   1.461  0.00  0.00    +0.000 HD
BRANCH  14  16
ATOM     16  C   UNL     1       6.800   8.568   0.186  0.00  0.00    +0.000 C 
ATOM     17  H   UNL     1       6.461   7.671   0.715  0.00  0.00    +0.000 HD
ATOM     18  H   UNL     1       7.836   8.747   0.490  0.00  0.00    +0.000 HD
ATOM     19  H   UNL     1       6.786   8.341  -0.886  0.00  0.00    +0.000 HD
ENDBRANCH  14  16
BRANCH  14  20
ATOM     20  C   UNL     1       5.998  10.810  -0.582  0.00  0.00    +0.000 C 
ATOM     21  H   UNL     1       6.810  11.517  -0.388  0.00  0.00    +0.000 HD
ATOM     22  H   UNL     1       5.069  11.386  -0.652  0.00  0.00    +0.000 HD
ATOM     23  H   UNL     1       6.174  10.345  -1.558  0.00  0.00    +0.000 HD
ENDBRANCH  14  20
ENDBRANCH   1  14
TORSDOF 7
ENDMDL
