MODEL 1
REMARK VINA RESULT:    -5.444      0.000      0.000
REMARK INTER + INTRA:          -6.233
REMARK INTER:                  -6.078
REMARK INTRA:                  -0.155
REMARK UNBOUND:                -0.153
REMARK  Name = 22311
REMARK  3 active torsions:
REMARK  status: ('A' for Active; 'I' for Inactive)
REMARK    1  A    between atoms: C_1  and  C_7
REMARK    2  A    between atoms: C_5  and  C_8
REMARK    3  A    between atoms: C_7  and  C_9
REMARK                            x       y       z     vdW  Elec       q    Type
REMARK                         _______ _______ _______ _____ _____    ______ ____
ROOT
ATOM      1  C   UNL     1      -2.536   8.469 -10.533  0.00  0.00    +0.000 C 
ATOM      2  C   UNL     1      -1.502   9.586 -10.412  0.00  0.00    +0.000 C 
ATOM      3  C   UNL     1      -1.926   7.229 -11.193  0.00  0.00    +0.000 C 
ATOM      4  C   UNL     1      -0.948   9.977 -11.785  0.00  0.00    +0.000 C 
ATOM      5  C   UNL     1      -0.629   8.793 -12.665  0.00  0.00    +0.000 C 
ATOM      6  C   UNL     1      -1.064   7.555 -12.377  0.00  0.00    +0.000 C 
ATOM      7  H   UNL     1      -3.357   8.831 -11.167  0.00  0.00    +0.000 HD
ATOM      8  H   UNL     1      -0.657   9.279  -9.780  0.00  0.00    +0.000 HD
ATOM      9  H   UNL     1      -1.939  10.474  -9.937  0.00  0.00    +0.000 HD
ATOM     10  H   UNL     1      -2.738   6.567 -11.522  0.00  0.00    +0.000 HD
ATOM     11  H   UNL     1      -1.310   6.642 -10.502  0.00  0.00    +0.000 HD
ATOM     12  H   UNL     1      -0.047  10.584 -11.635  0.00  0.00    +0.000 HD
ATOM     13  H   UNL     1      -1.678  10.608 -12.306  0.00  0.00    +0.000 HD
ATOM     14  H   UNL     1      -0.798   6.724 -13.026  0.00  0.00    +0.000 HD
ENDROOT
BRANCH   1  15
ATOM     15  C   UNL     1      -3.061   8.124  -9.174  0.00  0.00    +0.000 C 
ATOM     16  C   UNL     1      -3.055   9.007  -8.165  0.00  0.00    +0.000 C 
ATOM     17  H   UNL     1      -3.440   8.739  -7.186  0.00  0.00    +0.000 HD
ATOM     18  H   UNL     1      -2.675  10.017  -8.277  0.00  0.00    +0.000 HD
BRANCH  15  19
ATOM     19  C   UNL     1      -3.594   6.731  -9.005  0.00  0.00    +0.000 C 
ATOM     20  H   UNL     1      -3.294   6.323  -8.034  0.00  0.00    +0.000 HD
ATOM     21  H   UNL     1      -4.688   6.734  -9.060  0.00  0.00    +0.000 HD
ATOM     22  H   UNL     1      -3.224   6.051  -9.780  0.00  0.00    +0.000 HD
ENDBRANCH  15  19
ENDBRANCH   1  15
BRANCH   5  23
ATOM     23  C   UNL     1       0.200   9.080 -13.882  0.00  0.00    +0.000 C 
ATOM     24  H   UNL     1      -0.240   9.903 -14.455  0.00  0.00    +0.000 HD
ATOM     25  H   UNL     1       0.272   8.212 -14.546  0.00  0.00    +0.000 HD
ATOM     26  H   UNL     1       1.217   9.363 -13.591  0.00  0.00    +0.000 HD
ENDBRANCH   5  23
TORSDOF 3
ENDMDL
MODEL 2
REMARK VINA RESULT:    -5.436     13.059     13.868
REMARK INTER + INTRA:          -6.225
REMARK INTER:                  -6.070
REMARK INTRA:                  -0.155
REMARK UNBOUND:                -0.153
REMARK  Name = 22311
REMARK  3 active torsions:
REMARK  status: ('A' for Active; 'I' for Inactive)
REMARK    1  A    between atoms: C_1  and  C_7
REMARK    2  A    between atoms: C_5  and  C_8
REMARK    3  A    between atoms: C_7  and  C_9
REMARK                            x       y       z     vdW  Elec       q    Type
REMARK                         _______ _______ _______ _____ _____    ______ ____
ROOT
ATOM      1  C   UNL     1       5.369   9.956   0.073  0.00  0.00    +0.000 C 
ATOM      2  C   UNL     1       6.034  11.223  -0.461  0.00  0.00    +0.000 C 
ATOM      3  C   UNL     1       6.312   9.199   1.013  0.00  0.00    +0.000 C 
ATOM      4  C   UNL     1       7.326  10.893  -1.214  0.00  0.00    +0.000 C 
ATOM      5  C   UNL     1       8.186   9.868  -0.516  0.00  0.00    +0.000 C 
ATOM      6  C   UNL     1       7.720   9.121   0.499  0.00  0.00    +0.000 C 
ATOM      7  H   UNL     1       5.136   9.306  -0.781  0.00  0.00    +0.000 HD
ATOM      8  H   UNL     1       6.285  11.914   0.355  0.00  0.00    +0.000 HD
ATOM      9  H   UNL     1       5.357  11.766  -1.133  0.00  0.00    +0.000 HD
ATOM     10  H   UNL     1       5.932   8.178   1.149  0.00  0.00    +0.000 HD
ATOM     11  H   UNL     1       6.361   9.646   2.013  0.00  0.00    +0.000 HD
ATOM     12  H   UNL     1       7.892  11.822  -1.355  0.00  0.00    +0.000 HD
ATOM     13  H   UNL     1       7.077  10.513  -2.213  0.00  0.00    +0.000 HD
ATOM     14  H   UNL     1       8.375   8.406   0.989  0.00  0.00    +0.000 HD
ENDROOT
BRANCH   1  15
ATOM     15  C   UNL     1       4.107  10.319   0.792  0.00  0.00    +0.000 C 
ATOM     16  C   UNL     1       3.576   9.529   1.737  0.00  0.00    +0.000 C 
ATOM     17  H   UNL     1       2.660   9.808   2.248  0.00  0.00    +0.000 HD
ATOM     18  H   UNL     1       4.030   8.590   2.034  0.00  0.00    +0.000 HD
BRANCH  15  19
ATOM     19  C   UNL     1       3.468  11.617   0.394  0.00  0.00    +0.000 C 
ATOM     20  H   UNL     1       3.796  11.911  -0.608  0.00  0.00    +0.000 HD
ATOM     21  H   UNL     1       2.377  11.519   0.392  0.00  0.00    +0.000 HD
ATOM     22  H   UNL     1       3.727  12.431   1.080  0.00  0.00    +0.000 HD
ENDBRANCH  15  19
ENDBRANCH   1  15
BRANCH   5  23
ATOM     23  C   UNL     1       9.591   9.731  -1.022  0.00  0.00    +0.000 C 
ATOM     24  H   UNL     1       9.594   9.655  -2.115  0.00  0.00    +0.000 HD
ATOM     25  H   UNL     1      10.088   8.839  -0.625  0.00  0.00    +0.000 HD
ATOM     26  H   UNL     1      10.187  10.602  -0.732  0.00  0.00    +0.000 HD
ENDBRANCH   5  23
TORSDOF 3
ENDMDL
MODEL 3
REMARK VINA RESULT:    -5.423     12.629     14.557
REMARK INTER + INTRA:          -6.210
REMARK INTER:                  -6.061
REMARK INTRA:                  -0.150
REMARK UNBOUND:                -0.153
REMARK  Name = 22311
REMARK  3 active torsions:
REMARK  status: ('A' for Active; 'I' for Inactive)
REMARK    1  A    between atoms: C_1  and  C_7
REMARK    2  A    between atoms: C_5  and  C_8
REMARK    3  A    between atoms: C_7  and  C_9
REMARK                            x       y       z     vdW  Elec       q    Type
REMARK                         _______ _______ _______ _____ _____    ______ ____
ROOT
ATOM      1  C   UNL     1       4.950   9.394   0.413  0.00  0.00    +0.000 C 
ATOM      2  C   UNL     1       6.350   9.133   0.967  0.00  0.00    +0.000 C 
ATOM      3  C   UNL     1       3.945   9.610   1.548  0.00  0.00    +0.000 C 
ATOM      4  C   UNL     1       6.362   7.906   1.882  0.00  0.00    +0.000 C 
ATOM      5  C   UNL     1       5.190   7.850   2.831  0.00  0.00    +0.000 C 
ATOM      6  C   UNL     1       4.112   8.637   2.677  0.00  0.00    +0.000 C 
ATOM      7  H   UNL     1       4.640   8.510  -0.161  0.00  0.00    +0.000 HD
ATOM      8  H   UNL     1       6.713   9.993   1.547  0.00  0.00    +0.000 HD
ATOM      9  H   UNL     1       7.070   8.980   0.153  0.00  0.00    +0.000 HD
ATOM     10  H   UNL     1       2.929   9.509   1.145  0.00  0.00    +0.000 HD
ATOM     11  H   UNL     1       4.007  10.616   1.981  0.00  0.00    +0.000 HD
ATOM     12  H   UNL     1       7.301   7.905   2.448  0.00  0.00    +0.000 HD
ATOM     13  H   UNL     1       6.355   6.996   1.269  0.00  0.00    +0.000 HD
ATOM     14  H   UNL     1       3.295   8.580   3.393  0.00  0.00    +0.000 HD
ENDROOT
BRANCH   1  15
ATOM     15  C   UNL     1       4.982  10.593  -0.484  0.00  0.00    +0.000 C 
ATOM     16  C   UNL     1       6.133  11.171  -0.855  0.00  0.00    +0.000 C 
ATOM     17  H   UNL     1       6.137  12.040  -1.505  0.00  0.00    +0.000 HD
ATOM     18  H   UNL     1       7.101  10.804  -0.531  0.00  0.00    +0.000 HD
BRANCH  15  19
ATOM     19  C   UNL     1       3.650  11.111  -0.942  0.00  0.00    +0.000 C 
ATOM     20  H   UNL     1       2.855  10.408  -0.674  0.00  0.00    +0.000 HD
ATOM     21  H   UNL     1       3.437  12.077  -0.472  0.00  0.00    +0.000 HD
ATOM     22  H   UNL     1       3.615  11.255  -2.027  0.00  0.00    +0.000 HD
ENDBRANCH  15  19
ENDBRANCH   1  15
BRANCH   5  23
ATOM     23  C   UNL     1       5.298   6.862   3.955  0.00  0.00    +0.000 C 
ATOM     24  H   UNL     1       4.860   5.903   3.660  0.00  0.00    +0.000 HD
ATOM     25  H   UNL     1       4.777   7.204   4.856  0.00  0.00    +0.000 HD
ATOM     26  H   UNL     1       6.348   6.699   4.219  0.00  0.00    +0.000 HD
ENDBRANCH   5  23
TORSDOF 3
ENDMDL
MODEL 4
REMARK VINA RESULT:    -5.123      0.926      4.301
REMARK INTER + INTRA:          -5.875
REMARK INTER:                  -5.720
REMARK INTRA:                  -0.155
REMARK UNBOUND:                -0.153
REMARK  Name = 22311
REMARK  3 active torsions:
REMARK  status: ('A' for Active; 'I' for Inactive)
REMARK    1  A    between atoms: C_1  and  C_7
REMARK    2  A    between atoms: C_5  and  C_8
REMARK    3  A    between atoms: C_7  and  C_9
REMARK                            x       y       z     vdW  Elec       q    Type
REMARK                         _______ _______ _______ _____ _____    ______ ____
ROOT
ATOM      1  C   UNL     1      -1.015   8.700 -11.737  0.00  0.00    +0.000 C 
ATOM      2  C   UNL     1      -2.054   9.554 -11.014  0.00  0.00    +0.000 C 
ATOM      3  C   UNL     1      -1.599   7.338 -12.122  0.00  0.00    +0.000 C 
ATOM      4  C   UNL     1      -2.560   8.856  -9.748  0.00  0.00    +0.000 C 
ATOM      5  C   UNL     1      -2.845   7.387  -9.944  0.00  0.00    +0.000 C 
ATOM      6  C   UNL     1      -2.419   6.718 -11.028  0.00  0.00    +0.000 C 
ATOM      7  H   UNL     1      -0.172   8.535 -11.052  0.00  0.00    +0.000 HD
ATOM      8  H   UNL     1      -2.921   9.756 -11.659  0.00  0.00    +0.000 HD
ATOM      9  H   UNL     1      -1.636  10.531 -10.741  0.00  0.00    +0.000 HD
ATOM     10  H   UNL     1      -0.776   6.657 -12.372  0.00  0.00    +0.000 HD
ATOM     11  H   UNL     1      -2.239   7.388 -13.011  0.00  0.00    +0.000 HD
ATOM     12  H   UNL     1      -3.466   9.370  -9.407  0.00  0.00    +0.000 HD
ATOM     13  H   UNL     1      -1.812   8.960  -8.953  0.00  0.00    +0.000 HD
ATOM     14  H   UNL     1      -2.660   5.664 -11.142  0.00  0.00    +0.000 HD
ENDROOT
BRANCH   1  15
ATOM     15  C   UNL     1      -0.539   9.421 -12.960  0.00  0.00    +0.000 C 
ATOM     16  C   UNL     1      -0.021   8.768 -14.012  0.00  0.00    +0.000 C 
ATOM     17  H   UNL     1       0.320   9.307 -14.890  0.00  0.00    +0.000 HD
ATOM     18  H   UNL     1       0.079   7.689 -14.036  0.00  0.00    +0.000 HD
BRANCH  15  19
ATOM     19  C   UNL     1      -0.673  10.915 -12.942  0.00  0.00    +0.000 C 
ATOM     20  H   UNL     1      -0.611  11.291 -11.916  0.00  0.00    +0.000 HD
ATOM     21  H   UNL     1       0.127  11.375 -13.532  0.00  0.00    +0.000 HD
ATOM     22  H   UNL     1      -1.628  11.249 -13.361  0.00  0.00    +0.000 HD
ENDBRANCH  15  19
ENDBRANCH   1  15
BRANCH   5  23
ATOM     23  C   UNL     1      -3.630   6.717  -8.856  0.00  0.00    +0.000 C 
ATOM     24  H   UNL     1      -3.458   5.636  -8.874  0.00  0.00    +0.000 HD
ATOM     25  H   UNL     1      -4.708   6.885  -8.961  0.00  0.00    +0.000 HD
ATOM     26  H   UNL     1      -3.327   7.101  -7.876  0.00  0.00    +0.000 HD
ENDBRANCH   5  23
TORSDOF 3
ENDMDL
MODEL 5
REMARK VINA RESULT:    -5.104      1.939      2.859
REMARK INTER + INTRA:          -5.854
REMARK INTER:                  -5.708
REMARK INTRA:                  -0.146
REMARK UNBOUND:                -0.153
REMARK  Name = 22311
REMARK  3 active torsions:
REMARK  status: ('A' for Active; 'I' for Inactive)
REMARK    1  A    between atoms: C_1  and  C_7
REMARK    2  A    between atoms: C_5  and  C_8
REMARK    3  A    between atoms: C_7  and  C_9
REMARK                            x       y       z     vdW  Elec       q    Type
REMARK                         _______ _______ _______ _____ _____    ______ ____
ROOT
ATOM      1  C   UNL     1      -3.114   7.680 -10.955  0.00  0.00    +0.000 C 
ATOM      2  C   UNL     1      -1.881   6.898 -11.406  0.00  0.00    +0.000 C 
ATOM      3  C   UNL     1      -4.390   7.077 -11.549  0.00  0.00    +0.000 C 
ATOM      4  C   UNL     1      -1.761   6.887 -12.932  0.00  0.00    +0.000 C 
ATOM      5  C   UNL     1      -3.071   6.635 -13.638  0.00  0.00    +0.000 C 
ATOM      6  C   UNL     1      -4.250   6.708 -12.997  0.00  0.00    +0.000 C 
ATOM      7  H   UNL     1      -3.016   8.712 -11.320  0.00  0.00    +0.000 HD
ATOM      8  H   UNL     1      -1.925   5.856 -11.061  0.00  0.00    +0.000 HD
ATOM      9  H   UNL     1      -0.968   7.330 -10.978  0.00  0.00    +0.000 HD
ATOM     10  H   UNL     1      -5.206   7.805 -11.451  0.00  0.00    +0.000 HD
ATOM     11  H   UNL     1      -4.717   6.174 -11.020  0.00  0.00    +0.000 HD
ATOM     12  H   UNL     1      -1.030   6.121 -13.216  0.00  0.00    +0.000 HD
ATOM     13  H   UNL     1      -1.365   7.852 -13.272  0.00  0.00    +0.000 HD
ATOM     14  H   UNL     1      -5.171   6.501 -13.536  0.00  0.00    +0.000 HD
ENDROOT
BRANCH   1  15
ATOM     15  C   UNL     1      -3.190   7.677  -9.460  0.00  0.00    +0.000 C 
ATOM     16  C   UNL     1      -3.616   6.606  -8.773  0.00  0.00    +0.000 C 
ATOM     17  H   UNL     1      -3.665   6.622  -7.689  0.00  0.00    +0.000 HD
ATOM     18  H   UNL     1      -3.925   5.687  -9.259  0.00  0.00    +0.000 HD
BRANCH  15  19
ATOM     19  C   UNL     1      -2.764   8.941  -8.773  0.00  0.00    +0.000 C 
ATOM     20  H   UNL     1      -3.557   9.693  -8.833  0.00  0.00    +0.000 HD
ATOM     21  H   UNL     1      -2.546   8.745  -7.718  0.00  0.00    +0.000 HD
ATOM     22  H   UNL     1      -1.863   9.371  -9.224  0.00  0.00    +0.000 HD
ENDBRANCH  15  19
ENDBRANCH   1  15
BRANCH   5  23
ATOM     23  C   UNL     1      -2.980   6.299 -15.097  0.00  0.00    +0.000 C 
ATOM     24  H   UNL     1      -2.190   5.560 -15.267  0.00  0.00    +0.000 HD
ATOM     25  H   UNL     1      -2.752   7.178 -15.709  0.00  0.00    +0.000 HD
ATOM     26  H   UNL     1      -3.929   5.883 -15.451  0.00  0.00    +0.000 HD
ENDBRANCH   5  23
TORSDOF 3
ENDMDL
MODEL 6
REMARK VINA RESULT:    -4.842     26.124     27.235
REMARK INTER + INTRA:          -5.561
REMARK INTER:                  -5.409
REMARK INTRA:                  -0.152
REMARK UNBOUND:                -0.153
REMARK  Name = 22311
REMARK  3 active torsions:
REMARK  status: ('A' for Active; 'I' for Inactive)
REMARK    1  A    between atoms: C_1  and  C_7
REMARK    2  A    between atoms: C_5  and  C_8
REMARK    3  A    between atoms: C_7  and  C_9
REMARK                            x       y       z     vdW  Elec       q    Type
REMARK                         _______ _______ _______ _____ _____    ______ ____
ROOT
ATOM      1  C   UNL     1     -21.254  -2.281   5.249  0.00  0.00    +0.000 C 
ATOM      2  C   UNL     1     -21.179  -1.887   3.775  0.00  0.00    +0.000 C 
ATOM      3  C   UNL     1     -20.448  -3.555   5.516  0.00  0.00    +0.000 C 
ATOM      4  C   UNL     1     -21.710  -3.007   2.876  0.00  0.00    +0.000 C 
ATOM      5  C   UNL     1     -21.233  -4.381   3.280  0.00  0.00    +0.000 C 
ATOM      6  C   UNL     1     -20.650  -4.611   4.468  0.00  0.00    +0.000 C 
ATOM      7  H   UNL     1     -22.306  -2.478   5.497  0.00  0.00    +0.000 HD
ATOM      8  H   UNL     1     -20.145  -1.672   3.474  0.00  0.00    +0.000 HD
ATOM      9  H   UNL     1     -21.755  -0.973   3.585  0.00  0.00    +0.000 HD
ATOM     10  H   UNL     1     -20.745  -3.966   6.489  0.00  0.00    +0.000 HD
ATOM     11  H   UNL     1     -19.369  -3.368   5.576  0.00  0.00    +0.000 HD
ATOM     12  H   UNL     1     -21.408  -2.796   1.844  0.00  0.00    +0.000 HD
ATOM     13  H   UNL     1     -22.807  -3.002   2.899  0.00  0.00    +0.000 HD
ATOM     14  H   UNL     1     -20.302  -5.611   4.715  0.00  0.00    +0.000 HD
ENDROOT
BRANCH   1  15
ATOM     15  C   UNL     1     -20.737  -1.158   6.094  0.00  0.00    +0.000 C 
ATOM     16  C   UNL     1     -20.666  -1.249   7.430  0.00  0.00    +0.000 C 
ATOM     17  H   UNL     1     -20.289  -0.425   8.026  0.00  0.00    +0.000 HD
ATOM     18  H   UNL     1     -20.974  -2.138   7.970  0.00  0.00    +0.000 HD
BRANCH  15  19
ATOM     19  C   UNL     1     -20.304   0.077   5.360  0.00  0.00    +0.000 C 
ATOM     20  H   UNL     1     -19.873   0.803   6.057  0.00  0.00    +0.000 HD
ATOM     21  H   UNL     1     -19.550  -0.174   4.606  0.00  0.00    +0.000 HD
ATOM     22  H   UNL     1     -21.139   0.565   4.845  0.00  0.00    +0.000 HD
ENDBRANCH  15  19
ENDBRANCH   1  15
BRANCH   5  23
ATOM     23  C   UNL     1     -21.449  -5.475   2.277  0.00  0.00    +0.000 C 
ATOM     24  H   UNL     1     -22.432  -5.934   2.422  0.00  0.00    +0.000 HD
ATOM     25  H   UNL     1     -20.696  -6.266   2.360  0.00  0.00    +0.000 HD
ATOM     26  H   UNL     1     -21.399  -5.074   1.259  0.00  0.00    +0.000 HD
ENDBRANCH   5  23
TORSDOF 3
ENDMDL
MODEL 7
REMARK VINA RESULT:    -4.829      9.342     10.615
REMARK INTER + INTRA:          -5.546
REMARK INTER:                  -5.390
REMARK INTRA:                  -0.156
REMARK UNBOUND:                -0.153
REMARK  Name = 22311
REMARK  3 active torsions:
REMARK  status: ('A' for Active; 'I' for Inactive)
REMARK    1  A    between atoms: C_1  and  C_7
REMARK    2  A    between atoms: C_5  and  C_8
REMARK    3  A    between atoms: C_7  and  C_9
REMARK                            x       y       z     vdW  Elec       q    Type
REMARK                         _______ _______ _______ _____ _____    ______ ____
ROOT
ATOM      1  C   UNL     1     -10.571   7.107  -5.614  0.00  0.00    +0.000 C 
ATOM      2  C   UNL     1     -11.122   5.808  -6.199  0.00  0.00    +0.000 C 
ATOM      3  C   UNL     1      -9.039   7.099  -5.612  0.00  0.00    +0.000 C 
ATOM      4  C   UNL     1     -10.633   4.593  -5.405  0.00  0.00    +0.000 C 
ATOM      5  C   UNL     1      -9.169   4.657  -5.048  0.00  0.00    +0.000 C 
ATOM      6  C   UNL     1      -8.457   5.791  -5.161  0.00  0.00    +0.000 C 
ATOM      7  H   UNL     1     -10.918   7.188  -4.574  0.00  0.00    +0.000 HD
ATOM      8  H   UNL     1     -10.808   5.680  -7.244  0.00  0.00    +0.000 HD
ATOM      9  H   UNL     1     -12.219   5.816  -6.201  0.00  0.00    +0.000 HD
ATOM     10  H   UNL     1      -8.681   7.891  -4.943  0.00  0.00    +0.000 HD
ATOM     11  H   UNL     1      -8.614   7.313  -6.600  0.00  0.00    +0.000 HD
ATOM     12  H   UNL     1     -10.835   3.691  -5.995  0.00  0.00    +0.000 HD
ATOM     13  H   UNL     1     -11.213   4.508  -4.478  0.00  0.00    +0.000 HD
ATOM     14  H   UNL     1      -7.399   5.792  -4.911  0.00  0.00    +0.000 HD
ENDROOT
BRANCH   1  15
ATOM     15  C   UNL     1     -11.079   8.270  -6.408  0.00  0.00    +0.000 C 
ATOM     16  C   UNL     1     -10.342   9.374  -6.601  0.00  0.00    +0.000 C 
ATOM     17  H   UNL     1     -10.727  10.208  -7.179  0.00  0.00    +0.000 HD
ATOM     18  H   UNL     1      -9.342   9.485  -6.196  0.00  0.00    +0.000 HD
BRANCH  15  19
ATOM     19  C   UNL     1     -12.460   8.129  -6.977  0.00  0.00    +0.000 C 
ATOM     20  H   UNL     1     -12.761   7.077  -6.991  0.00  0.00    +0.000 HD
ATOM     21  H   UNL     1     -13.179   8.691  -6.371  0.00  0.00    +0.000 HD
ATOM     22  H   UNL     1     -12.524   8.507  -8.003  0.00  0.00    +0.000 HD
ENDBRANCH  15  19
ENDBRANCH   1  15
BRANCH   5  23
ATOM     23  C   UNL     1      -8.554   3.380  -4.556  0.00  0.00    +0.000 C 
ATOM     24  H   UNL     1      -7.569   3.577  -4.119  0.00  0.00    +0.000 HD
ATOM     25  H   UNL     1      -8.422   2.649  -5.361  0.00  0.00    +0.000 HD
ATOM     26  H   UNL     1      -9.189   2.922  -3.790  0.00  0.00    +0.000 HD
ENDBRANCH   5  23
TORSDOF 3
ENDMDL
MODEL 8
REMARK VINA RESULT:    -4.790     25.986     27.520
REMARK INTER + INTRA:          -5.503
REMARK INTER:                  -5.351
REMARK INTRA:                  -0.152
REMARK UNBOUND:                -0.153
REMARK  Name = 22311
REMARK  3 active torsions:
REMARK  status: ('A' for Active; 'I' for Inactive)
REMARK    1  A    between atoms: C_1  and  C_7
REMARK    2  A    between atoms: C_5  and  C_8
REMARK    3  A    between atoms: C_7  and  C_9
REMARK                            x       y       z     vdW  Elec       q    Type
REMARK                         _______ _______ _______ _____ _____    ______ ____
ROOT
ATOM      1  C   UNL     1     -21.104  -2.822   4.582  0.00  0.00    +0.000 C 
ATOM      2  C   UNL     1     -20.610  -3.459   5.879  0.00  0.00    +0.000 C 
ATOM      3  C   UNL     1     -20.719  -1.341   4.519  0.00  0.00    +0.000 C 
ATOM      4  C   UNL     1     -21.190  -2.743   7.102  0.00  0.00    +0.000 C 
ATOM      5  C   UNL     1     -21.171  -1.239   6.986  0.00  0.00    +0.000 C 
ATOM      6  C   UNL     1     -20.941  -0.619   5.816  0.00  0.00    +0.000 C 
ATOM      7  H   UNL     1     -22.200  -2.897   4.560  0.00  0.00    +0.000 HD
ATOM      8  H   UNL     1     -19.514  -3.417   5.950  0.00  0.00    +0.000 HD
ATOM      9  H   UNL     1     -20.884  -4.521   5.922  0.00  0.00    +0.000 HD
ATOM     10  H   UNL     1     -21.317  -0.852   3.739  0.00  0.00    +0.000 HD
ATOM     11  H   UNL     1     -19.669  -1.188   4.244  0.00  0.00    +0.000 HD
ATOM     12  H   UNL     1     -20.625  -3.057   7.988  0.00  0.00    +0.000 HD
ATOM     13  H   UNL     1     -22.228  -3.065   7.252  0.00  0.00    +0.000 HD
ATOM     14  H   UNL     1     -20.916   0.467   5.776  0.00  0.00    +0.000 HD
ENDROOT
BRANCH   1  15
ATOM     15  C   UNL     1     -20.524  -3.554   3.411  0.00  0.00    +0.000 C 
ATOM     16  C   UNL     1     -20.848  -3.243   2.148  0.00  0.00    +0.000 C 
ATOM     17  H   UNL     1     -20.418  -3.785   1.312  0.00  0.00    +0.000 HD
ATOM     18  H   UNL     1     -21.541  -2.446   1.904  0.00  0.00    +0.000 HD
BRANCH  15  19
ATOM     19  C   UNL     1     -19.560  -4.658   3.734  0.00  0.00    +0.000 C 
ATOM     20  H   UNL     1     -18.933  -4.379   4.587  0.00  0.00    +0.000 HD
ATOM     21  H   UNL     1     -20.104  -5.576   3.984  0.00  0.00    +0.000 HD
ATOM     22  H   UNL     1     -18.896  -4.885   2.893  0.00  0.00    +0.000 HD
ENDBRANCH  15  19
ENDBRANCH   1  15
BRANCH   5  23
ATOM     23  C   UNL     1     -21.425  -0.476   8.252  0.00  0.00    +0.000 C 
ATOM     24  H   UNL     1     -22.354   0.097   8.169  0.00  0.00    +0.000 HD
ATOM     25  H   UNL     1     -20.617   0.227   8.479  0.00  0.00    +0.000 HD
ATOM     26  H   UNL     1     -21.515  -1.165   9.099  0.00  0.00    +0.000 HD
ENDBRANCH   5  23
TORSDOF 3
ENDMDL
MODEL 9
REMARK VINA RESULT:    -4.700      8.447      9.383
REMARK INTER + INTRA:          -5.403
REMARK INTER:                  -5.258
REMARK INTRA:                  -0.145
REMARK UNBOUND:                -0.153
REMARK  Name = 22311
REMARK  3 active torsions:
REMARK  status: ('A' for Active; 'I' for Inactive)
REMARK    1  A    between atoms: C_1  and  C_7
REMARK    2  A    between atoms: C_5  and  C_8
REMARK    3  A    between atoms: C_7  and  C_9
REMARK                            x       y       z     vdW  Elec       q    Type
REMARK                         _______ _______ _______ _____ _____    ______ ____
ROOT
ATOM      1  C   UNL     1      -9.809   6.238  -6.153  0.00  0.00    +0.000 C 
ATOM      2  C   UNL     1      -9.825   7.587  -5.437  0.00  0.00    +0.000 C 
ATOM      3  C   UNL     1      -9.092   6.343  -7.502  0.00  0.00    +0.000 C 
ATOM      4  C   UNL     1     -10.519   8.655  -6.286  0.00  0.00    +0.000 C 
ATOM      5  C   UNL     1     -10.125   8.617  -7.742  0.00  0.00    +0.000 C 
ATOM      6  C   UNL     1      -9.466   7.574  -8.275  0.00  0.00    +0.000 C 
ATOM      7  H   UNL     1     -10.850   5.937  -6.337  0.00  0.00    +0.000 HD
ATOM      8  H   UNL     1      -8.804   7.934  -5.223  0.00  0.00    +0.000 HD
ATOM      9  H   UNL     1     -10.337   7.510  -4.470  0.00  0.00    +0.000 HD
ATOM     10  H   UNL     1      -9.341   5.461  -8.106  0.00  0.00    +0.000 HD
ATOM     11  H   UNL     1      -8.000   6.350  -7.401  0.00  0.00    +0.000 HD
ATOM     12  H   UNL     1     -10.287   9.639  -5.862  0.00  0.00    +0.000 HD
ATOM     13  H   UNL     1     -11.606   8.523  -6.218  0.00  0.00    +0.000 HD
ATOM     14  H   UNL     1      -9.184   7.592  -9.324  0.00  0.00    +0.000 HD
ENDROOT
BRANCH   1  15
ATOM     15  C   UNL     1      -9.133   5.219  -5.288  0.00  0.00    +0.000 C 
ATOM     16  C   UNL     1      -8.028   5.507  -4.584  0.00  0.00    +0.000 C 
ATOM     17  H   UNL     1      -7.551   4.756  -3.963  0.00  0.00    +0.000 HD
ATOM     18  H   UNL     1      -7.567   6.489  -4.600  0.00  0.00    +0.000 HD
BRANCH  15  19
ATOM     19  C   UNL     1      -9.762   3.857  -5.255  0.00  0.00    +0.000 C 
ATOM     20  H   UNL     1     -10.806   3.912  -5.578  0.00  0.00    +0.000 HD
ATOM     21  H   UNL     1      -9.224   3.174  -5.921  0.00  0.00    +0.000 HD
ATOM     22  H   UNL     1      -9.747   3.421  -4.250  0.00  0.00    +0.000 HD
ENDBRANCH  15  19
ENDBRANCH   1  15
BRANCH   5  23
ATOM     23  C   UNL     1     -10.513   9.812  -8.562  0.00  0.00    +0.000 C 
ATOM     24  H   UNL     1     -10.425   9.585  -9.630  0.00  0.00    +0.000 HD
ATOM     25  H   UNL     1      -9.879  10.680  -8.352  0.00  0.00    +0.000 HD
ATOM     26  H   UNL     1     -11.549  10.098  -8.351  0.00  0.00    +0.000 HD
ENDBRANCH   5  23
TORSDOF 3
ENDMDL
MODEL 10
REMARK VINA RESULT:    -4.697     16.643     20.018
REMARK INTER + INTRA:          -5.399
REMARK INTER:                  -5.246
REMARK INTRA:                  -0.153
REMARK UNBOUND:                -0.153
REMARK  Name = 22311
REMARK  3 active torsions:
REMARK  status: ('A' for Active; 'I' for Inactive)
REMARK    1  A    between atoms: C_1  and  C_7
REMARK    2  A    between atoms: C_5  and  C_8
REMARK    3  A    between atoms: C_7  and  C_9
REMARK                            x       y       z     vdW  Elec       q    Type
REMARK                         _______ _______ _______ _____ _____    ______ ____
ROOT
ATOM      1  C   UNL     1      -8.113  11.909   6.626  0.00  0.00    +0.000 C 
ATOM      2  C   UNL     1      -8.488  10.431   6.719  0.00  0.00    +0.000 C 
ATOM      3  C   UNL     1      -7.297  12.344   7.847  0.00  0.00    +0.000 C 
ATOM      4  C   UNL     1      -9.300  10.147   7.986  0.00  0.00    +0.000 C 
ATOM      5  C   UNL     1      -8.757  10.831   9.216  0.00  0.00    +0.000 C 
ATOM      6  C   UNL     1      -7.841  11.811   9.140  0.00  0.00    +0.000 C 
ATOM      7  H   UNL     1      -9.041  12.496   6.602  0.00  0.00    +0.000 HD
ATOM      8  H   UNL     1      -7.592   9.795   6.741  0.00  0.00    +0.000 HD
ATOM      9  H   UNL     1      -9.070  10.120   5.843  0.00  0.00    +0.000 HD
ATOM     10  H   UNL     1      -7.290  13.441   7.895  0.00  0.00    +0.000 HD
ATOM     11  H   UNL     1      -6.248  12.031   7.789  0.00  0.00    +0.000 HD
ATOM     12  H   UNL     1      -9.327   9.062   8.143  0.00  0.00    +0.000 HD
ATOM     13  H   UNL     1     -10.335  10.476   7.834  0.00  0.00    +0.000 HD
ATOM     14  H   UNL     1      -7.461  12.267  10.050  0.00  0.00    +0.000 HD
ENDROOT
BRANCH   1  15
ATOM     15  C   UNL     1      -7.330  12.149   5.372  0.00  0.00    +0.000 C 
ATOM     16  C   UNL     1      -7.356  11.288   4.343  0.00  0.00    +0.000 C 
ATOM     17  H   UNL     1      -6.782  11.478   3.442  0.00  0.00    +0.000 HD
ATOM     18  H   UNL     1      -7.944  10.377   4.361  0.00  0.00    +0.000 HD
BRANCH  15  19
ATOM     19  C   UNL     1      -6.514  13.407   5.332  0.00  0.00    +0.000 C 
ATOM     20  H   UNL     1      -5.673  13.338   6.029  0.00  0.00    +0.000 HD
ATOM     21  H   UNL     1      -6.120  13.573   4.323  0.00  0.00    +0.000 HD
ATOM     22  H   UNL     1      -7.102  14.289   5.607  0.00  0.00    +0.000 HD
ENDBRANCH  15  19
ENDBRANCH   1  15
BRANCH   5  23
ATOM     23  C   UNL     1      -9.302  10.354  10.530  0.00  0.00    +0.000 C 
ATOM     24  H   UNL     1      -8.558   9.740  11.048  0.00  0.00    +0.000 HD
ATOM     25  H   UNL     1     -10.207   9.750  10.407  0.00  0.00    +0.000 HD
ATOM     26  H   UNL     1      -9.555  11.207  11.169  0.00  0.00    +0.000 HD
ENDBRANCH   5  23
TORSDOF 3
ENDMDL
