MODEL 1
REMARK VINA RESULT:    -5.094      0.000      0.000
REMARK INTER + INTRA:          -7.136
REMARK INTER:                  -6.574
REMARK INTRA:                  -0.562
REMARK UNBOUND:                -0.254
REMARK  Name = 6549
REMARK  8 active torsions:
REMARK  status: ('A' for Active; 'I' for Inactive)
REMARK    1  A    between atoms: O_1  and  C_2
REMARK    2  A    between atoms: C_2  and  C_3
REMARK    3  A    between atoms: C_2  and  C_5
REMARK    4  A    between atoms: C_2  and  C_6
REMARK    5  A    between atoms: C_3  and  C_4
REMARK    6  A    between atoms: C_4  and  C_7
REMARK    7  A    between atoms: C_8  and  C_9
REMARK    8  A    between atoms: C_8  and  C_10
REMARK                            x       y       z     vdW  Elec       q    Type
REMARK                         _______ _______ _______ _____ _____    ______ ____
ROOT
ATOM      1  C   UNL     1       6.252   9.541  -0.294  0.00  0.00    +0.000 C 
ATOM      2  H   UNL     1       6.729   9.083  -1.173  0.00  0.00    +0.000 HD
ATOM      3  H   UNL     1       7.088   9.779   0.380  0.00  0.00    +0.000 HD
ENDROOT
BRANCH   1   4
ATOM      4  C   UNL     1       5.330   8.517   0.376  0.00  0.00    +0.000 C 
ATOM      5  H   UNL     1       5.420   7.531  -0.091  0.00  0.00    +0.000 HD
ATOM      6  H   UNL     1       4.281   8.809   0.242  0.00  0.00    +0.000 HD
BRANCH   4   7
ATOM      7  C   UNL     1       5.589   8.445   1.855  0.00  0.00    +0.000 C 
ATOM      8  C   UNL     1       4.747   8.777   2.853  0.00  0.00    +0.000 C 
ATOM      9  H   UNL     1       6.574   8.070   2.129  0.00  0.00    +0.000 HD
BRANCH   8  10
ATOM     10  C   UNL     1       5.065   8.680   4.318  0.00  0.00    +0.000 C 
ATOM     11  H   UNL     1       6.145   8.749   4.480  0.00  0.00    +0.000 HD
ATOM     12  H   UNL     1       4.710   7.727   4.722  0.00  0.00    +0.000 HD
ATOM     13  H   UNL     1       4.589   9.484   4.888  0.00  0.00    +0.000 HD
ENDBRANCH   8  10
BRANCH   8  14
ATOM     14  C   UNL     1       3.359   9.275   2.547  0.00  0.00    +0.000 C 
ATOM     15  H   UNL     1       3.392   9.971   1.702  0.00  0.00    +0.000 HD
ATOM     16  H   UNL     1       2.636   8.492   2.309  0.00  0.00    +0.000 HD
ATOM     17  H   UNL     1       2.958   9.812   3.414  0.00  0.00    +0.000 HD
ENDBRANCH   8  14
ENDBRANCH   4   7
ENDBRANCH   1   4
BRANCH   1  18
ATOM     18  C   UNL     1       5.568  10.862  -0.721  0.00  0.00    +0.000 C 
BRANCH  18  19
ATOM     19  C   UNL     1       4.060  10.715  -0.723  0.00  0.00    +0.000 C 
ATOM     20  C   UNL     1       3.196  11.194  -1.626  0.00  0.00    +0.000 C 
ATOM     21  H   UNL     1       3.640  10.142   0.103  0.00  0.00    +0.000 HD
ATOM     22  H   UNL     1       2.133  11.010  -1.511  0.00  0.00    +0.000 HD
ATOM     23  H   UNL     1       3.512  11.770  -2.486  0.00  0.00    +0.000 HD
ENDBRANCH  18  19
BRANCH  18  24
ATOM     24  C   UNL     1       6.100  12.048   0.093  0.00  0.00    +0.000 C 
ATOM     25  H   UNL     1       7.194  12.093   0.040  0.00  0.00    +0.000 HD
ATOM     26  H   UNL     1       5.741  13.000  -0.318  0.00  0.00    +0.000 HD
ATOM     27  H   UNL     1       5.812  11.999   1.147  0.00  0.00    +0.000 HD
ENDBRANCH  18  24
BRANCH  18  28
ATOM     28  O   UNL     1       5.964  11.119  -2.079  0.00  0.00    +0.000 OA
ATOM     29  H   UNL     1       5.333  11.748  -2.468  0.00  0.00    +0.000 HD
ENDBRANCH  18  28
ENDBRANCH   1  18
TORSDOF 8
ENDMDL
MODEL 2
REMARK VINA RESULT:    -5.072      2.056      2.474
REMARK INTER + INTRA:          -7.106
REMARK INTER:                  -6.716
REMARK INTRA:                  -0.390
REMARK UNBOUND:                -0.254
REMARK  Name = 6549
REMARK  8 active torsions:
REMARK  status: ('A' for Active; 'I' for Inactive)
REMARK    1  A    between atoms: O_1  and  C_2
REMARK    2  A    between atoms: C_2  and  C_3
REMARK    3  A    between atoms: C_2  and  C_5
REMARK    4  A    between atoms: C_2  and  C_6
REMARK    5  A    between atoms: C_3  and  C_4
REMARK    6  A    between atoms: C_4  and  C_7
REMARK    7  A    between atoms: C_8  and  C_9
REMARK    8  A    between atoms: C_8  and  C_10
REMARK                            x       y       z     vdW  Elec       q    Type
REMARK                         _______ _______ _______ _____ _____    ______ ____
ROOT
ATOM      1  C   UNL     1       5.701   9.908   0.909  0.00  0.00    +0.000 C 
ATOM      2  H   UNL     1       6.285  10.318   0.073  0.00  0.00    +0.000 HD
ATOM      3  H   UNL     1       5.936  10.567   1.758  0.00  0.00    +0.000 HD
ENDROOT
BRANCH   1   4
ATOM      4  C   UNL     1       6.180   8.485   1.216  0.00  0.00    +0.000 C 
ATOM      5  H   UNL     1       6.892   8.132   0.463  0.00  0.00    +0.000 HD
ATOM      6  H   UNL     1       5.337   7.785   1.173  0.00  0.00    +0.000 HD
BRANCH   4   7
ATOM      7  C   UNL     1       6.762   8.399   2.599  0.00  0.00    +0.000 C 
ATOM      8  C   UNL     1       6.271   7.721   3.655  0.00  0.00    +0.000 C 
ATOM      9  H   UNL     1       7.692   8.947   2.739  0.00  0.00    +0.000 HD
BRANCH   8  10
ATOM     10  C   UNL     1       6.903   7.673   5.018  0.00  0.00    +0.000 C 
ATOM     11  H   UNL     1       6.181   7.326   5.762  0.00  0.00    +0.000 HD
ATOM     12  H   UNL     1       7.258   8.667   5.308  0.00  0.00    +0.000 HD
ATOM     13  H   UNL     1       7.760   6.992   5.040  0.00  0.00    +0.000 HD
ENDBRANCH   8  10
BRANCH   8  14
ATOM     14  C   UNL     1       5.004   6.919   3.526  0.00  0.00    +0.000 C 
ATOM     15  H   UNL     1       4.417   7.284   2.677  0.00  0.00    +0.000 HD
ATOM     16  H   UNL     1       5.157   5.845   3.391  0.00  0.00    +0.000 HD
ATOM     17  H   UNL     1       4.398   7.032   4.432  0.00  0.00    +0.000 HD
ENDBRANCH   8  14
ENDBRANCH   4   7
ENDBRANCH   1   4
BRANCH   1  18
ATOM     18  C   UNL     1       4.193  10.038   0.584  0.00  0.00    +0.000 C 
BRANCH  18  19
ATOM     19  C   UNL     1       3.939  11.203  -0.350  0.00  0.00    +0.000 C 
ATOM     20  C   UNL     1       3.270  11.186  -1.510  0.00  0.00    +0.000 C 
ATOM     21  H   UNL     1       4.340  12.163  -0.029  0.00  0.00    +0.000 HD
ATOM     22  H   UNL     1       3.155  12.099  -2.084  0.00  0.00    +0.000 HD
ATOM     23  H   UNL     1       2.828  10.284  -1.915  0.00  0.00    +0.000 HD
ENDBRANCH  18  19
BRANCH  18  24
ATOM     24  C   UNL     1       3.611   8.698   0.121  0.00  0.00    +0.000 C 
ATOM     25  H   UNL     1       2.924   8.293   0.873  0.00  0.00    +0.000 HD
ATOM     26  H   UNL     1       3.015   8.823  -0.792  0.00  0.00    +0.000 HD
ATOM     27  H   UNL     1       4.383   7.948  -0.074  0.00  0.00    +0.000 HD
ENDBRANCH  18  24
BRANCH  18  28
ATOM     28  O   UNL     1       3.524  10.341   1.821  0.00  0.00    +0.000 OA
ATOM     29  H   UNL     1       3.051  11.184   1.714  0.00  0.00    +0.000 HD
ENDBRANCH  18  28
ENDBRANCH   1  18
TORSDOF 8
ENDMDL
MODEL 3
REMARK VINA RESULT:    -4.835      1.966      2.644
REMARK INTER + INTRA:          -6.785
REMARK INTER:                  -6.517
REMARK INTRA:                  -0.268
REMARK UNBOUND:                -0.254
REMARK  Name = 6549
REMARK  8 active torsions:
REMARK  status: ('A' for Active; 'I' for Inactive)
REMARK    1  A    between atoms: O_1  and  C_2
REMARK    2  A    between atoms: C_2  and  C_3
REMARK    3  A    between atoms: C_2  and  C_5
REMARK    4  A    between atoms: C_2  and  C_6
REMARK    5  A    between atoms: C_3  and  C_4
REMARK    6  A    between atoms: C_4  and  C_7
REMARK    7  A    between atoms: C_8  and  C_9
REMARK    8  A    between atoms: C_8  and  C_10
REMARK                            x       y       z     vdW  Elec       q    Type
REMARK                         _______ _______ _______ _____ _____    ______ ____
ROOT
ATOM      1  C   UNL     1       7.425   8.557  -0.264  0.00  0.00    +0.000 C 
ATOM      2  H   UNL     1       6.433   8.233  -0.610  0.00  0.00    +0.000 HD
ATOM      3  H   UNL     1       8.085   7.705  -0.483  0.00  0.00    +0.000 HD
ENDROOT
BRANCH   1   4
ATOM      4  C   UNL     1       7.383   8.799   1.249  0.00  0.00    +0.000 C 
ATOM      5  H   UNL     1       7.192   9.852   1.481  0.00  0.00    +0.000 HD
ATOM      6  H   UNL     1       8.360   8.575   1.694  0.00  0.00    +0.000 HD
BRANCH   4   7
ATOM      7  C   UNL     1       6.374   7.903   1.910  0.00  0.00    +0.000 C 
ATOM      8  C   UNL     1       6.187   7.712   3.231  0.00  0.00    +0.000 C 
ATOM      9  H   UNL     1       5.724   7.362   1.225  0.00  0.00    +0.000 HD
BRANCH   8  10
ATOM     10  C   UNL     1       5.156   6.800   3.832  0.00  0.00    +0.000 C 
ATOM     11  H   UNL     1       5.616   5.860   4.152  0.00  0.00    +0.000 HD
ATOM     12  H   UNL     1       4.373   6.577   3.101  0.00  0.00    +0.000 HD
ATOM     13  H   UNL     1       4.678   7.254   4.706  0.00  0.00    +0.000 HD
ENDBRANCH   8  10
BRANCH   8  14
ATOM     14  C   UNL     1       7.031   8.449   4.236  0.00  0.00    +0.000 C 
ATOM     15  H   UNL     1       7.870   7.819   4.550  0.00  0.00    +0.000 HD
ATOM     16  H   UNL     1       7.439   9.398   3.881  0.00  0.00    +0.000 HD
ATOM     17  H   UNL     1       6.432   8.684   5.123  0.00  0.00    +0.000 HD
ENDBRANCH   8  14
ENDBRANCH   4   7
ENDBRANCH   1   4
BRANCH   1  18
ATOM     18  C   UNL     1       7.883   9.769  -1.111  0.00  0.00    +0.000 C 
BRANCH  18  19
ATOM     19  C   UNL     1       7.021  10.983  -0.830  0.00  0.00    +0.000 C 
ATOM     20  C   UNL     1       5.690  11.079  -0.937  0.00  0.00    +0.000 C 
ATOM     21  H   UNL     1       7.552  11.872  -0.493  0.00  0.00    +0.000 HD
ATOM     22  H   UNL     1       5.192  12.012  -0.698  0.00  0.00    +0.000 HD
ATOM     23  H   UNL     1       5.070  10.251  -1.259  0.00  0.00    +0.000 HD
ENDBRANCH  18  19
BRANCH  18  24
ATOM     24  C   UNL     1       9.393  10.002  -0.970  0.00  0.00    +0.000 C 
ATOM     25  H   UNL     1       9.618  11.074  -0.949  0.00  0.00    +0.000 HD
ATOM     26  H   UNL     1       9.766   9.599  -0.020  0.00  0.00    +0.000 HD
ATOM     27  H   UNL     1       9.966   9.548  -1.784  0.00  0.00    +0.000 HD
ENDBRANCH  18  24
BRANCH  18  28
ATOM     28  O   UNL     1       7.675   9.418  -2.490  0.00  0.00    +0.000 OA
ATOM     29  H   UNL     1       7.676   8.449  -2.562  0.00  0.00    +0.000 HD
ENDBRANCH  18  28
ENDBRANCH   1  18
TORSDOF 8
ENDMDL
MODEL 4
REMARK VINA RESULT:    -4.786      2.364      3.939
REMARK INTER + INTRA:          -6.719
REMARK INTER:                  -6.181
REMARK INTRA:                  -0.538
REMARK UNBOUND:                -0.254
REMARK  Name = 6549
REMARK  8 active torsions:
REMARK  status: ('A' for Active; 'I' for Inactive)
REMARK    1  A    between atoms: O_1  and  C_2
REMARK    2  A    between atoms: C_2  and  C_3
REMARK    3  A    between atoms: C_2  and  C_5
REMARK    4  A    between atoms: C_2  and  C_6
REMARK    5  A    between atoms: C_3  and  C_4
REMARK    6  A    between atoms: C_4  and  C_7
REMARK    7  A    between atoms: C_8  and  C_9
REMARK    8  A    between atoms: C_8  and  C_10
REMARK                            x       y       z     vdW  Elec       q    Type
REMARK                         _______ _______ _______ _____ _____    ______ ____
ROOT
ATOM      1  C   UNL     1       5.444   9.129   1.873  0.00  0.00    +0.000 C 
ATOM      2  H   UNL     1       6.025   9.954   2.312  0.00  0.00    +0.000 HD
ATOM      3  H   UNL     1       5.119   8.532   2.737  0.00  0.00    +0.000 HD
ENDROOT
BRANCH   1   4
ATOM      4  C   UNL     1       6.358   8.283   0.979  0.00  0.00    +0.000 C 
ATOM      5  H   UNL     1       5.894   8.085   0.008  0.00  0.00    +0.000 HD
ATOM      6  H   UNL     1       6.521   7.297   1.431  0.00  0.00    +0.000 HD
BRANCH   4   7
ATOM      7  C   UNL     1       7.705   8.930   0.818  0.00  0.00    +0.000 C 
ATOM      8  C   UNL     1       8.215   9.499  -0.291  0.00  0.00    +0.000 C 
ATOM      9  H   UNL     1       8.320   8.935   1.717  0.00  0.00    +0.000 HD
BRANCH   8  10
ATOM     10  C   UNL     1       9.574  10.133  -0.387  0.00  0.00    +0.000 C 
ATOM     11  H   UNL     1      10.266   9.474  -0.919  0.00  0.00    +0.000 HD
ATOM     12  H   UNL     1       9.974  10.329   0.612  0.00  0.00    +0.000 HD
ATOM     13  H   UNL     1       9.537  11.085  -0.926  0.00  0.00    +0.000 HD
ENDBRANCH   8  10
BRANCH   8  14
ATOM     14  C   UNL     1       7.409   9.554  -1.561  0.00  0.00    +0.000 C 
ATOM     15  H   UNL     1       7.965  10.099  -2.331  0.00  0.00    +0.000 HD
ATOM     16  H   UNL     1       7.137   8.578  -1.971  0.00  0.00    +0.000 HD
ATOM     17  H   UNL     1       6.468  10.086  -1.381  0.00  0.00    +0.000 HD
ENDBRANCH   8  14
ENDBRANCH   4   7
ENDBRANCH   1   4
BRANCH   1  18
ATOM     18  C   UNL     1       4.192   9.709   1.171  0.00  0.00    +0.000 C 
BRANCH  18  19
ATOM     19  C   UNL     1       4.488  11.069   0.574  0.00  0.00    +0.000 C 
ATOM     20  C   UNL     1       3.606  11.965   0.111  0.00  0.00    +0.000 C 
ATOM     21  H   UNL     1       5.540  11.348   0.530  0.00  0.00    +0.000 HD
ATOM     22  H   UNL     1       3.954  12.912  -0.289  0.00  0.00    +0.000 HD
ATOM     23  H   UNL     1       2.539  11.787   0.115  0.00  0.00    +0.000 HD
ENDBRANCH  18  19
BRANCH  18  24
ATOM     24  C   UNL     1       3.585   8.693   0.197  0.00  0.00    +0.000 C 
ATOM     25  H   UNL     1       2.847   9.175  -0.454  0.00  0.00    +0.000 HD
ATOM     26  H   UNL     1       4.352   8.283  -0.473  0.00  0.00    +0.000 HD
ATOM     27  H   UNL     1       3.096   7.859   0.709  0.00  0.00    +0.000 HD
ENDBRANCH  18  24
BRANCH  18  28
ATOM     28  O   UNL     1       3.197   9.908   2.191  0.00  0.00    +0.000 OA
ATOM     29  H   UNL     1       2.389  10.244   1.767  0.00  0.00    +0.000 HD
ENDBRANCH  18  28
ENDBRANCH   1  18
TORSDOF 8
ENDMDL
MODEL 5
REMARK VINA RESULT:    -4.663      2.327      4.814
REMARK INTER + INTRA:          -6.553
REMARK INTER:                  -6.270
REMARK INTRA:                  -0.283
REMARK UNBOUND:                -0.254
REMARK  Name = 6549
REMARK  8 active torsions:
REMARK  status: ('A' for Active; 'I' for Inactive)
REMARK    1  A    between atoms: O_1  and  C_2
REMARK    2  A    between atoms: C_2  and  C_3
REMARK    3  A    between atoms: C_2  and  C_5
REMARK    4  A    between atoms: C_2  and  C_6
REMARK    5  A    between atoms: C_3  and  C_4
REMARK    6  A    between atoms: C_4  and  C_7
REMARK    7  A    between atoms: C_8  and  C_9
REMARK    8  A    between atoms: C_8  and  C_10
REMARK                            x       y       z     vdW  Elec       q    Type
REMARK                         _______ _______ _______ _____ _____    ______ ____
ROOT
ATOM      1  C   UNL     1       5.502   8.488   1.189  0.00  0.00    +0.000 C 
ATOM      2  H   UNL     1       6.122   9.197   0.621  0.00  0.00    +0.000 HD
ATOM      3  H   UNL     1       5.576   7.546   0.627  0.00  0.00    +0.000 HD
ENDROOT
BRANCH   1   4
ATOM      4  C   UNL     1       4.047   8.970   1.190  0.00  0.00    +0.000 C 
ATOM      5  H   UNL     1       3.880   9.734   1.957  0.00  0.00    +0.000 HD
ATOM      6  H   UNL     1       3.375   8.144   1.451  0.00  0.00    +0.000 HD
BRANCH   4   7
ATOM      7  C   UNL     1       3.642   9.465  -0.170  0.00  0.00    +0.000 C 
ATOM      8  C   UNL     1       3.522  10.743  -0.577  0.00  0.00    +0.000 C 
ATOM      9  H   UNL     1       3.433   8.682  -0.897  0.00  0.00    +0.000 HD
BRANCH   8  10
ATOM     10  C   UNL     1       3.112  11.174  -1.957  0.00  0.00    +0.000 C 
ATOM     11  H   UNL     1       3.904  10.954  -2.678  0.00  0.00    +0.000 HD
ATOM     12  H   UNL     1       2.910  12.249  -1.974  0.00  0.00    +0.000 HD
ATOM     13  H   UNL     1       2.205  10.657  -2.286  0.00  0.00    +0.000 HD
ENDBRANCH   8  10
BRANCH   8  14
ATOM     14  C   UNL     1       3.823  11.876   0.368  0.00  0.00    +0.000 C 
ATOM     15  H   UNL     1       3.193  12.739   0.126  0.00  0.00    +0.000 HD
ATOM     16  H   UNL     1       3.677  11.640   1.424  0.00  0.00    +0.000 HD
ATOM     17  H   UNL     1       4.871  12.181   0.261  0.00  0.00    +0.000 HD
ENDBRANCH   8  14
ENDBRANCH   4   7
ENDBRANCH   1   4
BRANCH   1  18
ATOM     18  C   UNL     1       6.127   8.280   2.590  0.00  0.00    +0.000 C 
BRANCH  18  19
ATOM     19  C   UNL     1       5.981   6.841   3.039  0.00  0.00    +0.000 C 
ATOM     20  C   UNL     1       4.973   6.303   3.738  0.00  0.00    +0.000 C 
ATOM     21  H   UNL     1       6.788   6.171   2.748  0.00  0.00    +0.000 HD
ATOM     22  H   UNL     1       4.989   5.249   3.991  0.00  0.00    +0.000 HD
ATOM     23  H   UNL     1       4.121   6.883   4.070  0.00  0.00    +0.000 HD
ENDBRANCH  18  19
BRANCH  18  24
ATOM     24  C   UNL     1       7.556   8.834   2.645  0.00  0.00    +0.000 C 
ATOM     25  H   UNL     1       7.681   9.652   1.927  0.00  0.00    +0.000 HD
ATOM     26  H   UNL     1       7.773   9.264   3.631  0.00  0.00    +0.000 HD
ATOM     27  H   UNL     1       8.311   8.072   2.430  0.00  0.00    +0.000 HD
ENDBRANCH  18  24
BRANCH  18  28
ATOM     28  O   UNL     1       5.367   9.084   3.510  0.00  0.00    +0.000 OA
ATOM     29  H   UNL     1       5.988   9.538   4.104  0.00  0.00    +0.000 HD
ENDBRANCH  18  28
ENDBRANCH   1  18
TORSDOF 8
ENDMDL
MODEL 6
REMARK VINA RESULT:    -4.614     12.712     14.371
REMARK INTER + INTRA:          -6.487
REMARK INTER:                  -6.048
REMARK INTRA:                  -0.439
REMARK UNBOUND:                -0.254
REMARK  Name = 6549
REMARK  8 active torsions:
REMARK  status: ('A' for Active; 'I' for Inactive)
REMARK    1  A    between atoms: O_1  and  C_2
REMARK    2  A    between atoms: C_2  and  C_3
REMARK    3  A    between atoms: C_2  and  C_5
REMARK    4  A    between atoms: C_2  and  C_6
REMARK    5  A    between atoms: C_3  and  C_4
REMARK    6  A    between atoms: C_4  and  C_7
REMARK    7  A    between atoms: C_8  and  C_9
REMARK    8  A    between atoms: C_8  and  C_10
REMARK                            x       y       z     vdW  Elec       q    Type
REMARK                         _______ _______ _______ _____ _____    ______ ____
ROOT
ATOM      1  C   UNL     1      -1.956   7.847 -10.941  0.00  0.00    +0.000 C 
ATOM      2  H   UNL     1      -2.158   7.729 -12.015  0.00  0.00    +0.000 HD
ATOM      3  H   UNL     1      -0.905   7.547 -10.823  0.00  0.00    +0.000 HD
ENDROOT
BRANCH   1   4
ATOM      4  C   UNL     1      -2.854   6.893 -10.146  0.00  0.00    +0.000 C 
ATOM      5  H   UNL     1      -2.977   7.228  -9.111  0.00  0.00    +0.000 HD
ATOM      6  H   UNL     1      -2.386   5.903 -10.078  0.00  0.00    +0.000 HD
BRANCH   4   7
ATOM      7  C   UNL     1      -4.184   6.714 -10.823  0.00  0.00    +0.000 C 
ATOM      8  C   UNL     1      -5.350   6.347 -10.257  0.00  0.00    +0.000 C 
ATOM      9  H   UNL     1      -4.183   6.917 -11.893  0.00  0.00    +0.000 HD
BRANCH   8  10
ATOM     10  C   UNL     1      -6.651   6.186 -10.991  0.00  0.00    +0.000 C 
ATOM     11  H   UNL     1      -7.411   5.757 -10.332  0.00  0.00    +0.000 HD
ATOM     12  H   UNL     1      -6.522   5.527 -11.854  0.00  0.00    +0.000 HD
ATOM     13  H   UNL     1      -7.029   7.147 -11.356  0.00  0.00    +0.000 HD
ENDBRANCH   8  10
BRANCH   8  14
ATOM     14  C   UNL     1      -5.430   6.078  -8.778  0.00  0.00    +0.000 C 
ATOM     15  H   UNL     1      -5.972   6.890  -8.281  0.00  0.00    +0.000 HD
ATOM     16  H   UNL     1      -5.916   5.137  -8.511  0.00  0.00    +0.000 HD
ATOM     17  H   UNL     1      -4.420   6.035  -8.353  0.00  0.00    +0.000 HD
ENDBRANCH   8  14
ENDBRANCH   4   7
ENDBRANCH   1   4
BRANCH   1  18
ATOM     18  C   UNL     1      -2.090   9.343 -10.563  0.00  0.00    +0.000 C 
BRANCH  18  19
ATOM     19  C   UNL     1      -2.736  10.129 -11.685  0.00  0.00    +0.000 C 
ATOM     20  C   UNL     1      -3.986  10.009 -12.150  0.00  0.00    +0.000 C 
ATOM     21  H   UNL     1      -2.108  10.884 -12.156  0.00  0.00    +0.000 HD
ATOM     22  H   UNL     1      -4.327  10.643 -12.961  0.00  0.00    +0.000 HD
ATOM     23  H   UNL     1      -4.691   9.293 -11.746  0.00  0.00    +0.000 HD
ENDBRANCH  18  19
BRANCH  18  24
ATOM     24  C   UNL     1      -2.755   9.508  -9.191  0.00  0.00    +0.000 C 
ATOM     25  H   UNL     1      -3.754   9.947  -9.296  0.00  0.00    +0.000 HD
ATOM     26  H   UNL     1      -2.905   8.535  -8.707  0.00  0.00    +0.000 HD
ATOM     27  H   UNL     1      -2.173  10.142  -8.515  0.00  0.00    +0.000 HD
ENDBRANCH  18  24
BRANCH  18  28
ATOM     28  O   UNL     1      -0.755   9.856 -10.408  0.00  0.00    +0.000 OA
ATOM     29  H   UNL     1      -0.243   9.219  -9.881  0.00  0.00    +0.000 HD
ENDBRANCH  18  28
ENDBRANCH   1  18
TORSDOF 8
ENDMDL
MODEL 7
REMARK VINA RESULT:    -4.564      2.138      2.810
REMARK INTER + INTRA:          -6.419
REMARK INTER:                  -5.928
REMARK INTRA:                  -0.491
REMARK UNBOUND:                -0.254
REMARK  Name = 6549
REMARK  8 active torsions:
REMARK  status: ('A' for Active; 'I' for Inactive)
REMARK    1  A    between atoms: O_1  and  C_2
REMARK    2  A    between atoms: C_2  and  C_3
REMARK    3  A    between atoms: C_2  and  C_5
REMARK    4  A    between atoms: C_2  and  C_6
REMARK    5  A    between atoms: C_3  and  C_4
REMARK    6  A    between atoms: C_4  and  C_7
REMARK    7  A    between atoms: C_8  and  C_9
REMARK    8  A    between atoms: C_8  and  C_10
REMARK                            x       y       z     vdW  Elec       q    Type
REMARK                         _______ _______ _______ _____ _____    ______ ____
ROOT
ATOM      1  C   UNL     1       5.595   9.623   0.490  0.00  0.00    +0.000 C 
ATOM      2  H   UNL     1       5.635  10.567   1.052  0.00  0.00    +0.000 HD
ATOM      3  H   UNL     1       5.156   9.899  -0.481  0.00  0.00    +0.000 HD
ENDROOT
BRANCH   1   4
ATOM      4  C   UNL     1       4.667   8.640   1.211  0.00  0.00    +0.000 C 
ATOM      5  H   UNL     1       4.961   7.602   1.024  0.00  0.00    +0.000 HD
ATOM      6  H   UNL     1       3.646   8.728   0.820  0.00  0.00    +0.000 HD
BRANCH   4   7
ATOM      7  C   UNL     1       4.610   8.933   2.684  0.00  0.00    +0.000 C 
ATOM      8  C   UNL     1       5.106   8.187   3.689  0.00  0.00    +0.000 C 
ATOM      9  H   UNL     1       4.112   9.866   2.945  0.00  0.00    +0.000 HD
BRANCH   8  10
ATOM     10  C   UNL     1       5.017   8.537   5.148  0.00  0.00    +0.000 C 
ATOM     11  H   UNL     1       5.629   9.416   5.368  0.00  0.00    +0.000 HD
ATOM     12  H   UNL     1       5.368   7.702   5.761  0.00  0.00    +0.000 HD
ATOM     13  H   UNL     1       3.987   8.761   5.446  0.00  0.00    +0.000 HD
ENDBRANCH   8  10
BRANCH   8  14
ATOM     14  C   UNL     1       5.830   6.899   3.399  0.00  0.00    +0.000 C 
ATOM     15  H   UNL     1       6.904   7.091   3.301  0.00  0.00    +0.000 HD
ATOM     16  H   UNL     1       5.697   6.121   4.154  0.00  0.00    +0.000 HD
ATOM     17  H   UNL     1       5.472   6.477   2.454  0.00  0.00    +0.000 HD
ENDBRANCH   8  14
ENDBRANCH   4   7
ENDBRANCH   1   4
BRANCH   1  18
ATOM     18  C   UNL     1       7.038   9.114   0.254  0.00  0.00    +0.000 C 
BRANCH  18  19
ATOM     19  C   UNL     1       7.590   9.639  -1.055  0.00  0.00    +0.000 C 
ATOM     20  C   UNL     1       7.476  10.878  -1.549  0.00  0.00    +0.000 C 
ATOM     21  H   UNL     1       8.154   8.923  -1.651  0.00  0.00    +0.000 HD
ATOM     22  H   UNL     1       7.928  11.126  -2.504  0.00  0.00    +0.000 HD
ATOM     23  H   UNL     1       6.940  11.664  -1.032  0.00  0.00    +0.000 HD
ENDBRANCH  18  19
BRANCH  18  24
ATOM     24  C   UNL     1       7.922   9.373   1.480  0.00  0.00    +0.000 C 
ATOM     25  H   UNL     1       7.320   9.376   2.397  0.00  0.00    +0.000 HD
ATOM     26  H   UNL     1       8.660   8.572   1.609  0.00  0.00    +0.000 HD
ATOM     27  H   UNL     1       8.456  10.326   1.420  0.00  0.00    +0.000 HD
ENDBRANCH  18  24
BRANCH  18  28
ATOM     28  O   UNL     1       6.961   7.683   0.131  0.00  0.00    +0.000 OA
ATOM     29  H   UNL     1       7.682   7.292   0.653  0.00  0.00    +0.000 HD
ENDBRANCH  18  28
ENDBRANCH   1  18
TORSDOF 8
ENDMDL
MODEL 8
REMARK VINA RESULT:    -4.562      4.527      7.076
REMARK INTER + INTRA:          -6.416
REMARK INTER:                  -6.162
REMARK INTRA:                  -0.254
REMARK UNBOUND:                -0.254
REMARK  Name = 6549
REMARK  8 active torsions:
REMARK  status: ('A' for Active; 'I' for Inactive)
REMARK    1  A    between atoms: O_1  and  C_2
REMARK    2  A    between atoms: C_2  and  C_3
REMARK    3  A    between atoms: C_2  and  C_5
REMARK    4  A    between atoms: C_2  and  C_6
REMARK    5  A    between atoms: C_3  and  C_4
REMARK    6  A    between atoms: C_4  and  C_7
REMARK    7  A    between atoms: C_8  and  C_9
REMARK    8  A    between atoms: C_8  and  C_10
REMARK                            x       y       z     vdW  Elec       q    Type
REMARK                         _______ _______ _______ _____ _____    ______ ____
ROOT
ATOM      1  C   UNL     1       6.953   9.550   6.123  0.00  0.00    +0.000 C 
ATOM      2  H   UNL     1       6.192   9.251   6.858  0.00  0.00    +0.000 HD
ATOM      3  H   UNL     1       6.424  10.228   5.438  0.00  0.00    +0.000 HD
ENDROOT
BRANCH   1   4
ATOM      4  C   UNL     1       7.431   8.314   5.353  0.00  0.00    +0.000 C 
ATOM      5  H   UNL     1       6.907   7.410   5.683  0.00  0.00    +0.000 HD
ATOM      6  H   UNL     1       8.492   8.127   5.558  0.00  0.00    +0.000 HD
BRANCH   4   7
ATOM      7  C   UNL     1       7.290   8.514   3.870  0.00  0.00    +0.000 C 
ATOM      8  C   UNL     1       6.496   7.832   3.021  0.00  0.00    +0.000 C 
ATOM      9  H   UNL     1       7.903   9.313   3.456  0.00  0.00    +0.000 HD
BRANCH   8  10
ATOM     10  C   UNL     1       6.399   8.083   1.543  0.00  0.00    +0.000 C 
ATOM     11  H   UNL     1       6.430   9.156   1.334  0.00  0.00    +0.000 HD
ATOM     12  H   UNL     1       5.464   7.675   1.149  0.00  0.00    +0.000 HD
ATOM     13  H   UNL     1       7.225   7.611   1.000  0.00  0.00    +0.000 HD
ENDBRANCH   8  10
BRANCH   8  14
ATOM     14  C   UNL     1       5.601   6.734   3.528  0.00  0.00    +0.000 C 
ATOM     15  H   UNL     1       5.999   5.759   3.225  0.00  0.00    +0.000 HD
ATOM     16  H   UNL     1       5.468   6.718   4.613  0.00  0.00    +0.000 HD
ATOM     17  H   UNL     1       4.600   6.841   3.096  0.00  0.00    +0.000 HD
ENDBRANCH   8  14
ENDBRANCH   4   7
ENDBRANCH   1   4
BRANCH   1  18
ATOM     18  C   UNL     1       8.068  10.345   6.844  0.00  0.00    +0.000 C 
BRANCH  18  19
ATOM     19  C   UNL     1       8.594   9.578   8.040  0.00  0.00    +0.000 C 
ATOM     20  C   UNL     1       8.382   9.843   9.336  0.00  0.00    +0.000 C 
ATOM     21  H   UNL     1       9.203   8.705   7.811  0.00  0.00    +0.000 HD
ATOM     22  H   UNL     1       8.816   9.205  10.098  0.00  0.00    +0.000 HD
ATOM     23  H   UNL     1       7.786  10.683   9.668  0.00  0.00    +0.000 HD
ENDBRANCH  18  19
BRANCH  18  24
ATOM     24  C   UNL     1       9.141  10.815   5.854  0.00  0.00    +0.000 C 
ATOM     25  H   UNL     1       9.412  10.006   5.166  0.00  0.00    +0.000 HD
ATOM     26  H   UNL     1       8.764  11.630   5.224  0.00  0.00    +0.000 HD
ATOM     27  H   UNL     1      10.052  11.159   6.353  0.00  0.00    +0.000 HD
ENDBRANCH  18  24
BRANCH  18  28
ATOM     28  O   UNL     1       7.462  11.546   7.353  0.00  0.00    +0.000 OA
ATOM     29  H   UNL     1       6.498  11.473   7.241  0.00  0.00    +0.000 HD
ENDBRANCH  18  28
ENDBRANCH   1  18
TORSDOF 8
ENDMDL
MODEL 9
REMARK VINA RESULT:    -4.558      2.057      3.465
REMARK INTER + INTRA:          -6.411
REMARK INTER:                  -5.984
REMARK INTRA:                  -0.427
REMARK UNBOUND:                -0.254
REMARK  Name = 6549
REMARK  8 active torsions:
REMARK  status: ('A' for Active; 'I' for Inactive)
REMARK    1  A    between atoms: O_1  and  C_2
REMARK    2  A    between atoms: C_2  and  C_3
REMARK    3  A    between atoms: C_2  and  C_5
REMARK    4  A    between atoms: C_2  and  C_6
REMARK    5  A    between atoms: C_3  and  C_4
REMARK    6  A    between atoms: C_4  and  C_7
REMARK    7  A    between atoms: C_8  and  C_9
REMARK    8  A    between atoms: C_8  and  C_10
REMARK                            x       y       z     vdW  Elec       q    Type
REMARK                         _______ _______ _______ _____ _____    ______ ____
ROOT
ATOM      1  C   UNL     1       7.587   9.118   0.707  0.00  0.00    +0.000 C 
ATOM      2  H   UNL     1       8.576   9.080   1.185  0.00  0.00    +0.000 HD
ATOM      3  H   UNL     1       7.161  10.079   1.032  0.00  0.00    +0.000 HD
ENDROOT
BRANCH   1   4
ATOM      4  C   UNL     1       6.720   7.969   1.234  0.00  0.00    +0.000 C 
ATOM      5  H   UNL     1       7.327   7.208   1.735  0.00  0.00    +0.000 HD
ATOM      6  H   UNL     1       6.232   7.451   0.400  0.00  0.00    +0.000 HD
BRANCH   4   7
ATOM      7  C   UNL     1       5.635   8.483   2.139  0.00  0.00    +0.000 C 
ATOM      8  C   UNL     1       4.406   8.908   1.787  0.00  0.00    +0.000 C 
ATOM      9  H   UNL     1       5.891   8.496   3.197  0.00  0.00    +0.000 HD
BRANCH   8  10
ATOM     10  C   UNL     1       3.362   9.410   2.743  0.00  0.00    +0.000 C 
ATOM     11  H   UNL     1       2.370   9.056   2.447  0.00  0.00    +0.000 HD
ATOM     12  H   UNL     1       3.354  10.504   2.757  0.00  0.00    +0.000 HD
ATOM     13  H   UNL     1       3.551   9.064   3.764  0.00  0.00    +0.000 HD
ENDBRANCH   8  10
BRANCH   8  14
ATOM     14  C   UNL     1       3.976   8.891   0.345  0.00  0.00    +0.000 C 
ATOM     15  H   UNL     1       3.575   9.871   0.065  0.00  0.00    +0.000 HD
ATOM     16  H   UNL     1       4.767   8.637  -0.365  0.00  0.00    +0.000 HD
ATOM     17  H   UNL     1       3.184   8.147   0.202  0.00  0.00    +0.000 HD
ENDBRANCH   8  14
ENDBRANCH   4   7
ENDBRANCH   1   4
BRANCH   1  18
ATOM     18  C   UNL     1       7.769   9.152  -0.830  0.00  0.00    +0.000 C 
BRANCH  18  19
ATOM     19  C   UNL     1       9.162   9.619  -1.200  0.00  0.00    +0.000 C 
ATOM     20  C   UNL     1      10.177   8.874  -1.657  0.00  0.00    +0.000 C 
ATOM     21  H   UNL     1       9.348  10.686  -1.088  0.00  0.00    +0.000 HD
ATOM     22  H   UNL     1      11.129   9.338  -1.891  0.00  0.00    +0.000 HD
ATOM     23  H   UNL     1      10.092   7.805  -1.809  0.00  0.00    +0.000 HD
ENDBRANCH  18  19
BRANCH  18  24
ATOM     24  C   UNL     1       7.342   7.824  -1.466  0.00  0.00    +0.000 C 
ATOM     25  H   UNL     1       7.835   7.683  -2.435  0.00  0.00    +0.000 HD
ATOM     26  H   UNL     1       7.653   6.973  -0.846  0.00  0.00    +0.000 HD
ATOM     27  H   UNL     1       6.261   7.759  -1.620  0.00  0.00    +0.000 HD
ENDBRANCH  18  24
BRANCH  18  28
ATOM     28  O   UNL     1       6.850  10.135  -1.339  0.00  0.00    +0.000 OA
ATOM     29  H   UNL     1       7.130  10.378  -2.238  0.00  0.00    +0.000 HD
ENDBRANCH  18  28
ENDBRANCH   1  18
TORSDOF 8
ENDMDL
MODEL 10
REMARK VINA RESULT:    -4.557      1.620      2.399
REMARK INTER + INTRA:          -6.410
REMARK INTER:                  -6.132
REMARK INTRA:                  -0.278
REMARK UNBOUND:                -0.254
REMARK  Name = 6549
REMARK  8 active torsions:
REMARK  status: ('A' for Active; 'I' for Inactive)
REMARK    1  A    between atoms: O_1  and  C_2
REMARK    2  A    between atoms: C_2  and  C_3
REMARK    3  A    between atoms: C_2  and  C_5
REMARK    4  A    between atoms: C_2  and  C_6
REMARK    5  A    between atoms: C_3  and  C_4
REMARK    6  A    between atoms: C_4  and  C_7
REMARK    7  A    between atoms: C_8  and  C_9
REMARK    8  A    between atoms: C_8  and  C_10
REMARK                            x       y       z     vdW  Elec       q    Type
REMARK                         _______ _______ _______ _____ _____    ______ ____
ROOT
ATOM      1  C   UNL     1       4.450  10.024   1.042  0.00  0.00    +0.000 C 
ATOM      2  H   UNL     1       3.836  10.388   1.878  0.00  0.00    +0.000 HD
ATOM      3  H   UNL     1       3.829   9.257   0.557  0.00  0.00    +0.000 HD
ENDROOT
BRANCH   1   4
ATOM      4  C   UNL     1       5.727   9.377   1.591  0.00  0.00    +0.000 C 
ATOM      5  H   UNL     1       6.209  10.015   2.338  0.00  0.00    +0.000 HD
ATOM      6  H   UNL     1       6.465   9.258   0.789  0.00  0.00    +0.000 HD
BRANCH   4   7
ATOM      7  C   UNL     1       5.443   8.009   2.145  0.00  0.00    +0.000 C 
ATOM      8  C   UNL     1       5.178   7.680   3.424  0.00  0.00    +0.000 C 
ATOM      9  H   UNL     1       5.450   7.207   1.408  0.00  0.00    +0.000 HD
BRANCH   8  10
ATOM     10  C   UNL     1       4.900   6.287   3.916  0.00  0.00    +0.000 C 
ATOM     11  H   UNL     1       5.400   6.113   4.873  0.00  0.00    +0.000 HD
ATOM     12  H   UNL     1       5.259   5.550   3.192  0.00  0.00    +0.000 HD
ATOM     13  H   UNL     1       3.828   6.119   4.062  0.00  0.00    +0.000 HD
ENDBRANCH   8  10
BRANCH   8  14
ATOM     14  C   UNL     1       5.124   8.741   4.490  0.00  0.00    +0.000 C 
ATOM     15  H   UNL     1       6.006   9.387   4.417  0.00  0.00    +0.000 HD
ATOM     16  H   UNL     1       4.238   9.379   4.455  0.00  0.00    +0.000 HD
ATOM     17  H   UNL     1       5.128   8.273   5.481  0.00  0.00    +0.000 HD
ENDBRANCH   8  14
ENDBRANCH   4   7
ENDBRANCH   1   4
BRANCH   1  18
ATOM     18  C   UNL     1       4.679  11.182   0.041  0.00  0.00    +0.000 C 
BRANCH  18  19
ATOM     19  C   UNL     1       6.158  11.434  -0.168  0.00  0.00    +0.000 C 
ATOM     20  C   UNL     1       6.873  11.217  -1.279  0.00  0.00    +0.000 C 
ATOM     21  H   UNL     1       6.692  11.849   0.686  0.00  0.00    +0.000 HD
ATOM     22  H   UNL     1       7.933  11.448  -1.297  0.00  0.00    +0.000 HD
ATOM     23  H   UNL     1       6.435  10.813  -2.183  0.00  0.00    +0.000 HD
ENDBRANCH  18  19
BRANCH  18  24
ATOM     24  C   UNL     1       3.872  10.968  -1.245  0.00  0.00    +0.000 C 
ATOM     25  H   UNL     1       3.855  11.883  -1.848  0.00  0.00    +0.000 HD
ATOM     26  H   UNL     1       4.336  10.201  -1.878  0.00  0.00    +0.000 HD
ATOM     27  H   UNL     1       2.837  10.669  -1.048  0.00  0.00    +0.000 HD
ENDBRANCH  18  24
BRANCH  18  28
ATOM     28  O   UNL     1       4.134  12.369   0.644  0.00  0.00    +0.000 OA
ATOM     29  H   UNL     1       3.233  12.170   0.949  0.00  0.00    +0.000 HD
ENDBRANCH  18  28
ENDBRANCH   1  18
TORSDOF 8
ENDMDL
