MODEL 1
REMARK VINA RESULT:    -5.636      0.000      0.000
REMARK INTER + INTRA:          -8.283
REMARK INTER:                  -7.859
REMARK INTRA:                  -0.424
REMARK UNBOUND:                -0.505
REMARK  Name = 91604
REMARK  8 active torsions:
REMARK  status: ('A' for Active; 'I' for Inactive)
REMARK    1  A    between atoms: O_1  and  C_11
REMARK    2  A    between atoms: C_3  and  C_7
REMARK    3  A    between atoms: C_4  and  C_15
REMARK    4  A    between atoms: C_7  and  C_8
REMARK    5  A    between atoms: C_8  and  C_10
REMARK    6  A    between atoms: C_10  and  C_11
REMARK    7  A    between atoms: C_11  and  C_13
REMARK    8  A    between atoms: C_11  and  C_14
REMARK                            x       y       z     vdW  Elec       q    Type
REMARK                         _______ _______ _______ _____ _____    ______ ____
ROOT
ATOM      1  C   UNL     1       7.706   8.398   5.845  0.00  0.00    +0.000 C 
ATOM      2  H   UNL     1       7.136   8.339   6.781  0.00  0.00    +0.000 HD
ATOM      3  H   UNL     1       8.490   7.634   5.915  0.00  0.00    +0.000 HD
ENDROOT
BRANCH   1   4
ATOM      4  C   UNL     1       6.836   8.097   4.660  0.00  0.00    +0.000 C 
ATOM      5  C   UNL     1       5.071   7.879   2.361  0.00  0.00    +0.000 C 
ATOM      6  C   UNL     1       7.284   8.679   3.345  0.00  0.00    +0.000 C 
ATOM      7  C   UNL     1       6.569   8.079   2.128  0.00  0.00    +0.000 C 
ATOM      8  C   UNL     1       4.796   7.058   3.624  0.00  0.00    +0.000 C 
ATOM      9  C   UNL     1       5.721   7.356   4.769  0.00  0.00    +0.000 C 
ATOM     10  H   UNL     1       4.637   7.357   1.499  0.00  0.00    +0.000 HD
ATOM     11  H   UNL     1       7.108   9.762   3.352  0.00  0.00    +0.000 HD
ATOM     12  H   UNL     1       8.362   8.528   3.216  0.00  0.00    +0.000 HD
ATOM     13  H   UNL     1       6.745   8.719   1.254  0.00  0.00    +0.000 HD
ATOM     14  H   UNL     1       7.020   7.105   1.898  0.00  0.00    +0.000 HD
ATOM     15  H   UNL     1       4.916   5.992   3.383  0.00  0.00    +0.000 HD
ATOM     16  H   UNL     1       3.759   7.179   3.958  0.00  0.00    +0.000 HD
ATOM     17  H   UNL     1       5.441   6.940   5.733  0.00  0.00    +0.000 HD
BRANCH   5  19
ATOM     18  O   UNL     1       3.244   9.362   2.868  0.00  0.00    +0.000 OA
ATOM     19  C   UNL     1       4.377   9.210   2.421  0.00  0.00    +0.000 C 
ATOM     20  H   UNL     1       4.943  10.068   2.018  0.00  0.00    +0.000 HD
ENDBRANCH   5  19
ENDBRANCH   1   4
BRANCH   1  21
ATOM     21  C   UNL     1       8.360   9.778   5.737  0.00  0.00    +0.000 C 
ATOM     22  H   UNL     1       7.603  10.549   5.559  0.00  0.00    +0.000 HD
ATOM     23  H   UNL     1       9.009   9.769   4.854  0.00  0.00    +0.000 HD
BRANCH  21  24
ATOM     24  C   UNL     1       9.187  10.096   6.990  0.00  0.00    +0.000 C 
ATOM     25  H   UNL     1       9.383   9.182   7.563  0.00  0.00    +0.000 HD
ATOM     26  H   UNL     1      10.160  10.480   6.656  0.00  0.00    +0.000 HD
BRANCH  24  27
ATOM     27  C   UNL     1       8.545  11.133   7.933  0.00  0.00    +0.000 C 
BRANCH  27  28
ATOM     28  C   UNL     1       8.379  10.605   9.360  0.00  0.00    +0.000 C 
ATOM     29  H   UNL     1       7.401  10.867   9.778  0.00  0.00    +0.000 HD
ATOM     30  H   UNL     1       8.495   9.518   9.401  0.00  0.00    +0.000 HD
ATOM     31  H   UNL     1       9.120  11.058  10.028  0.00  0.00    +0.000 HD
ENDBRANCH  27  28
BRANCH  27  32
ATOM     32  C   UNL     1       9.393  12.410   7.945  0.00  0.00    +0.000 C 
ATOM     33  H   UNL     1       9.198  13.017   8.835  0.00  0.00    +0.000 HD
ATOM     34  H   UNL     1       9.190  13.020   7.057  0.00  0.00    +0.000 HD
ATOM     35  H   UNL     1      10.463  12.169   7.914  0.00  0.00    +0.000 HD
ENDBRANCH  27  32
BRANCH  27  36
ATOM     36  O   UNL     1       7.254  11.470   7.421  0.00  0.00    +0.000 OA
ATOM     37  H   UNL     1       6.700  11.780   8.157  0.00  0.00    +0.000 HD
ENDBRANCH  27  36
ENDBRANCH  24  27
ENDBRANCH  21  24
ENDBRANCH   1  21
TORSDOF 8
ENDMDL
MODEL 2
REMARK VINA RESULT:    -5.595     29.261     30.691
REMARK INTER + INTRA:          -8.226
REMARK INTER:                  -7.568
REMARK INTRA:                  -0.657
REMARK UNBOUND:                -0.505
REMARK  Name = 91604
REMARK  8 active torsions:
REMARK  status: ('A' for Active; 'I' for Inactive)
REMARK    1  A    between atoms: O_1  and  C_11
REMARK    2  A    between atoms: C_3  and  C_7
REMARK    3  A    between atoms: C_4  and  C_15
REMARK    4  A    between atoms: C_7  and  C_8
REMARK    5  A    between atoms: C_8  and  C_10
REMARK    6  A    between atoms: C_10  and  C_11
REMARK    7  A    between atoms: C_11  and  C_13
REMARK    8  A    between atoms: C_11  and  C_14
REMARK                            x       y       z     vdW  Elec       q    Type
REMARK                         _______ _______ _______ _____ _____    ______ ____
ROOT
ATOM      1  C   UNL     1     -21.848  -2.526   3.253  0.00  0.00    +0.000 C 
ATOM      2  H   UNL     1     -22.704  -3.207   3.340  0.00  0.00    +0.000 HD
ATOM      3  H   UNL     1     -22.211  -1.646   2.707  0.00  0.00    +0.000 HD
ENDROOT
BRANCH   1   4
ATOM      4  C   UNL     1     -21.359  -2.093   4.604  0.00  0.00    +0.000 C 
ATOM      5  C   UNL     1     -20.771  -1.245   7.321  0.00  0.00    +0.000 C 
ATOM      6  C   UNL     1     -21.575  -3.069   5.731  0.00  0.00    +0.000 C 
ATOM      7  C   UNL     1     -20.775  -2.738   6.997  0.00  0.00    +0.000 C 
ATOM      8  C   UNL     1     -20.296  -0.405   6.132  0.00  0.00    +0.000 C 
ATOM      9  C   UNL     1     -20.768  -0.901   4.796  0.00  0.00    +0.000 C 
ATOM     10  H   UNL     1     -20.104  -1.060   8.172  0.00  0.00    +0.000 HD
ATOM     11  H   UNL     1     -22.641  -3.090   5.989  0.00  0.00    +0.000 HD
ATOM     12  H   UNL     1     -21.301  -4.080   5.408  0.00  0.00    +0.000 HD
ATOM     13  H   UNL     1     -21.174  -3.319   7.838  0.00  0.00    +0.000 HD
ATOM     14  H   UNL     1     -19.737  -3.068   6.854  0.00  0.00    +0.000 HD
ATOM     15  H   UNL     1     -19.197  -0.417   6.110  0.00  0.00    +0.000 HD
ATOM     16  H   UNL     1     -20.585   0.646   6.248  0.00  0.00    +0.000 HD
ATOM     17  H   UNL     1     -20.616  -0.232   3.953  0.00  0.00    +0.000 HD
BRANCH   5  19
ATOM     18  O   UNL     1     -22.467  -0.746   8.955  0.00  0.00    +0.000 OA
ATOM     19  C   UNL     1     -22.137  -0.813   7.775  0.00  0.00    +0.000 C 
ATOM     20  H   UNL     1     -22.856  -0.569   6.974  0.00  0.00    +0.000 HD
ENDBRANCH   5  19
ENDBRANCH   1   4
BRANCH   1  21
ATOM     21  C   UNL     1     -20.744  -3.203   2.437  0.00  0.00    +0.000 C 
ATOM     22  H   UNL     1     -19.758  -2.856   2.762  0.00  0.00    +0.000 HD
ATOM     23  H   UNL     1     -20.859  -2.881   1.395  0.00  0.00    +0.000 HD
BRANCH  21  24
ATOM     24  C   UNL     1     -20.850  -4.731   2.527  0.00  0.00    +0.000 C 
ATOM     25  H   UNL     1     -21.556  -5.021   3.313  0.00  0.00    +0.000 HD
ATOM     26  H   UNL     1     -21.264  -5.091   1.576  0.00  0.00    +0.000 HD
BRANCH  24  27
ATOM     27  C   UNL     1     -19.511  -5.450   2.785  0.00  0.00    +0.000 C 
BRANCH  27  28
ATOM     28  C   UNL     1     -18.358  -4.852   1.976  0.00  0.00    +0.000 C 
ATOM     29  H   UNL     1     -18.401  -5.152   0.924  0.00  0.00    +0.000 HD
ATOM     30  H   UNL     1     -18.358  -3.758   2.026  0.00  0.00    +0.000 HD
ATOM     31  H   UNL     1     -17.394  -5.215   2.351  0.00  0.00    +0.000 HD
ENDBRANCH  27  28
BRANCH  27  32
ATOM     32  C   UNL     1     -19.180  -5.400   4.280  0.00  0.00    +0.000 C 
ATOM     33  H   UNL     1     -19.004  -6.399   4.690  0.00  0.00    +0.000 HD
ATOM     34  H   UNL     1     -19.997  -4.933   4.844  0.00  0.00    +0.000 HD
ATOM     35  H   UNL     1     -18.291  -4.785   4.464  0.00  0.00    +0.000 HD
ENDBRANCH  27  32
BRANCH  27  36
ATOM     36  O   UNL     1     -19.659  -6.823   2.415  0.00  0.00    +0.000 OA
ATOM     37  H   UNL     1     -20.103  -7.293   3.141  0.00  0.00    +0.000 HD
ENDBRANCH  27  36
ENDBRANCH  24  27
ENDBRANCH  21  24
ENDBRANCH   1  21
TORSDOF 8
ENDMDL
MODEL 3
REMARK VINA RESULT:    -5.479     14.493     15.785
REMARK INTER + INTRA:          -8.066
REMARK INTER:                  -7.489
REMARK INTRA:                  -0.578
REMARK UNBOUND:                -0.505
REMARK  Name = 91604
REMARK  8 active torsions:
REMARK  status: ('A' for Active; 'I' for Inactive)
REMARK    1  A    between atoms: O_1  and  C_11
REMARK    2  A    between atoms: C_3  and  C_7
REMARK    3  A    between atoms: C_4  and  C_15
REMARK    4  A    between atoms: C_7  and  C_8
REMARK    5  A    between atoms: C_8  and  C_10
REMARK    6  A    between atoms: C_10  and  C_11
REMARK    7  A    between atoms: C_11  and  C_13
REMARK    8  A    between atoms: C_11  and  C_14
REMARK                            x       y       z     vdW  Elec       q    Type
REMARK                         _______ _______ _______ _____ _____    ______ ____
ROOT
ATOM      1  C   UNL     1      -9.889  10.687   6.896  0.00  0.00    +0.000 C 
ATOM      2  H   UNL     1     -10.462  11.268   7.629  0.00  0.00    +0.000 HD
ATOM      3  H   UNL     1     -10.575  10.484   6.063  0.00  0.00    +0.000 HD
ENDROOT
BRANCH   1   4
ATOM      4  C   UNL     1      -8.716  11.468   6.382  0.00  0.00    +0.000 C 
ATOM      5  C   UNL     1      -6.679  13.267   5.349  0.00  0.00    +0.000 C 
ATOM      6  C   UNL     1      -8.242  12.603   7.251  0.00  0.00    +0.000 C 
ATOM      7  C   UNL     1      -6.863  13.146   6.861  0.00  0.00    +0.000 C 
ATOM      8  C   UNL     1      -6.975  11.945   4.633  0.00  0.00    +0.000 C 
ATOM      9  C   UNL     1      -8.126  11.173   5.210  0.00  0.00    +0.000 C 
ATOM     10  H   UNL     1      -5.645  13.562   5.131  0.00  0.00    +0.000 HD
ATOM     11  H   UNL     1      -8.967  13.424   7.197  0.00  0.00    +0.000 HD
ATOM     12  H   UNL     1      -8.199  12.280   8.298  0.00  0.00    +0.000 HD
ATOM     13  H   UNL     1      -6.705  14.116   7.351  0.00  0.00    +0.000 HD
ATOM     14  H   UNL     1      -6.092  12.469   7.254  0.00  0.00    +0.000 HD
ATOM     15  H   UNL     1      -6.088  11.301   4.704  0.00  0.00    +0.000 HD
ATOM     16  H   UNL     1      -7.150  12.105   3.562  0.00  0.00    +0.000 HD
ATOM     17  H   UNL     1      -8.488  10.336   4.620  0.00  0.00    +0.000 HD
BRANCH   5  19
ATOM     18  O   UNL     1      -8.387  14.211   3.940  0.00  0.00    +0.000 OA
ATOM     19  C   UNL     1      -7.539  14.375   4.812  0.00  0.00    +0.000 C 
ATOM     20  H   UNL     1      -7.357  15.377   5.239  0.00  0.00    +0.000 HD
ENDBRANCH   5  19
ENDBRANCH   1   4
BRANCH   1  21
ATOM     21  C   UNL     1      -9.460   9.360   7.526  0.00  0.00    +0.000 C 
ATOM     22  H   UNL     1      -8.497   9.034   7.117  0.00  0.00    +0.000 HD
ATOM     23  H   UNL     1     -10.194   8.602   7.233  0.00  0.00    +0.000 HD
BRANCH  21  24
ATOM     24  C   UNL     1      -9.402   9.468   9.055  0.00  0.00    +0.000 C 
ATOM     25  H   UNL     1      -9.445  10.518   9.368  0.00  0.00    +0.000 HD
ATOM     26  H   UNL     1     -10.298   8.978   9.457  0.00  0.00    +0.000 HD
BRANCH  24  27
ATOM     27  C   UNL     1      -8.158   8.821   9.695  0.00  0.00    +0.000 C 
BRANCH  27  28
ATOM     28  C   UNL     1      -7.079   9.846  10.051  0.00  0.00    +0.000 C 
ATOM     29  H   UNL     1      -6.481   9.526  10.910  0.00  0.00    +0.000 HD
ATOM     30  H   UNL     1      -6.406  10.029   9.207  0.00  0.00    +0.000 HD
ATOM     31  H   UNL     1      -7.534  10.799  10.343  0.00  0.00    +0.000 HD
ENDBRANCH  27  28
BRANCH  27  32
ATOM     32  C   UNL     1      -8.572   8.043  10.949  0.00  0.00    +0.000 C 
ATOM     33  H   UNL     1      -9.537   7.545  10.816  0.00  0.00    +0.000 HD
ATOM     34  H   UNL     1      -8.642   8.711  11.816  0.00  0.00    +0.000 HD
ATOM     35  H   UNL     1      -7.821   7.286  11.206  0.00  0.00    +0.000 HD
ENDBRANCH  27  32
BRANCH  27  36
ATOM     36  O   UNL     1      -7.606   7.887   8.764  0.00  0.00    +0.000 OA
ATOM     37  H   UNL     1      -7.518   7.025   9.204  0.00  0.00    +0.000 HD
ENDBRANCH  27  36
ENDBRANCH  24  27
ENDBRANCH  21  24
ENDBRANCH   1  21
TORSDOF 8
ENDMDL
MODEL 4
REMARK VINA RESULT:    -5.420     28.696     30.306
REMARK INTER + INTRA:          -7.984
REMARK INTER:                  -7.540
REMARK INTRA:                  -0.444
REMARK UNBOUND:                -0.505
REMARK  Name = 91604
REMARK  8 active torsions:
REMARK  status: ('A' for Active; 'I' for Inactive)
REMARK    1  A    between atoms: O_1  and  C_11
REMARK    2  A    between atoms: C_3  and  C_7
REMARK    3  A    between atoms: C_4  and  C_15
REMARK    4  A    between atoms: C_7  and  C_8
REMARK    5  A    between atoms: C_8  and  C_10
REMARK    6  A    between atoms: C_10  and  C_11
REMARK    7  A    between atoms: C_11  and  C_13
REMARK    8  A    between atoms: C_11  and  C_14
REMARK                            x       y       z     vdW  Elec       q    Type
REMARK                         _______ _______ _______ _____ _____    ______ ____
ROOT
ATOM      1  C   UNL     1     -20.359  -3.818   5.554  0.00  0.00    +0.000 C 
ATOM      2  H   UNL     1     -21.145  -4.425   6.021  0.00  0.00    +0.000 HD
ATOM      3  H   UNL     1     -19.448  -3.990   6.141  0.00  0.00    +0.000 HD
ENDROOT
BRANCH   1   4
ATOM      4  C   UNL     1     -20.114  -4.245   4.137  0.00  0.00    +0.000 C 
ATOM      5  C   UNL     1     -19.275  -5.022   1.464  0.00  0.00    +0.000 C 
ATOM      6  C   UNL     1     -19.395  -5.556   3.955  0.00  0.00    +0.000 C 
ATOM      7  C   UNL     1     -19.464  -6.106   2.525  0.00  0.00    +0.000 C 
ATOM      8  C   UNL     1     -20.254  -3.859   1.657  0.00  0.00    +0.000 C 
ATOM      9  C   UNL     1     -20.508  -3.497   3.092  0.00  0.00    +0.000 C 
ATOM     10  H   UNL     1     -19.435  -5.455   0.469  0.00  0.00    +0.000 HD
ATOM     11  H   UNL     1     -18.340  -5.429   4.227  0.00  0.00    +0.000 HD
ATOM     12  H   UNL     1     -19.814  -6.309   4.631  0.00  0.00    +0.000 HD
ATOM     13  H   UNL     1     -18.717  -6.900   2.408  0.00  0.00    +0.000 HD
ATOM     14  H   UNL     1     -20.446  -6.575   2.374  0.00  0.00    +0.000 HD
ATOM     15  H   UNL     1     -21.222  -4.139   1.219  0.00  0.00    +0.000 HD
ATOM     16  H   UNL     1     -19.921  -2.967   1.114  0.00  0.00    +0.000 HD
ATOM     17  H   UNL     1     -21.039  -2.564   3.266  0.00  0.00    +0.000 HD
BRANCH   5  19
ATOM     18  O   UNL     1     -16.883  -5.286   1.423  0.00  0.00    +0.000 OA
ATOM     19  C   UNL     1     -17.853  -4.536   1.471  0.00  0.00    +0.000 C 
ATOM     20  H   UNL     1     -17.717  -3.443   1.542  0.00  0.00    +0.000 HD
ENDBRANCH   5  19
ENDBRANCH   1   4
BRANCH   1  21
ATOM     21  C   UNL     1     -20.742  -2.338   5.645  0.00  0.00    +0.000 C 
ATOM     22  H   UNL     1     -21.726  -2.168   5.197  0.00  0.00    +0.000 HD
ATOM     23  H   UNL     1     -20.023  -1.772   5.042  0.00  0.00    +0.000 HD
BRANCH  21  24
ATOM     24  C   UNL     1     -20.705  -1.848   7.099  0.00  0.00    +0.000 C 
ATOM     25  H   UNL     1     -20.034  -2.475   7.699  0.00  0.00    +0.000 HD
ATOM     26  H   UNL     1     -20.280  -0.836   7.097  0.00  0.00    +0.000 HD
BRANCH  24  27
ATOM     27  C   UNL     1     -22.080  -1.803   7.794  0.00  0.00    +0.000 C 
BRANCH  27  28
ATOM     28  C   UNL     1     -22.224  -0.603   8.733  0.00  0.00    +0.000 C 
ATOM     29  H   UNL     1     -21.563   0.221   8.445  0.00  0.00    +0.000 HD
ATOM     30  H   UNL     1     -23.254  -0.232   8.755  0.00  0.00    +0.000 HD
ATOM     31  H   UNL     1     -21.934  -0.875   9.754  0.00  0.00    +0.000 HD
ENDBRANCH  27  28
BRANCH  27  32
ATOM     32  C   UNL     1     -23.189  -1.773   6.736  0.00  0.00    +0.000 C 
ATOM     33  H   UNL     1     -23.543  -2.780   6.493  0.00  0.00    +0.000 HD
ATOM     34  H   UNL     1     -22.835  -1.298   5.814  0.00  0.00    +0.000 HD
ATOM     35  H   UNL     1     -24.043  -1.177   7.080  0.00  0.00    +0.000 HD
ENDBRANCH  27  32
BRANCH  27  36
ATOM     36  O   UNL     1     -22.237  -2.999   8.559  0.00  0.00    +0.000 OA
ATOM     37  H   UNL     1     -22.849  -2.819   9.294  0.00  0.00    +0.000 HD
ENDBRANCH  27  36
ENDBRANCH  24  27
ENDBRANCH  21  24
ENDBRANCH   1  21
TORSDOF 8
ENDMDL
MODEL 5
REMARK VINA RESULT:    -5.341     14.750     16.242
REMARK INTER + INTRA:          -7.876
REMARK INTER:                  -7.427
REMARK INTRA:                  -0.448
REMARK UNBOUND:                -0.505
REMARK  Name = 91604
REMARK  8 active torsions:
REMARK  status: ('A' for Active; 'I' for Inactive)
REMARK    1  A    between atoms: O_1  and  C_11
REMARK    2  A    between atoms: C_3  and  C_7
REMARK    3  A    between atoms: C_4  and  C_15
REMARK    4  A    between atoms: C_7  and  C_8
REMARK    5  A    between atoms: C_8  and  C_10
REMARK    6  A    between atoms: C_10  and  C_11
REMARK    7  A    between atoms: C_11  and  C_13
REMARK    8  A    between atoms: C_11  and  C_14
REMARK                            x       y       z     vdW  Elec       q    Type
REMARK                         _______ _______ _______ _____ _____    ______ ____
ROOT
ATOM      1  C   UNL     1      -8.780  11.285   8.440  0.00  0.00    +0.000 C 
ATOM      2  H   UNL     1      -8.094  11.425   9.285  0.00  0.00    +0.000 HD
ATOM      3  H   UNL     1      -9.656  11.912   8.648  0.00  0.00    +0.000 HD
ENDROOT
BRANCH   1   4
ATOM      4  C   UNL     1      -8.154  11.733   7.152  0.00  0.00    +0.000 C 
ATOM      5  C   UNL     1      -7.201  12.870   4.652  0.00  0.00    +0.000 C 
ATOM      6  C   UNL     1      -7.467  13.073   7.181  0.00  0.00    +0.000 C 
ATOM      7  C   UNL     1      -6.569  13.333   5.965  0.00  0.00    +0.000 C 
ATOM      8  C   UNL     1      -7.634  11.402   4.716  0.00  0.00    +0.000 C 
ATOM      9  C   UNL     1      -8.209  10.984   6.038  0.00  0.00    +0.000 C 
ATOM     10  H   UNL     1      -6.476  12.989   3.838  0.00  0.00    +0.000 HD
ATOM     11  H   UNL     1      -8.224  13.865   7.229  0.00  0.00    +0.000 HD
ATOM     12  H   UNL     1      -6.852  13.159   8.084  0.00  0.00    +0.000 HD
ATOM     13  H   UNL     1      -6.321  14.401   5.922  0.00  0.00    +0.000 HD
ATOM     14  H   UNL     1      -5.621  12.797   6.105  0.00  0.00    +0.000 HD
ATOM     15  H   UNL     1      -6.755  10.769   4.533  0.00  0.00    +0.000 HD
ATOM     16  H   UNL     1      -8.350  11.165   3.921  0.00  0.00    +0.000 HD
ATOM     17  H   UNL     1      -8.701  10.014   6.063  0.00  0.00    +0.000 HD
BRANCH   5  19
ATOM     18  O   UNL     1      -9.329  13.378   3.648  0.00  0.00    +0.000 OA
ATOM     19  C   UNL     1      -8.360  13.758   4.297  0.00  0.00    +0.000 C 
ATOM     20  H   UNL     1      -8.289  14.805   4.642  0.00  0.00    +0.000 HD
ENDBRANCH   5  19
ENDBRANCH   1   4
BRANCH   1  21
ATOM     21  C   UNL     1      -9.217   9.819   8.382  0.00  0.00    +0.000 C 
ATOM     22  H   UNL     1      -8.346   9.156   8.418  0.00  0.00    +0.000 HD
ATOM     23  H   UNL     1      -9.693   9.654   7.409  0.00  0.00    +0.000 HD
BRANCH  21  24
ATOM     24  C   UNL     1     -10.206   9.493   9.509  0.00  0.00    +0.000 C 
ATOM     25  H   UNL     1     -10.777  10.386   9.789  0.00  0.00    +0.000 HD
ATOM     26  H   UNL     1     -10.925   8.762   9.118  0.00  0.00    +0.000 HD
BRANCH  24  27
ATOM     27  C   UNL     1      -9.556   8.912  10.781  0.00  0.00    +0.000 C 
BRANCH  27  28
ATOM     28  C   UNL     1     -10.483   7.950  11.527  0.00  0.00    +0.000 C 
ATOM     29  H   UNL     1     -11.527   8.072  11.219  0.00  0.00    +0.000 HD
ATOM     30  H   UNL     1     -10.193   6.907  11.366  0.00  0.00    +0.000 HD
ATOM     31  H   UNL     1     -10.464   8.152  12.604  0.00  0.00    +0.000 HD
ENDBRANCH  27  28
BRANCH  27  32
ATOM     32  C   UNL     1      -8.252   8.198  10.411  0.00  0.00    +0.000 C 
ATOM     33  H   UNL     1      -8.061   8.235   9.334  0.00  0.00    +0.000 HD
ATOM     34  H   UNL     1      -8.281   7.147  10.723  0.00  0.00    +0.000 HD
ATOM     35  H   UNL     1      -7.398   8.648  10.932  0.00  0.00    +0.000 HD
ENDBRANCH  27  32
BRANCH  27  36
ATOM     36  O   UNL     1      -9.230   9.995  11.655  0.00  0.00    +0.000 OA
ATOM     37  H   UNL     1      -9.653  10.803  11.318  0.00  0.00    +0.000 HD
ENDBRANCH  27  36
ENDBRANCH  24  27
ENDBRANCH  21  24
ENDBRANCH   1  21
TORSDOF 8
ENDMDL
MODEL 6
REMARK VINA RESULT:    -5.332     17.879     19.577
REMARK INTER + INTRA:          -7.863
REMARK INTER:                  -7.516
REMARK INTRA:                  -0.347
REMARK UNBOUND:                -0.505
REMARK  Name = 91604
REMARK  8 active torsions:
REMARK  status: ('A' for Active; 'I' for Inactive)
REMARK    1  A    between atoms: O_1  and  C_11
REMARK    2  A    between atoms: C_3  and  C_7
REMARK    3  A    between atoms: C_4  and  C_15
REMARK    4  A    between atoms: C_7  and  C_8
REMARK    5  A    between atoms: C_8  and  C_10
REMARK    6  A    between atoms: C_10  and  C_11
REMARK    7  A    between atoms: C_11  and  C_13
REMARK    8  A    between atoms: C_11  and  C_14
REMARK                            x       y       z     vdW  Elec       q    Type
REMARK                         _______ _______ _______ _____ _____    ______ ____
ROOT
ATOM      1  C   UNL     1      -6.944   6.007  -9.713  0.00  0.00    +0.000 C 
ATOM      2  H   UNL     1      -7.596   6.889  -9.739  0.00  0.00    +0.000 HD
ATOM      3  H   UNL     1      -7.291   5.345 -10.516  0.00  0.00    +0.000 HD
ENDROOT
BRANCH   1   4
ATOM      4  C   UNL     1      -5.514   6.380  -9.972  0.00  0.00    +0.000 C 
ATOM      5  C   UNL     1      -2.818   7.419 -10.289  0.00  0.00    +0.000 C 
ATOM      6  C   UNL     1      -4.618   6.451  -8.764  0.00  0.00    +0.000 C 
ATOM      7  C   UNL     1      -3.124   6.503  -9.104  0.00  0.00    +0.000 C 
ATOM      8  C   UNL     1      -3.653   7.056 -11.520  0.00  0.00    +0.000 C 
ATOM      9  C   UNL     1      -5.063   6.641 -11.210  0.00  0.00    +0.000 C 
ATOM     10  H   UNL     1      -1.755   7.336 -10.547  0.00  0.00    +0.000 HD
ATOM     11  H   UNL     1      -4.872   7.344  -8.179  0.00  0.00    +0.000 HD
ATOM     12  H   UNL     1      -4.791   5.583  -8.118  0.00  0.00    +0.000 HD
ATOM     13  H   UNL     1      -2.562   6.815  -8.215  0.00  0.00    +0.000 HD
ATOM     14  H   UNL     1      -2.783   5.488  -9.350  0.00  0.00    +0.000 HD
ATOM     15  H   UNL     1      -3.174   6.210 -12.032  0.00  0.00    +0.000 HD
ATOM     16  H   UNL     1      -3.671   7.879 -12.244  0.00  0.00    +0.000 HD
ATOM     17  H   UNL     1      -5.738   6.563 -12.059  0.00  0.00    +0.000 HD
BRANCH   5  19
ATOM     18  O   UNL     1      -2.111   9.634  -9.666  0.00  0.00    +0.000 OA
ATOM     19  C   UNL     1      -3.030   8.854  -9.898  0.00  0.00    +0.000 C 
ATOM     20  H   UNL     1      -4.081   9.180  -9.809  0.00  0.00    +0.000 HD
ENDBRANCH   5  19
ENDBRANCH   1   4
BRANCH   1  21
ATOM     21  C   UNL     1      -7.112   5.293  -8.369  0.00  0.00    +0.000 C 
ATOM     22  H   UNL     1      -6.137   5.013  -7.958  0.00  0.00    +0.000 HD
ATOM     23  H   UNL     1      -7.651   4.358  -8.556  0.00  0.00    +0.000 HD
BRANCH  21  24
ATOM     24  C   UNL     1      -7.900   6.161  -7.378  0.00  0.00    +0.000 C 
ATOM     25  H   UNL     1      -7.243   6.902  -6.910  0.00  0.00    +0.000 HD
ATOM     26  H   UNL     1      -8.653   6.717  -7.952  0.00  0.00    +0.000 HD
BRANCH  24  27
ATOM     27  C   UNL     1      -8.616   5.370  -6.264  0.00  0.00    +0.000 C 
BRANCH  27  28
ATOM     28  C   UNL     1      -8.184   3.903  -6.216  0.00  0.00    +0.000 C 
ATOM     29  H   UNL     1      -8.277   3.419  -7.193  0.00  0.00    +0.000 HD
ATOM     30  H   UNL     1      -7.149   3.801  -5.874  0.00  0.00    +0.000 HD
ATOM     31  H   UNL     1      -8.830   3.333  -5.538  0.00  0.00    +0.000 HD
ENDBRANCH  27  28
BRANCH  27  32
ATOM     32  C   UNL     1      -8.351   6.038  -4.910  0.00  0.00    +0.000 C 
ATOM     33  H   UNL     1      -7.280   6.084  -4.685  0.00  0.00    +0.000 HD
ATOM     34  H   UNL     1      -8.852   5.492  -4.102  0.00  0.00    +0.000 HD
ATOM     35  H   UNL     1      -8.756   7.056  -4.890  0.00  0.00    +0.000 HD
ENDBRANCH  27  32
BRANCH  27  36
ATOM     36  O   UNL     1     -10.023   5.421  -6.509  0.00  0.00    +0.000 OA
ATOM     37  H   UNL     1     -10.202   6.140  -7.139  0.00  0.00    +0.000 HD
ENDBRANCH  27  36
ENDBRANCH  24  27
ENDBRANCH  21  24
ENDBRANCH   1  21
TORSDOF 8
ENDMDL
MODEL 7
REMARK VINA RESULT:    -5.282     14.395     16.110
REMARK INTER + INTRA:          -7.794
REMARK INTER:                  -7.353
REMARK INTRA:                  -0.440
REMARK UNBOUND:                -0.505
REMARK  Name = 91604
REMARK  8 active torsions:
REMARK  status: ('A' for Active; 'I' for Inactive)
REMARK    1  A    between atoms: O_1  and  C_11
REMARK    2  A    between atoms: C_3  and  C_7
REMARK    3  A    between atoms: C_4  and  C_15
REMARK    4  A    between atoms: C_7  and  C_8
REMARK    5  A    between atoms: C_8  and  C_10
REMARK    6  A    between atoms: C_10  and  C_11
REMARK    7  A    between atoms: C_11  and  C_13
REMARK    8  A    between atoms: C_11  and  C_14
REMARK                            x       y       z     vdW  Elec       q    Type
REMARK                         _______ _______ _______ _____ _____    ______ ____
ROOT
ATOM      1  C   UNL     1      -9.118  10.851   6.312  0.00  0.00    +0.000 C 
ATOM      2  H   UNL     1      -9.806  10.124   5.861  0.00  0.00    +0.000 HD
ATOM      3  H   UNL     1      -9.711  11.754   6.505  0.00  0.00    +0.000 HD
ENDROOT
BRANCH   1   4
ATOM      4  C   UNL     1      -8.567  10.342   7.611  0.00  0.00    +0.000 C 
ATOM      5  C   UNL     1      -7.848   9.254  10.209  0.00  0.00    +0.000 C 
ATOM      6  C   UNL     1      -8.599   8.849   7.806  0.00  0.00    +0.000 C 
ATOM      7  C   UNL     1      -7.736   8.359   8.974  0.00  0.00    +0.000 C 
ATOM      8  C   UNL     1      -7.549  10.719   9.878  0.00  0.00    +0.000 C 
ATOM      9  C   UNL     1      -8.077  11.173   8.548  0.00  0.00    +0.000 C 
ATOM     10  H   UNL     1      -7.136   8.912  10.970  0.00  0.00    +0.000 HD
ATOM     11  H   UNL     1      -9.634   8.532   7.981  0.00  0.00    +0.000 HD
ATOM     12  H   UNL     1      -8.258   8.346   6.894  0.00  0.00    +0.000 HD
ATOM     13  H   UNL     1      -8.011   7.325   9.217  0.00  0.00    +0.000 HD
ATOM     14  H   UNL     1      -6.686   8.336   8.653  0.00  0.00    +0.000 HD
ATOM     15  H   UNL     1      -6.460  10.860   9.857  0.00  0.00    +0.000 HD
ATOM     16  H   UNL     1      -7.927  11.387  10.661  0.00  0.00    +0.000 HD
ATOM     17  H   UNL     1      -8.057  12.244   8.362  0.00  0.00    +0.000 HD
BRANCH   5  19
ATOM     18  O   UNL     1      -9.623   8.054  11.304  0.00  0.00    +0.000 OA
ATOM     19  C   UNL     1      -9.207   9.107  10.830  0.00  0.00    +0.000 C 
ATOM     20  H   UNL     1      -9.840  10.011  10.824  0.00  0.00    +0.000 HD
ENDBRANCH   5  19
ENDBRANCH   1   4
BRANCH   1  21
ATOM     21  C   UNL     1      -8.008  11.185   5.312  0.00  0.00    +0.000 C 
ATOM     22  H   UNL     1      -7.830  10.340   4.639  0.00  0.00    +0.000 HD
ATOM     23  H   UNL     1      -7.083  11.329   5.881  0.00  0.00    +0.000 HD
BRANCH  21  24
ATOM     24  C   UNL     1      -8.340  12.459   4.524  0.00  0.00    +0.000 C 
ATOM     25  H   UNL     1      -8.029  12.356   3.478  0.00  0.00    +0.000 HD
ATOM     26  H   UNL     1      -9.432  12.573   4.523  0.00  0.00    +0.000 HD
BRANCH  24  27
ATOM     27  C   UNL     1      -7.712  13.746   5.095  0.00  0.00    +0.000 C 
BRANCH  27  28
ATOM     28  C   UNL     1      -6.197  13.632   5.270  0.00  0.00    +0.000 C 
ATOM     29  H   UNL     1      -5.723  14.615   5.363  0.00  0.00    +0.000 HD
ATOM     30  H   UNL     1      -5.938  13.036   6.151  0.00  0.00    +0.000 HD
ATOM     31  H   UNL     1      -5.740  13.164   4.390  0.00  0.00    +0.000 HD
ENDBRANCH  27  28
BRANCH  27  32
ATOM     32  C   UNL     1      -8.044  14.929   4.179  0.00  0.00    +0.000 C 
ATOM     33  H   UNL     1      -8.799  15.586   4.623  0.00  0.00    +0.000 HD
ATOM     34  H   UNL     1      -8.417  14.578   3.209  0.00  0.00    +0.000 HD
ATOM     35  H   UNL     1      -7.147  15.523   3.966  0.00  0.00    +0.000 HD
ENDBRANCH  27  32
BRANCH  27  36
ATOM     36  O   UNL     1      -8.298  14.005   6.373  0.00  0.00    +0.000 OA
ATOM     37  H   UNL     1      -8.583  13.159   6.760  0.00  0.00    +0.000 HD
ENDBRANCH  27  36
ENDBRANCH  24  27
ENDBRANCH  21  24
ENDBRANCH   1  21
TORSDOF 8
ENDMDL
MODEL 8
REMARK VINA RESULT:    -5.235     20.577     21.916
REMARK INTER + INTRA:          -7.729
REMARK INTER:                  -7.478
REMARK INTRA:                  -0.251
REMARK UNBOUND:                -0.505
REMARK  Name = 91604
REMARK  8 active torsions:
REMARK  status: ('A' for Active; 'I' for Inactive)
REMARK    1  A    between atoms: O_1  and  C_11
REMARK    2  A    between atoms: C_3  and  C_7
REMARK    3  A    between atoms: C_4  and  C_15
REMARK    4  A    between atoms: C_7  and  C_8
REMARK    5  A    between atoms: C_8  and  C_10
REMARK    6  A    between atoms: C_10  and  C_11
REMARK    7  A    between atoms: C_11  and  C_13
REMARK    8  A    between atoms: C_11  and  C_14
REMARK                            x       y       z     vdW  Elec       q    Type
REMARK                         _______ _______ _______ _____ _____    ______ ____
ROOT
ATOM      1  C   UNL     1      -1.122  -0.081 -13.129  0.00  0.00    +0.000 C 
ATOM      2  H   UNL     1      -1.380  -0.618 -14.051  0.00  0.00    +0.000 HD
ATOM      3  H   UNL     1      -1.105   0.985 -13.389  0.00  0.00    +0.000 HD
ENDROOT
BRANCH   1   4
ATOM      4  C   UNL     1      -2.154  -0.306 -12.064  0.00  0.00    +0.000 C 
ATOM      5  C   UNL     1      -4.017  -1.088  -9.973  0.00  0.00    +0.000 C 
ATOM      6  C   UNL     1      -1.630  -0.518 -10.667  0.00  0.00    +0.000 C 
ATOM      7  C   UNL     1      -2.706  -0.408  -9.580  0.00  0.00    +0.000 C 
ATOM      8  C   UNL     1      -4.540  -0.581 -11.321  0.00  0.00    +0.000 C 
ATOM      9  C   UNL     1      -3.469  -0.323 -12.342  0.00  0.00    +0.000 C 
ATOM     10  H   UNL     1      -4.773  -0.890  -9.205  0.00  0.00    +0.000 HD
ATOM     11  H   UNL     1      -1.170  -1.511 -10.602  0.00  0.00    +0.000 HD
ATOM     12  H   UNL     1      -0.846   0.215 -10.447  0.00  0.00    +0.000 HD
ATOM     13  H   UNL     1      -2.315  -0.826  -8.643  0.00  0.00    +0.000 HD
ATOM     14  H   UNL     1      -2.907   0.655  -9.389  0.00  0.00    +0.000 HD
ATOM     15  H   UNL     1      -5.065   0.370 -11.158  0.00  0.00    +0.000 HD
ATOM     16  H   UNL     1      -5.281  -1.270 -11.743  0.00  0.00    +0.000 HD
ATOM     17  H   UNL     1      -3.807  -0.150 -13.360  0.00  0.00    +0.000 HD
BRANCH   5  19
ATOM     18  O   UNL     1      -4.722  -3.362 -10.324  0.00  0.00    +0.000 OA
ATOM     19  C   UNL     1      -3.838  -2.580  -9.991  0.00  0.00    +0.000 C 
ATOM     20  H   UNL     1      -2.851  -2.951  -9.665  0.00  0.00    +0.000 HD
ENDBRANCH   5  19
ENDBRANCH   1   4
BRANCH   1  21
ATOM     21  C   UNL     1       0.274  -0.507 -12.670  0.00  0.00    +0.000 C 
ATOM     22  H   UNL     1       0.590  -1.416 -13.194  0.00  0.00    +0.000 HD
ATOM     23  H   UNL     1       0.208  -0.768 -11.608  0.00  0.00    +0.000 HD
BRANCH  21  24
ATOM     24  C   UNL     1       1.290   0.626 -12.868  0.00  0.00    +0.000 C 
ATOM     25  H   UNL     1       0.775   1.587 -12.987  0.00  0.00    +0.000 HD
ATOM     26  H   UNL     1       1.891   0.696 -11.952  0.00  0.00    +0.000 HD
BRANCH  24  27
ATOM     27  C   UNL     1       2.240   0.431 -14.066  0.00  0.00    +0.000 C 
BRANCH  27  28
ATOM     28  C   UNL     1       3.495  -0.363 -13.697  0.00  0.00    +0.000 C 
ATOM     29  H   UNL     1       4.062  -0.662 -14.584  0.00  0.00    +0.000 HD
ATOM     30  H   UNL     1       4.154   0.212 -13.039  0.00  0.00    +0.000 HD
ATOM     31  H   UNL     1       3.226  -1.295 -13.187  0.00  0.00    +0.000 HD
ENDBRANCH  27  28
BRANCH  27  32
ATOM     32  C   UNL     1       1.493  -0.272 -15.204  0.00  0.00    +0.000 C 
ATOM     33  H   UNL     1       1.011  -1.194 -14.863  0.00  0.00    +0.000 HD
ATOM     34  H   UNL     1       2.178  -0.522 -16.024  0.00  0.00    +0.000 HD
ATOM     35  H   UNL     1       0.727   0.384 -15.634  0.00  0.00    +0.000 HD
ENDBRANCH  27  32
BRANCH  27  36
ATOM     36  O   UNL     1       2.641   1.720 -14.536  0.00  0.00    +0.000 OA
ATOM     37  H   UNL     1       1.970   2.045 -15.160  0.00  0.00    +0.000 HD
ENDBRANCH  27  36
ENDBRANCH  24  27
ENDBRANCH  21  24
ENDBRANCH   1  21
TORSDOF 8
ENDMDL
MODEL 9
REMARK VINA RESULT:    -5.181     17.222     19.460
REMARK INTER + INTRA:          -7.655
REMARK INTER:                  -7.094
REMARK INTRA:                  -0.561
REMARK UNBOUND:                -0.505
REMARK  Name = 91604
REMARK  8 active torsions:
REMARK  status: ('A' for Active; 'I' for Inactive)
REMARK    1  A    between atoms: O_1  and  C_11
REMARK    2  A    between atoms: C_3  and  C_7
REMARK    3  A    between atoms: C_4  and  C_15
REMARK    4  A    between atoms: C_7  and  C_8
REMARK    5  A    between atoms: C_8  and  C_10
REMARK    6  A    between atoms: C_10  and  C_11
REMARK    7  A    between atoms: C_11  and  C_13
REMARK    8  A    between atoms: C_11  and  C_14
REMARK                            x       y       z     vdW  Elec       q    Type
REMARK                         _______ _______ _______ _____ _____    ______ ____
ROOT
ATOM      1  C   UNL     1      -4.265   6.750 -11.075  0.00  0.00    +0.000 C 
ATOM      2  H   UNL     1      -4.073   6.061 -11.907  0.00  0.00    +0.000 HD
ATOM      3  H   UNL     1      -4.446   7.734 -11.528  0.00  0.00    +0.000 HD
ENDROOT
BRANCH   1   4
ATOM      4  C   UNL     1      -5.483   6.339 -10.301  0.00  0.00    +0.000 C 
ATOM      5  C   UNL     1      -7.667   5.218  -8.744  0.00  0.00    +0.000 C 
ATOM      6  C   UNL     1      -5.290   6.139  -8.820  0.00  0.00    +0.000 C 
ATOM      7  C   UNL     1      -6.602   6.052  -8.032  0.00  0.00    +0.000 C 
ATOM      8  C   UNL     1      -7.912   5.710 -10.174  0.00  0.00    +0.000 C 
ATOM      9  C   UNL     1      -6.674   6.156 -10.896  0.00  0.00    +0.000 C 
ATOM     10  H   UNL     1      -8.608   5.277  -8.185  0.00  0.00    +0.000 HD
ATOM     11  H   UNL     1      -4.722   5.214  -8.654  0.00  0.00    +0.000 HD
ATOM     12  H   UNL     1      -4.695   6.961  -8.406  0.00  0.00    +0.000 HD
ATOM     13  H   UNL     1      -6.396   5.649  -7.032  0.00  0.00    +0.000 HD
ATOM     14  H   UNL     1      -6.993   7.068  -7.886  0.00  0.00    +0.000 HD
ATOM     15  H   UNL     1      -8.592   6.572 -10.137  0.00  0.00    +0.000 HD
ATOM     16  H   UNL     1      -8.422   4.946 -10.774  0.00  0.00    +0.000 HD
ATOM     17  H   UNL     1      -6.775   6.328 -11.964  0.00  0.00    +0.000 HD
BRANCH   5  19
ATOM     18  O   UNL     1      -8.084   2.852  -8.594  0.00  0.00    +0.000 OA
ATOM     19  C   UNL     1      -7.277   3.767  -8.732  0.00  0.00    +0.000 C 
ATOM     20  H   UNL     1      -6.199   3.556  -8.839  0.00  0.00    +0.000 HD
ENDBRANCH   5  19
ENDBRANCH   1   4
BRANCH   1  21
ATOM     21  C   UNL     1      -3.022   6.829 -10.185  0.00  0.00    +0.000 C 
ATOM     22  H   UNL     1      -2.541   5.849 -10.110  0.00  0.00    +0.000 HD
ATOM     23  H   UNL     1      -3.355   7.092  -9.175  0.00  0.00    +0.000 HD
BRANCH  21  24
ATOM     24  C   UNL     1      -2.040   7.888 -10.703  0.00  0.00    +0.000 C 
ATOM     25  H   UNL     1      -1.005   7.577 -10.514  0.00  0.00    +0.000 HD
ATOM     26  H   UNL     1      -2.161   7.948 -11.793  0.00  0.00    +0.000 HD
BRANCH  24  27
ATOM     27  C   UNL     1      -2.243   9.295 -10.107  0.00  0.00    +0.000 C 
BRANCH  27  28
ATOM     28  C   UNL     1      -3.189  10.157 -10.945  0.00  0.00    +0.000 C 
ATOM     29  H   UNL     1      -2.756  10.407 -11.919  0.00  0.00    +0.000 HD
ATOM     30  H   UNL     1      -4.148   9.656 -11.109  0.00  0.00    +0.000 HD
ATOM     31  H   UNL     1      -3.380  11.115 -10.449  0.00  0.00    +0.000 HD
ENDBRANCH  27  28
BRANCH  27  32
ATOM     32  C   UNL     1      -2.777   9.174  -8.676  0.00  0.00    +0.000 C 
ATOM     33  H   UNL     1      -2.173   9.750  -7.968  0.00  0.00    +0.000 HD
ATOM     34  H   UNL     1      -2.788   8.127  -8.351  0.00  0.00    +0.000 HD
ATOM     35  H   UNL     1      -3.814   9.524  -8.615  0.00  0.00    +0.000 HD
ENDBRANCH  27  32
BRANCH  27  36
ATOM     36  O   UNL     1      -0.971   9.945 -10.046  0.00  0.00    +0.000 OA
ATOM     37  H   UNL     1      -0.353   9.372  -9.562  0.00  0.00    +0.000 HD
ENDBRANCH  27  36
ENDBRANCH  24  27
ENDBRANCH  21  24
ENDBRANCH   1  21
TORSDOF 8
ENDMDL
MODEL 10
REMARK VINA RESULT:    -5.130     20.923     22.899
REMARK INTER + INTRA:          -7.584
REMARK INTER:                  -7.079
REMARK INTRA:                  -0.505
REMARK UNBOUND:                -0.505
REMARK  Name = 91604
REMARK  8 active torsions:
REMARK  status: ('A' for Active; 'I' for Inactive)
REMARK    1  A    between atoms: O_1  and  C_11
REMARK    2  A    between atoms: C_3  and  C_7
REMARK    3  A    between atoms: C_4  and  C_15
REMARK    4  A    between atoms: C_7  and  C_8
REMARK    5  A    between atoms: C_8  and  C_10
REMARK    6  A    between atoms: C_10  and  C_11
REMARK    7  A    between atoms: C_11  and  C_13
REMARK    8  A    between atoms: C_11  and  C_14
REMARK                            x       y       z     vdW  Elec       q    Type
REMARK                         _______ _______ _______ _____ _____    ______ ____
ROOT
ATOM      1  C   UNL     1       2.468   0.792 -14.147  0.00  0.00    +0.000 C 
ATOM      2  H   UNL     1       2.957   1.766 -14.024  0.00  0.00    +0.000 HD
ATOM      3  H   UNL     1       1.544   0.981 -14.707  0.00  0.00    +0.000 HD
ENDROOT
BRANCH   1   4
ATOM      4  C   UNL     1       3.329  -0.153 -14.932  0.00  0.00    +0.000 C 
ATOM      5  C   UNL     1       4.859  -2.252 -16.238  0.00  0.00    +0.000 C 
ATOM      6  C   UNL     1       2.603  -1.144 -15.803  0.00  0.00    +0.000 C 
ATOM      7  C   UNL     1       3.506  -1.848 -16.823  0.00  0.00    +0.000 C 
ATOM      8  C   UNL     1       5.577  -1.063 -15.593  0.00  0.00    +0.000 C 
ATOM      9  C   UNL     1       4.671  -0.118 -14.858  0.00  0.00    +0.000 C 
ATOM     10  H   UNL     1       5.493  -2.656 -17.036  0.00  0.00    +0.000 HD
ATOM     11  H   UNL     1       2.136  -1.907 -15.168  0.00  0.00    +0.000 HD
ATOM     12  H   UNL     1       1.797  -0.642 -16.349  0.00  0.00    +0.000 HD
ATOM     13  H   UNL     1       2.979  -2.722 -17.227  0.00  0.00    +0.000 HD
ATOM     14  H   UNL     1       3.679  -1.169 -17.669  0.00  0.00    +0.000 HD
ATOM     15  H   UNL     1       6.075  -0.483 -16.382  0.00  0.00    +0.000 HD
ATOM     16  H   UNL     1       6.371  -1.399 -14.915  0.00  0.00    +0.000 HD
ATOM     17  H   UNL     1       5.157   0.624 -14.230  0.00  0.00    +0.000 HD
BRANCH   5  19
ATOM     18  O   UNL     1       5.062  -4.520 -15.461  0.00  0.00    +0.000 OA
ATOM     19  C   UNL     1       4.680  -3.373 -15.254  0.00  0.00    +0.000 C 
ATOM     20  H   UNL     1       4.159  -3.113 -14.316  0.00  0.00    +0.000 HD
ENDBRANCH   5  19
ENDBRANCH   1   4
BRANCH   1  21
ATOM     21  C   UNL     1       2.112   0.227 -12.769  0.00  0.00    +0.000 C 
ATOM     22  H   UNL     1       2.858   0.526 -12.027  0.00  0.00    +0.000 HD
ATOM     23  H   UNL     1       2.161  -0.866 -12.837  0.00  0.00    +0.000 HD
BRANCH  21  24
ATOM     24  C   UNL     1       0.703   0.661 -12.343  0.00  0.00    +0.000 C 
ATOM     25  H   UNL     1       0.715   1.055 -11.320  0.00  0.00    +0.000 HD
ATOM     26  H   UNL     1       0.397   1.485 -13.000  0.00  0.00    +0.000 HD
BRANCH  24  27
ATOM     27  C   UNL     1      -0.361  -0.453 -12.423  0.00  0.00    +0.000 C 
BRANCH  27  28
ATOM     28  C   UNL     1      -1.296  -0.459 -11.213  0.00  0.00    +0.000 C 
ATOM     29  H   UNL     1      -0.783  -0.140 -10.300  0.00  0.00    +0.000 HD
ATOM     30  H   UNL     1      -2.162   0.193 -11.371  0.00  0.00    +0.000 HD
ATOM     31  H   UNL     1      -1.660  -1.473 -11.011  0.00  0.00    +0.000 HD
ENDBRANCH  27  28
BRANCH  27  32
ATOM     32  C   UNL     1      -1.175  -0.293 -13.711  0.00  0.00    +0.000 C 
ATOM     33  H   UNL     1      -2.188  -0.695 -13.603  0.00  0.00    +0.000 HD
ATOM     34  H   UNL     1      -0.686  -0.806 -14.548  0.00  0.00    +0.000 HD
ATOM     35  H   UNL     1      -1.248   0.763 -14.000  0.00  0.00    +0.000 HD
ENDBRANCH  27  32
BRANCH  27  36
ATOM     36  O   UNL     1       0.311  -1.713 -12.483  0.00  0.00    +0.000 OA
ATOM     37  H   UNL     1      -0.281  -2.397 -12.126  0.00  0.00    +0.000 HD
ENDBRANCH  27  36
ENDBRANCH  24  27
ENDBRANCH  21  24
ENDBRANCH   1  21
TORSDOF 8
ENDMDL
