MODEL 1
REMARK VINA RESULT:    -4.938      0.000      0.000
REMARK INTER + INTRA:          -5.999
REMARK INTER:                  -5.801
REMARK INTRA:                  -0.198
REMARK UNBOUND:                -0.196
REMARK  Name = 16666
REMARK  5 active torsions:
REMARK  status: ('A' for Active; 'I' for Inactive)
REMARK    1  A    between atoms: O_1  and  C_3
REMARK    2  A    between atoms: C_2  and  C_8
REMARK    3  A    between atoms: C_5  and  C_9
REMARK    4  A    between atoms: C_8  and  C_10
REMARK    5  A    between atoms: C_8  and  C_11
REMARK                            x       y       z     vdW  Elec       q    Type
REMARK                         _______ _______ _______ _____ _____    ______ ____
ROOT
ATOM      1  C   UNL     1      -1.428   8.679 -11.889  0.00  0.00    +0.000 C 
ATOM      2  C   UNL     1      -1.923   9.491 -10.681  0.00  0.00    +0.000 C 
ATOM      3  C   UNL     1      -2.484   7.655 -12.328  0.00  0.00    +0.000 C 
ATOM      4  C   UNL     1      -3.418   7.565  -9.977  0.00  0.00    +0.000 C 
ATOM      5  C   UNL     1      -2.362   8.580  -9.531  0.00  0.00    +0.000 C 
ATOM      6  C   UNL     1      -2.914   6.751 -11.176  0.00  0.00    +0.000 C 
ATOM      7  H   UNL     1      -0.522   8.135 -11.585  0.00  0.00    +0.000 HD
ATOM      8  H   UNL     1      -2.774  10.128 -10.933  0.00  0.00    +0.000 HD
ATOM      9  H   UNL     1      -2.104   7.011 -13.128  0.00  0.00    +0.000 HD
ATOM     10  H   UNL     1      -3.388   8.143 -12.706  0.00  0.00    +0.000 HD
ATOM     11  H   UNL     1      -4.319   8.113 -10.284  0.00  0.00    +0.000 HD
ATOM     12  H   UNL     1      -2.748   9.196  -8.709  0.00  0.00    +0.000 HD
ATOM     13  H   UNL     1      -1.486   8.060  -9.120  0.00  0.00    +0.000 HD
ATOM     14  H   UNL     1      -3.701   6.072 -11.523  0.00  0.00    +0.000 HD
ATOM     15  H   UNL     1      -2.066   6.125 -10.873  0.00  0.00    +0.000 HD
ENDROOT
BRANCH   4  16
ATOM     16  C   UNL     1      -3.802   6.642  -8.822  0.00  0.00    +0.000 C 
ATOM     17  H   UNL     1      -3.225   6.884  -7.923  0.00  0.00    +0.000 HD
ATOM     18  H   UNL     1      -4.864   6.748  -8.577  0.00  0.00    +0.000 HD
ATOM     19  H   UNL     1      -3.616   5.592  -9.071  0.00  0.00    +0.000 HD
ENDBRANCH   4  16
BRANCH   2  20
ATOM     20  O   UNL     1      -0.874  10.339 -10.220  0.00  0.00    +0.000 OA
ATOM     21  H   UNL     1      -0.337   9.835  -9.585  0.00  0.00    +0.000 HD
ENDBRANCH   2  20
BRANCH   1  22
ATOM     22  C   UNL     1      -1.052   9.591 -13.059  0.00  0.00    +0.000 C 
ATOM     23  H   UNL     1      -0.763  10.576 -12.671  0.00  0.00    +0.000 HD
BRANCH  22  24
ATOM     24  C   UNL     1       0.148   9.025 -13.813  0.00  0.00    +0.000 C 
ATOM     25  H   UNL     1       0.114   9.237 -14.886  0.00  0.00    +0.000 HD
ATOM     26  H   UNL     1       1.072   9.475 -13.432  0.00  0.00    +0.000 HD
ATOM     27  H   UNL     1       0.232   7.942 -13.673  0.00  0.00    +0.000 HD
ENDBRANCH  22  24
BRANCH  22  28
ATOM     28  C   UNL     1      -2.242   9.773 -13.997  0.00  0.00    +0.000 C 
ATOM     29  H   UNL     1      -3.184   9.395 -13.591  0.00  0.00    +0.000 HD
ATOM     30  H   UNL     1      -2.062   9.194 -14.912  0.00  0.00    +0.000 HD
ATOM     31  H   UNL     1      -2.383  10.805 -14.326  0.00  0.00    +0.000 HD
ENDBRANCH  22  28
ENDBRANCH   1  22
TORSDOF 5
ENDMDL
MODEL 2
REMARK VINA RESULT:    -4.742     10.201     11.562
REMARK INTER + INTRA:          -5.769
REMARK INTER:                  -5.552
REMARK INTRA:                  -0.218
REMARK UNBOUND:                -0.196
REMARK  Name = 16666
REMARK  5 active torsions:
REMARK  status: ('A' for Active; 'I' for Inactive)
REMARK    1  A    between atoms: O_1  and  C_3
REMARK    2  A    between atoms: C_2  and  C_8
REMARK    3  A    between atoms: C_5  and  C_9
REMARK    4  A    between atoms: C_8  and  C_10
REMARK    5  A    between atoms: C_8  and  C_11
REMARK                            x       y       z     vdW  Elec       q    Type
REMARK                         _______ _______ _______ _____ _____    ______ ____
ROOT
ATOM      1  C   UNL     1       2.597  -0.420 -13.261  0.00  0.00    +0.000 C 
ATOM      2  C   UNL     1       2.855  -1.850 -13.765  0.00  0.00    +0.000 C 
ATOM      3  C   UNL     1       2.814   0.602 -14.385  0.00  0.00    +0.000 C 
ATOM      4  C   UNL     1       4.446  -0.958 -15.529  0.00  0.00    +0.000 C 
ATOM      5  C   UNL     1       4.239  -1.979 -14.407  0.00  0.00    +0.000 C 
ATOM      6  C   UNL     1       4.197   0.467 -15.018  0.00  0.00    +0.000 C 
ATOM      7  H   UNL     1       3.314  -0.209 -12.455  0.00  0.00    +0.000 HD
ATOM      8  H   UNL     1       2.121  -2.163 -14.511  0.00  0.00    +0.000 HD
ATOM      9  H   UNL     1       2.722   1.627 -14.012  0.00  0.00    +0.000 HD
ATOM     10  H   UNL     1       2.082   0.483 -15.189  0.00  0.00    +0.000 HD
ATOM     11  H   UNL     1       3.725  -1.171 -16.330  0.00  0.00    +0.000 HD
ATOM     12  H   UNL     1       4.365  -2.999 -14.791  0.00  0.00    +0.000 HD
ATOM     13  H   UNL     1       5.014  -1.858 -13.638  0.00  0.00    +0.000 HD
ATOM     14  H   UNL     1       4.288   1.181 -15.844  0.00  0.00    +0.000 HD
ATOM     15  H   UNL     1       4.960   0.738 -14.278  0.00  0.00    +0.000 HD
ENDROOT
BRANCH   4  16
ATOM     16  C   UNL     1       5.850  -1.081 -16.119  0.00  0.00    +0.000 C 
ATOM     17  H   UNL     1       6.361  -1.965 -15.723  0.00  0.00    +0.000 HD
ATOM     18  H   UNL     1       5.806  -1.179 -17.209  0.00  0.00    +0.000 HD
ATOM     19  H   UNL     1       6.461  -0.203 -15.883  0.00  0.00    +0.000 HD
ENDBRANCH   4  16
BRANCH   2  20
ATOM     20  O   UNL     1       2.770  -2.759 -12.670  0.00  0.00    +0.000 OA
ATOM     21  H   UNL     1       2.925  -3.657 -13.012  0.00  0.00    +0.000 HD
ENDBRANCH   2  20
BRANCH   1  22
ATOM     22  C   UNL     1       1.188  -0.280 -12.679  0.00  0.00    +0.000 C 
ATOM     23  H   UNL     1       1.043  -1.035 -11.896  0.00  0.00    +0.000 HD
BRANCH  22  24
ATOM     24  C   UNL     1       1.012   1.092 -12.033  0.00  0.00    +0.000 C 
ATOM     25  H   UNL     1       0.653   1.849 -12.735  0.00  0.00    +0.000 HD
ATOM     26  H   UNL     1       0.270   1.031 -11.229  0.00  0.00    +0.000 HD
ATOM     27  H   UNL     1       1.948   1.445 -11.586  0.00  0.00    +0.000 HD
ENDBRANCH  22  24
BRANCH  22  28
ATOM     28  C   UNL     1       0.138  -0.503 -13.764  0.00  0.00    +0.000 C 
ATOM     29  H   UNL     1       0.479  -0.233 -14.767  0.00  0.00    +0.000 HD
ATOM     30  H   UNL     1      -0.724   0.145 -13.561  0.00  0.00    +0.000 HD
ATOM     31  H   UNL     1      -0.258  -1.520 -13.783  0.00  0.00    +0.000 HD
ENDBRANCH  22  28
ENDBRANCH   1  22
TORSDOF 5
ENDMDL
MODEL 3
REMARK VINA RESULT:    -4.663      9.282      9.811
REMARK INTER + INTRA:          -5.676
REMARK INTER:                  -5.463
REMARK INTRA:                  -0.212
REMARK UNBOUND:                -0.196
REMARK  Name = 16666
REMARK  5 active torsions:
REMARK  status: ('A' for Active; 'I' for Inactive)
REMARK    1  A    between atoms: O_1  and  C_3
REMARK    2  A    between atoms: C_2  and  C_8
REMARK    3  A    between atoms: C_5  and  C_9
REMARK    4  A    between atoms: C_8  and  C_10
REMARK    5  A    between atoms: C_8  and  C_11
REMARK                            x       y       z     vdW  Elec       q    Type
REMARK                         _______ _______ _______ _____ _____    ______ ____
ROOT
ATOM      1  C   UNL     1      -9.425   6.927  -6.358  0.00  0.00    +0.000 C 
ATOM      2  C   UNL     1      -8.796   6.040  -5.270  0.00  0.00    +0.000 C 
ATOM      3  C   UNL     1     -10.484   6.149  -7.151  0.00  0.00    +0.000 C 
ATOM      4  C   UNL     1      -9.308   3.967  -6.640  0.00  0.00    +0.000 C 
ATOM      5  C   UNL     1      -8.243   4.737  -5.854  0.00  0.00    +0.000 C 
ATOM      6  C   UNL     1      -9.923   4.853  -7.730  0.00  0.00    +0.000 C 
ATOM      7  H   UNL     1      -8.627   7.232  -7.050  0.00  0.00    +0.000 HD
ATOM      8  H   UNL     1      -9.516   5.768  -4.494  0.00  0.00    +0.000 HD
ATOM      9  H   UNL     1     -10.870   6.743  -7.985  0.00  0.00    +0.000 HD
ATOM     10  H   UNL     1     -11.339   5.875  -6.524  0.00  0.00    +0.000 HD
ATOM     11  H   UNL     1     -10.104   3.667  -5.945  0.00  0.00    +0.000 HD
ATOM     12  H   UNL     1      -7.845   4.117  -5.041  0.00  0.00    +0.000 HD
ATOM     13  H   UNL     1      -7.383   4.961  -6.500  0.00  0.00    +0.000 HD
ATOM     14  H   UNL     1     -10.725   4.309  -8.244  0.00  0.00    +0.000 HD
ATOM     15  H   UNL     1      -9.167   5.094  -8.488  0.00  0.00    +0.000 HD
ENDROOT
BRANCH   4  16
ATOM     16  C   UNL     1      -8.715   2.696  -7.248  0.00  0.00    +0.000 C 
ATOM     17  H   UNL     1      -9.369   1.837  -7.067  0.00  0.00    +0.000 HD
ATOM     18  H   UNL     1      -8.596   2.805  -8.332  0.00  0.00    +0.000 HD
ATOM     19  H   UNL     1      -7.732   2.470  -6.821  0.00  0.00    +0.000 HD
ENDBRANCH   4  16
BRANCH   2  20
ATOM     20  O   UNL     1      -7.732   6.749  -4.639  0.00  0.00    +0.000 OA
ATOM     21  H   UNL     1      -7.147   6.098  -4.216  0.00  0.00    +0.000 HD
ENDBRANCH   2  20
BRANCH   1  22
ATOM     22  C   UNL     1     -10.034   8.197  -5.760  0.00  0.00    +0.000 C 
ATOM     23  H   UNL     1      -9.323   8.639  -5.050  0.00  0.00    +0.000 HD
BRANCH  22  24
ATOM     24  C   UNL     1     -10.294   9.229  -6.853  0.00  0.00    +0.000 C 
ATOM     25  H   UNL     1      -9.377   9.563  -7.349  0.00  0.00    +0.000 HD
ATOM     26  H   UNL     1     -10.931   8.794  -7.632  0.00  0.00    +0.000 HD
ATOM     27  H   UNL     1     -10.816  10.107  -6.458  0.00  0.00    +0.000 HD
ENDBRANCH  22  24
BRANCH  22  28
ATOM     28  C   UNL     1     -11.323   7.869  -5.011  0.00  0.00    +0.000 C 
ATOM     29  H   UNL     1     -11.313   8.178  -3.963  0.00  0.00    +0.000 HD
ATOM     30  H   UNL     1     -11.456   6.779  -4.997  0.00  0.00    +0.000 HD
ATOM     31  H   UNL     1     -12.219   8.267  -5.493  0.00  0.00    +0.000 HD
ENDBRANCH  22  28
ENDBRANCH   1  22
TORSDOF 5
ENDMDL
MODEL 4
REMARK VINA RESULT:    -4.627      1.245      4.086
REMARK INTER + INTRA:          -5.634
REMARK INTER:                  -5.415
REMARK INTRA:                  -0.219
REMARK UNBOUND:                -0.196
REMARK  Name = 16666
REMARK  5 active torsions:
REMARK  status: ('A' for Active; 'I' for Inactive)
REMARK    1  A    between atoms: O_1  and  C_3
REMARK    2  A    between atoms: C_2  and  C_8
REMARK    3  A    between atoms: C_5  and  C_9
REMARK    4  A    between atoms: C_8  and  C_10
REMARK    5  A    between atoms: C_8  and  C_11
REMARK                            x       y       z     vdW  Elec       q    Type
REMARK                         _______ _______ _______ _____ _____    ______ ____
ROOT
ATOM      1  C   UNL     1      -3.098   8.132 -11.567  0.00  0.00    +0.000 C 
ATOM      2  C   UNL     1      -2.021   9.049 -10.965  0.00  0.00    +0.000 C 
ATOM      3  C   UNL     1      -2.462   7.054 -12.455  0.00  0.00    +0.000 C 
ATOM      4  C   UNL     1      -0.487   8.566 -12.928  0.00  0.00    +0.000 C 
ATOM      5  C   UNL     1      -1.121   9.648 -12.049  0.00  0.00    +0.000 C 
ATOM      6  C   UNL     1      -1.567   7.660 -13.534  0.00  0.00    +0.000 C 
ATOM      7  H   UNL     1      -3.761   8.749 -12.190  0.00  0.00    +0.000 HD
ATOM      8  H   UNL     1      -1.374   8.520 -10.262  0.00  0.00    +0.000 HD
ATOM      9  H   UNL     1      -3.226   6.454 -12.961  0.00  0.00    +0.000 HD
ATOM     10  H   UNL     1      -1.840   6.365 -11.875  0.00  0.00    +0.000 HD
ATOM     11  H   UNL     1       0.170   7.950 -12.301  0.00  0.00    +0.000 HD
ATOM     12  H   UNL     1      -0.342  10.259 -11.575  0.00  0.00    +0.000 HD
ATOM     13  H   UNL     1      -1.703  10.345 -12.667  0.00  0.00    +0.000 HD
ATOM     14  H   UNL     1      -1.098   6.854 -14.110  0.00  0.00    +0.000 HD
ATOM     15  H   UNL     1      -2.186   8.233 -14.236  0.00  0.00    +0.000 HD
ENDROOT
BRANCH   4  16
ATOM     16  C   UNL     1       0.368   9.195 -14.027  0.00  0.00    +0.000 C 
ATOM     17  H   UNL     1      -0.137   9.130 -14.997  0.00  0.00    +0.000 HD
ATOM     18  H   UNL     1       0.553  10.253 -13.815  0.00  0.00    +0.000 HD
ATOM     19  H   UNL     1       1.337   8.692 -14.115  0.00  0.00    +0.000 HD
ENDBRANCH   4  16
BRANCH   2  20
ATOM     20  O   UNL     1      -2.651  10.111 -10.252  0.00  0.00    +0.000 OA
ATOM     21  H   UNL     1      -2.228  10.179  -9.378  0.00  0.00    +0.000 HD
ENDBRANCH   2  20
BRANCH   1  22
ATOM     22  C   UNL     1      -3.954   7.484 -10.476  0.00  0.00    +0.000 C 
ATOM     23  H   UNL     1      -4.438   8.270  -9.882  0.00  0.00    +0.000 HD
BRANCH  22  24
ATOM     24  C   UNL     1      -5.058   6.634 -11.098  0.00  0.00    +0.000 C 
ATOM     25  H   UNL     1      -6.021   7.152 -11.139  0.00  0.00    +0.000 HD
ATOM     26  H   UNL     1      -4.793   6.380 -12.131  0.00  0.00    +0.000 HD
ATOM     27  H   UNL     1      -5.190   5.692 -10.555  0.00  0.00    +0.000 HD
ENDBRANCH  22  24
BRANCH  22  28
ATOM     28  C   UNL     1      -3.085   6.643  -9.545  0.00  0.00    +0.000 C 
ATOM     29  H   UNL     1      -3.236   6.862  -8.485  0.00  0.00    +0.000 HD
ATOM     30  H   UNL     1      -2.029   6.869  -9.746  0.00  0.00    +0.000 HD
ATOM     31  H   UNL     1      -3.189   5.568  -9.707  0.00  0.00    +0.000 HD
ENDBRANCH  22  28
ENDBRANCH   1  22
TORSDOF 5
ENDMDL
MODEL 5
REMARK VINA RESULT:    -4.591      2.061      4.193
REMARK INTER + INTRA:          -5.592
REMARK INTER:                  -5.397
REMARK INTRA:                  -0.194
REMARK UNBOUND:                -0.196
REMARK  Name = 16666
REMARK  5 active torsions:
REMARK  status: ('A' for Active; 'I' for Inactive)
REMARK    1  A    between atoms: O_1  and  C_3
REMARK    2  A    between atoms: C_2  and  C_8
REMARK    3  A    between atoms: C_5  and  C_9
REMARK    4  A    between atoms: C_8  and  C_10
REMARK    5  A    between atoms: C_8  and  C_11
REMARK                            x       y       z     vdW  Elec       q    Type
REMARK                         _______ _______ _______ _____ _____    ______ ____
ROOT
ATOM      1  C   UNL     1      -2.863   7.673 -11.261  0.00  0.00    +0.000 C 
ATOM      2  C   UNL     1      -1.777   6.904 -12.032  0.00  0.00    +0.000 C 
ATOM      3  C   UNL     1      -4.258   7.122 -11.587  0.00  0.00    +0.000 C 
ATOM      4  C   UNL     1      -3.450   6.336 -13.854  0.00  0.00    +0.000 C 
ATOM      5  C   UNL     1      -2.058   6.890 -13.537  0.00  0.00    +0.000 C 
ATOM      6  C   UNL     1      -4.529   7.114 -13.089  0.00  0.00    +0.000 C 
ATOM      7  H   UNL     1      -2.822   8.726 -11.575  0.00  0.00    +0.000 HD
ATOM      8  H   UNL     1      -1.699   5.864 -11.708  0.00  0.00    +0.000 HD
ATOM      9  H   UNL     1      -5.041   7.722 -11.114  0.00  0.00    +0.000 HD
ATOM     10  H   UNL     1      -4.380   6.093 -11.235  0.00  0.00    +0.000 HD
ATOM     11  H   UNL     1      -3.487   5.286 -13.534  0.00  0.00    +0.000 HD
ATOM     12  H   UNL     1      -1.287   6.297 -14.044  0.00  0.00    +0.000 HD
ATOM     13  H   UNL     1      -1.955   7.907 -13.939  0.00  0.00    +0.000 HD
ATOM     14  H   UNL     1      -5.513   6.669 -13.277  0.00  0.00    +0.000 HD
ATOM     15  H   UNL     1      -4.574   8.148 -13.453  0.00  0.00    +0.000 HD
ENDROOT
BRANCH   4  16
ATOM     16  C   UNL     1      -3.719   6.378 -15.357  0.00  0.00    +0.000 C 
ATOM     17  H   UNL     1      -4.608   5.790 -15.609  0.00  0.00    +0.000 HD
ATOM     18  H   UNL     1      -3.890   7.407 -15.692  0.00  0.00    +0.000 HD
ATOM     19  H   UNL     1      -2.874   5.974 -15.925  0.00  0.00    +0.000 HD
ENDBRANCH   4  16
BRANCH   2  20
ATOM     20  O   UNL     1      -0.512   7.520 -11.807  0.00  0.00    +0.000 OA
ATOM     21  H   UNL     1      -0.326   7.485 -10.852  0.00  0.00    +0.000 HD
ENDBRANCH   2  20
BRANCH   1  22
ATOM     22  C   UNL     1      -2.612   7.628  -9.751  0.00  0.00    +0.000 C 
ATOM     23  H   UNL     1      -1.616   7.209  -9.563  0.00  0.00    +0.000 HD
BRANCH  22  24
ATOM     24  C   UNL     1      -2.636   9.037  -9.165  0.00  0.00    +0.000 C 
ATOM     25  H   UNL     1      -2.275   9.073  -8.133  0.00  0.00    +0.000 HD
ATOM     26  H   UNL     1      -1.981   9.693  -9.750  0.00  0.00    +0.000 HD
ATOM     27  H   UNL     1      -3.643   9.466  -9.199  0.00  0.00    +0.000 HD
ENDBRANCH  22  24
BRANCH  22  28
ATOM     28  C   UNL     1      -3.647   6.741  -9.066  0.00  0.00    +0.000 C 
ATOM     29  H   UNL     1      -3.867   7.036  -8.036  0.00  0.00    +0.000 HD
ATOM     30  H   UNL     1      -3.252   5.719  -9.002  0.00  0.00    +0.000 HD
ATOM     31  H   UNL     1      -4.585   6.658  -9.621  0.00  0.00    +0.000 HD
ENDBRANCH  22  28
ENDBRANCH   1  22
TORSDOF 5
ENDMDL
MODEL 6
REMARK VINA RESULT:    -4.588      9.164     10.181
REMARK INTER + INTRA:          -5.588
REMARK INTER:                  -5.392
REMARK INTRA:                  -0.196
REMARK UNBOUND:                -0.196
REMARK  Name = 16666
REMARK  5 active torsions:
REMARK  status: ('A' for Active; 'I' for Inactive)
REMARK    1  A    between atoms: O_1  and  C_3
REMARK    2  A    between atoms: C_2  and  C_8
REMARK    3  A    between atoms: C_5  and  C_9
REMARK    4  A    between atoms: C_8  and  C_10
REMARK    5  A    between atoms: C_8  and  C_11
REMARK                            x       y       z     vdW  Elec       q    Type
REMARK                         _______ _______ _______ _____ _____    ______ ____
ROOT
ATOM      1  C   UNL     1      -9.328   5.237  -5.551  0.00  0.00    +0.000 C 
ATOM      2  C   UNL     1      -8.549   6.553  -5.706  0.00  0.00    +0.000 C 
ATOM      3  C   UNL     1     -10.370   5.084  -6.667  0.00  0.00    +0.000 C 
ATOM      4  C   UNL     1     -10.524   7.599  -6.908  0.00  0.00    +0.000 C 
ATOM      5  C   UNL     1      -9.491   7.758  -5.790  0.00  0.00    +0.000 C 
ATOM      6  C   UNL     1     -11.305   6.289  -6.742  0.00  0.00    +0.000 C 
ATOM      7  H   UNL     1      -9.854   5.265  -4.585  0.00  0.00    +0.000 HD
ATOM      8  H   UNL     1      -7.930   6.563  -6.606  0.00  0.00    +0.000 HD
ATOM      9  H   UNL     1     -10.991   4.196  -6.511  0.00  0.00    +0.000 HD
ATOM     10  H   UNL     1      -9.900   4.983  -7.650  0.00  0.00    +0.000 HD
ATOM     11  H   UNL     1      -9.994   7.568  -7.869  0.00  0.00    +0.000 HD
ATOM     12  H   UNL     1      -8.899   8.669  -5.944  0.00  0.00    +0.000 HD
ATOM     13  H   UNL     1      -9.996   7.898  -4.825  0.00  0.00    +0.000 HD
ATOM     14  H   UNL     1     -11.998   6.158  -7.581  0.00  0.00    +0.000 HD
ATOM     15  H   UNL     1     -11.915   6.330  -5.831  0.00  0.00    +0.000 HD
ENDROOT
BRANCH   4  16
ATOM     16  C   UNL     1     -11.476   8.794  -6.938  0.00  0.00    +0.000 C 
ATOM     17  H   UNL     1     -12.186   8.704  -7.766  0.00  0.00    +0.000 HD
ATOM     18  H   UNL     1     -12.052   8.854  -6.008  0.00  0.00    +0.000 HD
ATOM     19  H   UNL     1     -10.931   9.736  -7.059  0.00  0.00    +0.000 HD
ENDBRANCH   4  16
BRANCH   2  20
ATOM     20  O   UNL     1      -7.683   6.724  -4.587  0.00  0.00    +0.000 OA
ATOM     21  H   UNL     1      -7.230   7.580  -4.686  0.00  0.00    +0.000 HD
ENDBRANCH   2  20
BRANCH   1  22
ATOM     22  C   UNL     1      -8.386   4.030  -5.533  0.00  0.00    +0.000 C 
ATOM     23  H   UNL     1      -7.373   4.366  -5.281  0.00  0.00    +0.000 HD
BRANCH  22  24
ATOM     24  C   UNL     1      -8.819   3.032  -4.463  0.00  0.00    +0.000 C 
ATOM     25  H   UNL     1      -9.429   3.489  -3.678  0.00  0.00    +0.000 HD
ATOM     26  H   UNL     1      -9.430   2.242  -4.916  0.00  0.00    +0.000 HD
ATOM     27  H   UNL     1      -7.955   2.548  -3.996  0.00  0.00    +0.000 HD
ENDBRANCH  22  24
BRANCH  22  28
ATOM     28  C   UNL     1      -8.347   3.365  -6.906  0.00  0.00    +0.000 C 
ATOM     29  H   UNL     1      -8.985   2.482  -6.985  0.00  0.00    +0.000 HD
ATOM     30  H   UNL     1      -7.326   3.010  -7.098  0.00  0.00    +0.000 HD
ATOM     31  H   UNL     1      -8.578   4.048  -7.727  0.00  0.00    +0.000 HD
ENDBRANCH  22  28
ENDBRANCH   1  22
TORSDOF 5
ENDMDL
MODEL 7
REMARK VINA RESULT:    -4.577     28.986     30.537
REMARK INTER + INTRA:          -5.575
REMARK INTER:                  -5.514
REMARK INTRA:                  -0.061
REMARK UNBOUND:                -0.196
REMARK  Name = 16666
REMARK  5 active torsions:
REMARK  status: ('A' for Active; 'I' for Inactive)
REMARK    1  A    between atoms: O_1  and  C_3
REMARK    2  A    between atoms: C_2  and  C_8
REMARK    3  A    between atoms: C_5  and  C_9
REMARK    4  A    between atoms: C_8  and  C_10
REMARK    5  A    between atoms: C_8  and  C_11
REMARK                            x       y       z     vdW  Elec       q    Type
REMARK                         _______ _______ _______ _____ _____    ______ ____
ROOT
ATOM      1  C   UNL     1      -9.144   9.935  18.499  0.00  0.00    +0.000 C 
ATOM      2  C   UNL     1      -8.335   9.610  17.232  0.00  0.00    +0.000 C 
ATOM      3  C   UNL     1      -9.720  11.356  18.429  0.00  0.00    +0.000 C 
ATOM      4  C   UNL     1      -7.838  12.076  16.897  0.00  0.00    +0.000 C 
ATOM      5  C   UNL     1      -7.254  10.662  16.969  0.00  0.00    +0.000 C 
ATOM      6  C   UNL     1      -8.635  12.397  18.167  0.00  0.00    +0.000 C 
ATOM      7  H   UNL     1      -8.464   9.877  19.361  0.00  0.00    +0.000 HD
ATOM      8  H   UNL     1      -8.965   9.563  16.341  0.00  0.00    +0.000 HD
ATOM      9  H   UNL     1     -10.219  11.628  19.364  0.00  0.00    +0.000 HD
ATOM     10  H   UNL     1     -10.458  11.455  17.626  0.00  0.00    +0.000 HD
ATOM     11  H   UNL     1      -8.519  12.127  16.037  0.00  0.00    +0.000 HD
ATOM     12  H   UNL     1      -6.731  10.417  16.036  0.00  0.00    +0.000 HD
ATOM     13  H   UNL     1      -6.489  10.608  17.756  0.00  0.00    +0.000 HD
ATOM     14  H   UNL     1      -9.098  13.387  18.077  0.00  0.00    +0.000 HD
ATOM     15  H   UNL     1      -7.961  12.441  19.032  0.00  0.00    +0.000 HD
ENDROOT
BRANCH   4  16
ATOM     16  C   UNL     1      -6.731  13.106  16.679  0.00  0.00    +0.000 C 
ATOM     17  H   UNL     1      -5.917  12.682  16.083  0.00  0.00    +0.000 HD
ATOM     18  H   UNL     1      -7.116  13.982  16.146  0.00  0.00    +0.000 HD
ATOM     19  H   UNL     1      -6.311  13.448  17.631  0.00  0.00    +0.000 HD
ENDBRANCH   4  16
BRANCH   2  20
ATOM     20  O   UNL     1      -7.710   8.337  17.385  0.00  0.00    +0.000 OA
ATOM     21  H   UNL     1      -7.070   8.228  16.660  0.00  0.00    +0.000 HD
ENDBRANCH   2  20
BRANCH   1  22
ATOM     22  C   UNL     1     -10.265   8.917  18.721  0.00  0.00    +0.000 C 
ATOM     23  H   UNL     1     -10.446   8.369  17.788  0.00  0.00    +0.000 HD
BRANCH  22  24
ATOM     24  C   UNL     1      -9.856   7.897  19.780  0.00  0.00    +0.000 C 
ATOM     25  H   UNL     1      -9.339   8.351  20.630  0.00  0.00    +0.000 HD
ATOM     26  H   UNL     1     -10.747   7.402  20.183  0.00  0.00    +0.000 HD
ATOM     27  H   UNL     1      -9.214   7.117  19.357  0.00  0.00    +0.000 HD
ENDBRANCH  22  24
BRANCH  22  28
ATOM     28  C   UNL     1     -11.556   9.624  19.124  0.00  0.00    +0.000 C 
ATOM     29  H   UNL     1     -12.004   9.232  20.040  0.00  0.00    +0.000 HD
ATOM     30  H   UNL     1     -12.305   9.468  18.337  0.00  0.00    +0.000 HD
ATOM     31  H   UNL     1     -11.448  10.707  19.214  0.00  0.00    +0.000 HD
ENDBRANCH  22  28
ENDBRANCH   1  22
TORSDOF 5
ENDMDL
MODEL 8
REMARK VINA RESULT:    -4.348      6.556      8.588
REMARK INTER + INTRA:          -5.306
REMARK INTER:                  -5.108
REMARK INTRA:                  -0.198
REMARK UNBOUND:                -0.196
REMARK  Name = 16666
REMARK  5 active torsions:
REMARK  status: ('A' for Active; 'I' for Inactive)
REMARK    1  A    between atoms: O_1  and  C_3
REMARK    2  A    between atoms: C_2  and  C_8
REMARK    3  A    between atoms: C_5  and  C_9
REMARK    4  A    between atoms: C_8  and  C_10
REMARK    5  A    between atoms: C_8  and  C_11
REMARK                            x       y       z     vdW  Elec       q    Type
REMARK                         _______ _______ _______ _____ _____    ______ ____
ROOT
ATOM      1  C   UNL     1      -8.272   5.405  -7.395  0.00  0.00    +0.000 C 
ATOM      2  C   UNL     1      -7.989   5.827  -5.944  0.00  0.00    +0.000 C 
ATOM      3  C   UNL     1      -8.638   6.621  -8.257  0.00  0.00    +0.000 C 
ATOM      4  C   UNL     1      -9.509   7.841  -6.217  0.00  0.00    +0.000 C 
ATOM      5  C   UNL     1      -9.153   6.628  -5.353  0.00  0.00    +0.000 C 
ATOM      6  C   UNL     1      -9.800   7.412  -7.660  0.00  0.00    +0.000 C 
ATOM      7  H   UNL     1      -9.128   4.714  -7.387  0.00  0.00    +0.000 HD
ATOM      8  H   UNL     1      -7.094   6.449  -5.863  0.00  0.00    +0.000 HD
ATOM      9  H   UNL     1      -8.931   6.318  -9.267  0.00  0.00    +0.000 HD
ATOM     10  H   UNL     1      -7.798   7.315  -8.356  0.00  0.00    +0.000 HD
ATOM     11  H   UNL     1      -8.650   8.526  -6.225  0.00  0.00    +0.000 HD
ATOM     12  H   UNL     1      -8.893   6.946  -4.336  0.00  0.00    +0.000 HD
ATOM     13  H   UNL     1     -10.028   5.974  -5.240  0.00  0.00    +0.000 HD
ATOM     14  H   UNL     1      -9.993   8.295  -8.280  0.00  0.00    +0.000 HD
ATOM     15  H   UNL     1     -10.708   6.797  -7.692  0.00  0.00    +0.000 HD
ENDROOT
BRANCH   4  16
ATOM     16  C   UNL     1     -10.701   8.593  -5.627  0.00  0.00    +0.000 C 
ATOM     17  H   UNL     1     -11.461   7.892  -5.265  0.00  0.00    +0.000 HD
ATOM     18  H   UNL     1     -10.388   9.214  -4.781  0.00  0.00    +0.000 HD
ATOM     19  H   UNL     1     -11.169   9.245  -6.371  0.00  0.00    +0.000 HD
ENDBRANCH   4  16
BRANCH   2  20
ATOM     20  O   UNL     1      -7.778   4.665  -5.146  0.00  0.00    +0.000 OA
ATOM     21  H   UNL     1      -6.890   4.321  -5.345  0.00  0.00    +0.000 HD
ENDBRANCH   2  20
BRANCH   1  22
ATOM     22  C   UNL     1      -7.079   4.662  -8.003  0.00  0.00    +0.000 C 
ATOM     23  H   UNL     1      -6.512   4.173  -7.201  0.00  0.00    +0.000 HD
BRANCH  22  24
ATOM     24  C   UNL     1      -7.560   3.571  -8.956  0.00  0.00    +0.000 C 
ATOM     25  H   UNL     1      -8.001   2.716  -8.435  0.00  0.00    +0.000 HD
ATOM     26  H   UNL     1      -8.339   3.971  -9.616  0.00  0.00    +0.000 HD
ATOM     27  H   UNL     1      -6.746   3.211  -9.593  0.00  0.00    +0.000 HD
ENDBRANCH  22  24
BRANCH  22  28
ATOM     28  C   UNL     1      -6.154   5.638  -8.724  0.00  0.00    +0.000 C 
ATOM     29  H   UNL     1      -6.519   6.669  -8.727  0.00  0.00    +0.000 HD
ATOM     30  H   UNL     1      -6.085   5.346  -9.779  0.00  0.00    +0.000 HD
ATOM     31  H   UNL     1      -5.129   5.624  -8.348  0.00  0.00    +0.000 HD
ENDBRANCH  22  28
ENDBRANCH   1  22
TORSDOF 5
ENDMDL
MODEL 9
REMARK VINA RESULT:    -4.345      9.189     10.680
REMARK INTER + INTRA:          -5.302
REMARK INTER:                  -5.088
REMARK INTRA:                  -0.214
REMARK UNBOUND:                -0.196
REMARK  Name = 16666
REMARK  5 active torsions:
REMARK  status: ('A' for Active; 'I' for Inactive)
REMARK    1  A    between atoms: O_1  and  C_3
REMARK    2  A    between atoms: C_2  and  C_8
REMARK    3  A    between atoms: C_5  and  C_9
REMARK    4  A    between atoms: C_8  and  C_10
REMARK    5  A    between atoms: C_8  and  C_11
REMARK                            x       y       z     vdW  Elec       q    Type
REMARK                         _______ _______ _______ _____ _____    ______ ____
ROOT
ATOM      1  C   UNL     1      -0.278  -1.045 -11.953  0.00  0.00    +0.000 C 
ATOM      2  C   UNL     1       0.079  -1.914 -13.171  0.00  0.00    +0.000 C 
ATOM      3  C   UNL     1       0.191   0.402 -12.158  0.00  0.00    +0.000 C 
ATOM      4  C   UNL     1       2.029  -0.383 -13.712  0.00  0.00    +0.000 C 
ATOM      5  C   UNL     1       1.571  -1.829 -13.506  0.00  0.00    +0.000 C 
ATOM      6  C   UNL     1       1.680   0.476 -12.490  0.00  0.00    +0.000 C 
ATOM      7  H   UNL     1       0.243  -1.459 -11.076  0.00  0.00    +0.000 HD
ATOM      8  H   UNL     1      -0.472  -1.614 -14.066  0.00  0.00    +0.000 HD
ATOM      9  H   UNL     1       0.024   1.004 -11.259  0.00  0.00    +0.000 HD
ATOM     10  H   UNL     1      -0.344   0.888 -12.979  0.00  0.00    +0.000 HD
ATOM     11  H   UNL     1       1.504   0.027 -14.585  0.00  0.00    +0.000 HD
ATOM     12  H   UNL     1       1.773  -2.426 -14.404  0.00  0.00    +0.000 HD
ATOM     13  H   UNL     1       2.154  -2.300 -12.704  0.00  0.00    +0.000 HD
ATOM     14  H   UNL     1       1.958   1.520 -12.676  0.00  0.00    +0.000 HD
ATOM     15  H   UNL     1       2.260   0.143 -11.621  0.00  0.00    +0.000 HD
ENDROOT
BRANCH   4  16
ATOM     16  C   UNL     1       3.529  -0.327 -14.000  0.00  0.00    +0.000 C 
ATOM     17  H   UNL     1       4.074   0.076 -13.140  0.00  0.00    +0.000 HD
ATOM     18  H   UNL     1       3.921  -1.329 -14.206  0.00  0.00    +0.000 HD
ATOM     19  H   UNL     1       3.745   0.306 -14.866  0.00  0.00    +0.000 HD
ENDBRANCH   4  16
BRANCH   2  20
ATOM     20  O   UNL     1      -0.254  -3.272 -12.896  0.00  0.00    +0.000 OA
ATOM     21  H   UNL     1       0.558  -3.730 -12.618  0.00  0.00    +0.000 HD
ENDBRANCH   2  20
BRANCH   1  22
ATOM     22  C   UNL     1      -1.780  -1.082 -11.662  0.00  0.00    +0.000 C 
ATOM     23  H   UNL     1      -2.124  -2.124 -11.668  0.00  0.00    +0.000 HD
BRANCH  22  24
ATOM     24  C   UNL     1      -2.068  -0.511 -10.276  0.00  0.00    +0.000 C 
ATOM     25  H   UNL     1      -2.842  -1.069  -9.740  0.00  0.00    +0.000 HD
ATOM     26  H   UNL     1      -1.163  -0.557  -9.660  0.00  0.00    +0.000 HD
ATOM     27  H   UNL     1      -2.371   0.540 -10.332  0.00  0.00    +0.000 HD
ENDBRANCH  22  24
BRANCH  22  28
ATOM     28  C   UNL     1      -2.549  -0.313 -12.733  0.00  0.00    +0.000 C 
ATOM     29  H   UNL     1      -2.456  -0.741 -13.734  0.00  0.00    +0.000 HD
ATOM     30  H   UNL     1      -2.136   0.701 -12.806  0.00  0.00    +0.000 HD
ATOM     31  H   UNL     1      -3.608  -0.182 -12.497  0.00  0.00    +0.000 HD
ENDBRANCH  22  28
ENDBRANCH   1  22
TORSDOF 5
ENDMDL
MODEL 10
REMARK VINA RESULT:    -4.322      2.503      3.685
REMARK INTER + INTRA:          -5.276
REMARK INTER:                  -5.080
REMARK INTRA:                  -0.196
REMARK UNBOUND:                -0.196
REMARK  Name = 16666
REMARK  5 active torsions:
REMARK  status: ('A' for Active; 'I' for Inactive)
REMARK    1  A    between atoms: O_1  and  C_3
REMARK    2  A    between atoms: C_2  and  C_8
REMARK    3  A    between atoms: C_5  and  C_9
REMARK    4  A    between atoms: C_8  and  C_10
REMARK    5  A    between atoms: C_8  and  C_11
REMARK                            x       y       z     vdW  Elec       q    Type
REMARK                         _______ _______ _______ _____ _____    ______ ____
ROOT
ATOM      1  C   UNL     1      -3.860   7.537 -10.938  0.00  0.00    +0.000 C 
ATOM      2  C   UNL     1      -5.009   6.739 -11.577  0.00  0.00    +0.000 C 
ATOM      3  C   UNL     1      -3.346   6.837  -9.673  0.00  0.00    +0.000 C 
ATOM      4  C   UNL     1      -5.609   5.761  -9.313  0.00  0.00    +0.000 C 
ATOM      5  C   UNL     1      -6.130   6.463 -10.571  0.00  0.00    +0.000 C 
ATOM      6  C   UNL     1      -4.471   6.567  -8.676  0.00  0.00    +0.000 C 
ATOM      7  H   UNL     1      -4.249   8.526 -10.655  0.00  0.00    +0.000 HD
ATOM      8  H   UNL     1      -4.675   5.774 -11.963  0.00  0.00    +0.000 HD
ATOM      9  H   UNL     1      -2.592   7.444  -9.161  0.00  0.00    +0.000 HD
ATOM     10  H   UNL     1      -2.885   5.871  -9.902  0.00  0.00    +0.000 HD
ATOM     11  H   UNL     1      -5.218   4.776  -9.602  0.00  0.00    +0.000 HD
ATOM     12  H   UNL     1      -6.906   5.856 -11.053  0.00  0.00    +0.000 HD
ATOM     13  H   UNL     1      -6.622   7.407 -10.301  0.00  0.00    +0.000 HD
ATOM     14  H   UNL     1      -4.067   6.024  -7.813  0.00  0.00    +0.000 HD
ATOM     15  H   UNL     1      -4.854   7.522  -8.297  0.00  0.00    +0.000 HD
ENDROOT
BRANCH   4  16
ATOM     16  C   UNL     1      -6.741   5.540  -8.311  0.00  0.00    +0.000 C 
ATOM     17  H   UNL     1      -7.428   6.393  -8.307  0.00  0.00    +0.000 HD
ATOM     18  H   UNL     1      -7.318   4.645  -8.569  0.00  0.00    +0.000 HD
ATOM     19  H   UNL     1      -6.354   5.412  -7.295  0.00  0.00    +0.000 HD
ENDBRANCH   4  16
BRANCH   2  20
ATOM     20  O   UNL     1      -5.545   7.478 -12.671  0.00  0.00    +0.000 OA
ATOM     21  H   UNL     1      -4.813   7.954 -13.100  0.00  0.00    +0.000 HD
ENDBRANCH   2  20
BRANCH   1  22
ATOM     22  C   UNL     1      -2.713   7.754 -11.928  0.00  0.00    +0.000 C 
ATOM     23  H   UNL     1      -3.071   7.551 -12.946  0.00  0.00    +0.000 HD
BRANCH  22  24
ATOM     24  C   UNL     1      -2.243   9.206 -11.889  0.00  0.00    +0.000 C 
ATOM     25  H   UNL     1      -1.804   9.484 -10.926  0.00  0.00    +0.000 HD
ATOM     26  H   UNL     1      -1.466   9.365 -12.646  0.00  0.00    +0.000 HD
ATOM     27  H   UNL     1      -3.062   9.897 -12.113  0.00  0.00    +0.000 HD
ENDBRANCH  22  24
BRANCH  22  28
ATOM     28  C   UNL     1      -1.558   6.804 -11.623  0.00  0.00    +0.000 C 
ATOM     29  H   UNL     1      -1.788   5.755 -11.824  0.00  0.00    +0.000 HD
ATOM     30  H   UNL     1      -1.330   6.857 -10.551  0.00  0.00    +0.000 HD
ATOM     31  H   UNL     1      -0.630   7.071 -12.133  0.00  0.00    +0.000 HD
ENDBRANCH  22  28
ENDBRANCH   1  22
TORSDOF 5
ENDMDL
