MODEL 1
REMARK VINA RESULT:    -5.482      0.000      0.000
REMARK INTER + INTRA:          -6.366
REMARK INTER:                  -6.203
REMARK INTRA:                  -0.163
REMARK UNBOUND:                -0.083
REMARK  Name = 26447
REMARK  4 active torsions:
REMARK  status: ('A' for Active; 'I' for Inactive)
REMARK    1  A    between atoms: C_2  and  C_6
REMARK    2  A    between atoms: C_4  and  C_9
REMARK    3  A    between atoms: C_6  and  C_10
REMARK    4  A    between atoms: C_6  and  C_11
REMARK                            x       y       z     vdW  Elec       q    Type
REMARK                         _______ _______ _______ _____ _____    ______ ____
ROOT
ATOM      1  O   UNL     1       6.655   7.843   0.256  0.00  0.00    +0.000 OA
ATOM      2  C   UNL     1       4.657   9.084   0.743  0.00  0.00    +0.000 C 
ATOM      3  C   UNL     1       3.585   8.771   1.788  0.00  0.00    +0.000 C 
ATOM      4  C   UNL     1       5.351   8.220   3.545  0.00  0.00    +0.000 C 
ATOM      5  C   UNL     1       4.060   8.987   3.226  0.00  0.00    +0.000 C 
ATOM      6  C   UNL     1       6.452   8.551   2.536  0.00  0.00    +0.000 C 
ATOM      7  C   UNL     1       5.968   8.407   1.107  0.00  0.00    +0.000 C 
ATOM      8  H   UNL     1       4.324   8.646  -0.209  0.00  0.00    +0.000 HD
ATOM      9  H   UNL     1       3.306   7.714   1.679  0.00  0.00    +0.000 HD
ATOM     10  H   UNL     1       2.654   9.317   1.615  0.00  0.00    +0.000 HD
ATOM     11  H   UNL     1       5.694   8.542   4.537  0.00  0.00    +0.000 HD
ATOM     12  H   UNL     1       4.225  10.058   3.395  0.00  0.00    +0.000 HD
ATOM     13  H   UNL     1       3.265   8.685   3.919  0.00  0.00    +0.000 HD
ATOM     14  H   UNL     1       7.319   7.898   2.685  0.00  0.00    +0.000 HD
ATOM     15  H   UNL     1       6.795   9.584   2.670  0.00  0.00    +0.000 HD
ENDROOT
BRANCH   4  16
ATOM     16  C   UNL     1       5.112   6.709   3.628  0.00  0.00    +0.000 C 
ATOM     17  H   UNL     1       5.238   6.353   4.655  0.00  0.00    +0.000 HD
ATOM     18  H   UNL     1       4.110   6.427   3.291  0.00  0.00    +0.000 HD
ATOM     19  H   UNL     1       5.834   6.175   3.001  0.00  0.00    +0.000 HD
ENDBRANCH   4  16
BRANCH   2  20
ATOM     20  C   UNL     1       4.882  10.582   0.556  0.00  0.00    +0.000 C 
ATOM     21  H   UNL     1       5.479  10.987   1.383  0.00  0.00    +0.000 HD
BRANCH  20  22
ATOM     22  C   UNL     1       5.665  10.853  -0.728  0.00  0.00    +0.000 C 
ATOM     23  H   UNL     1       5.611  10.002  -1.417  0.00  0.00    +0.000 HD
ATOM     24  H   UNL     1       5.260  11.727  -1.249  0.00  0.00    +0.000 HD
ATOM     25  H   UNL     1       6.719  11.067  -0.528  0.00  0.00    +0.000 HD
ENDBRANCH  20  22
BRANCH  20  26
ATOM     26  C   UNL     1       3.550  11.328   0.539  0.00  0.00    +0.000 C 
ATOM     27  H   UNL     1       3.583  12.229   1.163  0.00  0.00    +0.000 HD
ATOM     28  H   UNL     1       2.746  10.691   0.924  0.00  0.00    +0.000 HD
ATOM     29  H   UNL     1       3.252  11.612  -0.474  0.00  0.00    +0.000 HD
ENDBRANCH  20  26
ENDBRANCH   2  20
TORSDOF 4
ENDMDL
MODEL 2
REMARK VINA RESULT:    -5.063     13.956     15.173
REMARK INTER + INTRA:          -5.886
REMARK INTER:                  -5.743
REMARK INTRA:                  -0.143
REMARK UNBOUND:                -0.083
REMARK  Name = 26447
REMARK  4 active torsions:
REMARK  status: ('A' for Active; 'I' for Inactive)
REMARK    1  A    between atoms: C_2  and  C_6
REMARK    2  A    between atoms: C_4  and  C_9
REMARK    3  A    between atoms: C_6  and  C_10
REMARK    4  A    between atoms: C_6  and  C_11
REMARK                            x       y       z     vdW  Elec       q    Type
REMARK                         _______ _______ _______ _____ _____    ______ ____
ROOT
ATOM      1  O   UNL     1      -1.077  10.074 -10.097  0.00  0.00    +0.000 OA
ATOM      2  C   UNL     1      -0.961   8.554 -11.952  0.00  0.00    +0.000 C 
ATOM      3  C   UNL     1      -1.380   7.083 -11.993  0.00  0.00    +0.000 C 
ATOM      4  C   UNL     1      -3.540   7.586 -10.732  0.00  0.00    +0.000 C 
ATOM      5  C   UNL     1      -2.895   6.884 -11.936  0.00  0.00    +0.000 C 
ATOM      6  C   UNL     1      -3.169   9.069 -10.696  0.00  0.00    +0.000 C 
ATOM      7  C   UNL     1      -1.673   9.279 -10.822  0.00  0.00    +0.000 C 
ATOM      8  H   UNL     1       0.114   8.581 -11.724  0.00  0.00    +0.000 HD
ATOM      9  H   UNL     1      -0.939   6.582 -11.120  0.00  0.00    +0.000 HD
ATOM     10  H   UNL     1      -0.964   6.549 -12.851  0.00  0.00    +0.000 HD
ATOM     11  H   UNL     1      -4.629   7.513 -10.847  0.00  0.00    +0.000 HD
ATOM     12  H   UNL     1      -3.345   7.266 -12.860  0.00  0.00    +0.000 HD
ATOM     13  H   UNL     1      -3.118   5.810 -11.906  0.00  0.00    +0.000 HD
ATOM     14  H   UNL     1      -3.514   9.529  -9.763  0.00  0.00    +0.000 HD
ATOM     15  H   UNL     1      -3.652   9.605 -11.521  0.00  0.00    +0.000 HD
ENDROOT
BRANCH   4  16
ATOM     16  C   UNL     1      -3.188   6.894  -9.412  0.00  0.00    +0.000 C 
ATOM     17  H   UNL     1      -2.728   5.918  -9.596  0.00  0.00    +0.000 HD
ATOM     18  H   UNL     1      -2.497   7.486  -8.803  0.00  0.00    +0.000 HD
ATOM     19  H   UNL     1      -4.091   6.727  -8.816  0.00  0.00    +0.000 HD
ENDBRANCH   4  16
BRANCH   2  20
ATOM     20  C   UNL     1      -1.212   9.278 -13.272  0.00  0.00    +0.000 C 
ATOM     21  H   UNL     1      -2.290   9.381 -13.454  0.00  0.00    +0.000 HD
BRANCH  20  22
ATOM     22  C   UNL     1      -0.634  10.692 -13.230  0.00  0.00    +0.000 C 
ATOM     23  H   UNL     1       0.311  10.754 -13.782  0.00  0.00    +0.000 HD
ATOM     24  H   UNL     1      -1.330  11.407 -13.681  0.00  0.00    +0.000 HD
ATOM     25  H   UNL     1      -0.457  11.031 -12.205  0.00  0.00    +0.000 HD
ENDBRANCH  20  22
BRANCH  20  26
ATOM     26  C   UNL     1      -0.621   8.492 -14.439  0.00  0.00    +0.000 C 
ATOM     27  H   UNL     1      -0.913   8.919 -15.405  0.00  0.00    +0.000 HD
ATOM     28  H   UNL     1      -0.968   7.452 -14.420  0.00  0.00    +0.000 HD
ATOM     29  H   UNL     1       0.471   8.446 -14.391  0.00  0.00    +0.000 HD
ENDBRANCH  20  26
ENDBRANCH   2  20
TORSDOF 4
ENDMDL
MODEL 3
REMARK VINA RESULT:    -4.980      1.396      2.286
REMARK INTER + INTRA:          -5.790
REMARK INTER:                  -5.635
REMARK INTRA:                  -0.156
REMARK UNBOUND:                -0.083
REMARK  Name = 26447
REMARK  4 active torsions:
REMARK  status: ('A' for Active; 'I' for Inactive)
REMARK    1  A    between atoms: C_2  and  C_6
REMARK    2  A    between atoms: C_4  and  C_9
REMARK    3  A    between atoms: C_6  and  C_10
REMARK    4  A    between atoms: C_6  and  C_11
REMARK                            x       y       z     vdW  Elec       q    Type
REMARK                         _______ _______ _______ _____ _____    ______ ____
ROOT
ATOM      1  O   UNL     1       6.576   7.361   1.572  0.00  0.00    +0.000 OA
ATOM      2  C   UNL     1       5.893   9.223   0.218  0.00  0.00    +0.000 C 
ATOM      3  C   UNL     1       4.470   9.693  -0.089  0.00  0.00    +0.000 C 
ATOM      4  C   UNL     1       3.768   9.404   2.346  0.00  0.00    +0.000 C 
ATOM      5  C   UNL     1       3.766  10.320   1.115  0.00  0.00    +0.000 C 
ATOM      6  C   UNL     1       5.187   8.957   2.698  0.00  0.00    +0.000 C 
ATOM      7  C   UNL     1       5.916   8.397   1.494  0.00  0.00    +0.000 C 
ATOM      8  H   UNL     1       6.202   8.558  -0.601  0.00  0.00    +0.000 HD
ATOM      9  H   UNL     1       3.886   8.816  -0.404  0.00  0.00    +0.000 HD
ATOM     10  H   UNL     1       4.424  10.371  -0.946  0.00  0.00    +0.000 HD
ATOM     11  H   UNL     1       3.376   9.982   3.193  0.00  0.00    +0.000 HD
ATOM     12  H   UNL     1       4.259  11.267   1.368  0.00  0.00    +0.000 HD
ATOM     13  H   UNL     1       2.735  10.574   0.839  0.00  0.00    +0.000 HD
ATOM     14  H   UNL     1       5.166   8.195   3.486  0.00  0.00    +0.000 HD
ATOM     15  H   UNL     1       5.771   9.803   3.079  0.00  0.00    +0.000 HD
ENDROOT
BRANCH   4  16
ATOM     16  C   UNL     1       2.837   8.200   2.164  0.00  0.00    +0.000 C 
ATOM     17  H   UNL     1       3.012   7.718   1.197  0.00  0.00    +0.000 HD
ATOM     18  H   UNL     1       2.971   7.449   2.948  0.00  0.00    +0.000 HD
ATOM     19  H   UNL     1       1.790   8.520   2.189  0.00  0.00    +0.000 HD
ENDBRANCH   4  16
BRANCH   2  20
ATOM     20  C   UNL     1       6.885  10.377   0.330  0.00  0.00    +0.000 C 
ATOM     21  H   UNL     1       6.711  10.945   1.253  0.00  0.00    +0.000 HD
BRANCH  20  22
ATOM     22  C   UNL     1       8.318   9.851   0.399  0.00  0.00    +0.000 C 
ATOM     23  H   UNL     1       8.592   9.317  -0.518  0.00  0.00    +0.000 HD
ATOM     24  H   UNL     1       9.027  10.676   0.526  0.00  0.00    +0.000 HD
ATOM     25  H   UNL     1       8.466   9.176   1.247  0.00  0.00    +0.000 HD
ENDBRANCH  20  22
BRANCH  20  26
ATOM     26  C   UNL     1       6.724  11.341  -0.842  0.00  0.00    +0.000 C 
ATOM     27  H   UNL     1       5.725  11.791  -0.863  0.00  0.00    +0.000 HD
ATOM     28  H   UNL     1       6.870  10.819  -1.794  0.00  0.00    +0.000 HD
ATOM     29  H   UNL     1       7.469  12.142  -0.819  0.00  0.00    +0.000 HD
ENDBRANCH  20  26
ENDBRANCH   2  20
TORSDOF 4
ENDMDL
MODEL 4
REMARK VINA RESULT:    -4.931     14.099     15.501
REMARK INTER + INTRA:          -5.734
REMARK INTER:                  -5.599
REMARK INTRA:                  -0.135
REMARK UNBOUND:                -0.083
REMARK  Name = 26447
REMARK  4 active torsions:
REMARK  status: ('A' for Active; 'I' for Inactive)
REMARK    1  A    between atoms: C_2  and  C_6
REMARK    2  A    between atoms: C_4  and  C_9
REMARK    3  A    between atoms: C_6  and  C_10
REMARK    4  A    between atoms: C_6  and  C_11
REMARK                            x       y       z     vdW  Elec       q    Type
REMARK                         _______ _______ _______ _____ _____    ______ ____
ROOT
ATOM      1  O   UNL     1      -3.179   8.325 -13.200  0.00  0.00    +0.000 OA
ATOM      2  C   UNL     1      -3.581   7.185 -11.125  0.00  0.00    +0.000 C 
ATOM      3  C   UNL     1      -2.776   7.279  -9.827  0.00  0.00    +0.000 C 
ATOM      4  C   UNL     1      -2.620   9.818 -10.019  0.00  0.00    +0.000 C 
ATOM      5  C   UNL     1      -2.936   8.621  -9.112  0.00  0.00    +0.000 C 
ATOM      6  C   UNL     1      -3.446   9.768 -11.305  0.00  0.00    +0.000 C 
ATOM      7  C   UNL     1      -3.348   8.417 -11.985  0.00  0.00    +0.000 C 
ATOM      8  H   UNL     1      -3.195   6.323 -11.687  0.00  0.00    +0.000 HD
ATOM      9  H   UNL     1      -1.714   7.154 -10.079  0.00  0.00    +0.000 HD
ATOM     10  H   UNL     1      -2.990   6.459  -9.137  0.00  0.00    +0.000 HD
ATOM     11  H   UNL     1      -2.896  10.731  -9.476  0.00  0.00    +0.000 HD
ATOM     12  H   UNL     1      -3.964   8.712  -8.739  0.00  0.00    +0.000 HD
ATOM     13  H   UNL     1      -2.287   8.640  -8.228  0.00  0.00    +0.000 HD
ATOM     14  H   UNL     1      -3.115  10.542 -12.006  0.00  0.00    +0.000 HD
ATOM     15  H   UNL     1      -4.504   9.956 -11.088  0.00  0.00    +0.000 HD
ENDROOT
BRANCH   4  16
ATOM     16  C   UNL     1      -1.123   9.922 -10.327  0.00  0.00    +0.000 C 
ATOM     17  H   UNL     1      -0.945   9.887 -11.406  0.00  0.00    +0.000 HD
ATOM     18  H   UNL     1      -0.682  10.846  -9.940  0.00  0.00    +0.000 HD
ATOM     19  H   UNL     1      -0.582   9.084  -9.875  0.00  0.00    +0.000 HD
ENDBRANCH   4  16
BRANCH   2  20
ATOM     20  C   UNL     1      -5.076   6.998 -10.882  0.00  0.00    +0.000 C 
ATOM     21  H   UNL     1      -5.567   7.969 -10.742  0.00  0.00    +0.000 HD
BRANCH  20  22
ATOM     22  C   UNL     1      -5.739   6.336 -12.090  0.00  0.00    +0.000 C 
ATOM     23  H   UNL     1      -5.516   5.264 -12.130  0.00  0.00    +0.000 HD
ATOM     24  H   UNL     1      -6.827   6.447 -12.041  0.00  0.00    +0.000 HD
ATOM     25  H   UNL     1      -5.419   6.791 -13.032  0.00  0.00    +0.000 HD
ENDBRANCH  20  22
BRANCH  20  26
ATOM     26  C   UNL     1      -5.317   6.173  -9.620  0.00  0.00    +0.000 C 
ATOM     27  H   UNL     1      -4.538   5.416  -9.476  0.00  0.00    +0.000 HD
ATOM     28  H   UNL     1      -6.278   5.650  -9.679  0.00  0.00    +0.000 HD
ATOM     29  H   UNL     1      -5.368   6.800  -8.725  0.00  0.00    +0.000 HD
ENDBRANCH  20  26
ENDBRANCH   2  20
TORSDOF 4
ENDMDL
MODEL 5
REMARK VINA RESULT:    -4.739     20.649     22.382
REMARK INTER + INTRA:          -5.515
REMARK INTER:                  -5.382
REMARK INTRA:                  -0.133
REMARK UNBOUND:                -0.083
REMARK  Name = 26447
REMARK  4 active torsions:
REMARK  status: ('A' for Active; 'I' for Inactive)
REMARK    1  A    between atoms: C_2  and  C_6
REMARK    2  A    between atoms: C_4  and  C_9
REMARK    3  A    between atoms: C_6  and  C_10
REMARK    4  A    between atoms: C_6  and  C_11
REMARK                            x       y       z     vdW  Elec       q    Type
REMARK                         _______ _______ _______ _____ _____    ______ ____
ROOT
ATOM      1  O   UNL     1     -10.687  12.202  18.235  0.00  0.00    +0.000 OA
ATOM      2  C   UNL     1     -10.193   9.852  18.231  0.00  0.00    +0.000 C 
ATOM      3  C   UNL     1      -9.397   9.058  17.193  0.00  0.00    +0.000 C 
ATOM      4  C   UNL     1      -7.599  10.865  17.079  0.00  0.00    +0.000 C 
ATOM      5  C   UNL     1      -7.899   9.366  17.214  0.00  0.00    +0.000 C 
ATOM      6  C   UNL     1      -8.351  11.675  18.136  0.00  0.00    +0.000 C 
ATOM      7  C   UNL     1      -9.826  11.326  18.169  0.00  0.00    +0.000 C 
ATOM      8  H   UNL     1     -11.255   9.774  17.959  0.00  0.00    +0.000 HD
ATOM      9  H   UNL     1      -9.783   9.323  16.198  0.00  0.00    +0.000 HD
ATOM     10  H   UNL     1      -9.560   7.980  17.269  0.00  0.00    +0.000 HD
ATOM     11  H   UNL     1      -6.524  11.007  17.247  0.00  0.00    +0.000 HD
ATOM     12  H   UNL     1      -7.467   8.995  18.152  0.00  0.00    +0.000 HD
ATOM     13  H   UNL     1      -7.404   8.811  16.407  0.00  0.00    +0.000 HD
ATOM     14  H   UNL     1      -8.245  12.749  17.946  0.00  0.00    +0.000 HD
ATOM     15  H   UNL     1      -7.940  11.478  19.133  0.00  0.00    +0.000 HD
ENDROOT
BRANCH   4  16
ATOM     16  C   UNL     1      -7.899  11.382  15.669  0.00  0.00    +0.000 C 
ATOM     17  H   UNL     1      -7.139  11.037  14.960  0.00  0.00    +0.000 HD
ATOM     18  H   UNL     1      -8.877  11.055  15.304  0.00  0.00    +0.000 HD
ATOM     19  H   UNL     1      -7.891  12.477  15.655  0.00  0.00    +0.000 HD
ENDBRANCH   4  16
BRANCH   2  20
ATOM     20  C   UNL     1      -9.998   9.330  19.651  0.00  0.00    +0.000 C 
ATOM     21  H   UNL     1      -9.113   9.787  20.112  0.00  0.00    +0.000 HD
BRANCH  20  22
ATOM     22  C   UNL     1     -11.194   9.698  20.530  0.00  0.00    +0.000 C 
ATOM     23  H   UNL     1     -11.843  10.428  20.034  0.00  0.00    +0.000 HD
ATOM     24  H   UNL     1     -11.798   8.812  20.750  0.00  0.00    +0.000 HD
ATOM     25  H   UNL     1     -10.881  10.112  21.493  0.00  0.00    +0.000 HD
ENDBRANCH  20  22
BRANCH  20  26
ATOM     26  C   UNL     1      -9.784   7.818  19.645  0.00  0.00    +0.000 C 
ATOM     27  H   UNL     1     -10.657   7.287  19.249  0.00  0.00    +0.000 HD
ATOM     28  H   UNL     1      -9.608   7.449  20.661  0.00  0.00    +0.000 HD
ATOM     29  H   UNL     1      -8.904   7.532  19.062  0.00  0.00    +0.000 HD
ENDBRANCH  20  26
ENDBRANCH   2  20
TORSDOF 4
ENDMDL
MODEL 6
REMARK VINA RESULT:    -4.627     13.747     14.997
REMARK INTER + INTRA:          -5.387
REMARK INTER:                  -5.301
REMARK INTRA:                  -0.085
REMARK UNBOUND:                -0.083
REMARK  Name = 26447
REMARK  4 active torsions:
REMARK  status: ('A' for Active; 'I' for Inactive)
REMARK    1  A    between atoms: C_2  and  C_6
REMARK    2  A    between atoms: C_4  and  C_9
REMARK    3  A    between atoms: C_6  and  C_10
REMARK    4  A    between atoms: C_6  and  C_11
REMARK                            x       y       z     vdW  Elec       q    Type
REMARK                         _______ _______ _______ _____ _____    ______ ____
ROOT
ATOM      1  O   UNL     1      -4.378   7.786 -12.735  0.00  0.00    +0.000 OA
ATOM      2  C   UNL     1      -3.137   9.256 -11.298  0.00  0.00    +0.000 C 
ATOM      3  C   UNL     1      -3.192   9.351  -9.772  0.00  0.00    +0.000 C 
ATOM      4  C   UNL     1      -3.157   6.811  -9.538  0.00  0.00    +0.000 C 
ATOM      5  C   UNL     1      -2.565   8.147  -9.068  0.00  0.00    +0.000 C 
ATOM      6  C   UNL     1      -3.073   6.676 -11.059  0.00  0.00    +0.000 C 
ATOM      7  C   UNL     1      -3.629   7.896 -11.765  0.00  0.00    +0.000 C 
ATOM      8  H   UNL     1      -3.835  10.005 -11.698  0.00  0.00    +0.000 HD
ATOM      9  H   UNL     1      -4.249   9.404  -9.476  0.00  0.00    +0.000 HD
ATOM     10  H   UNL     1      -2.756  10.278  -9.390  0.00  0.00    +0.000 HD
ATOM     11  H   UNL     1      -2.558   6.005  -9.094  0.00  0.00    +0.000 HD
ATOM     12  H   UNL     1      -1.483   8.145  -9.248  0.00  0.00    +0.000 HD
ATOM     13  H   UNL     1      -2.696   8.253  -7.984  0.00  0.00    +0.000 HD
ATOM     14  H   UNL     1      -3.621   5.790 -11.398  0.00  0.00    +0.000 HD
ATOM     15  H   UNL     1      -2.030   6.554 -11.375  0.00  0.00    +0.000 HD
ENDROOT
BRANCH   4  16
ATOM     16  C   UNL     1      -4.594   6.617  -9.044  0.00  0.00    +0.000 C 
ATOM     17  H   UNL     1      -4.609   6.060  -8.102  0.00  0.00    +0.000 HD
ATOM     18  H   UNL     1      -5.111   7.569  -8.884  0.00  0.00    +0.000 HD
ATOM     19  H   UNL     1      -5.175   6.046  -9.775  0.00  0.00    +0.000 HD
ENDBRANCH   4  16
BRANCH   2  20
ATOM     20  C   UNL     1      -1.742   9.522 -11.857  0.00  0.00    +0.000 C 
ATOM     21  H   UNL     1      -1.185   8.582 -11.966  0.00  0.00    +0.000 HD
BRANCH  20  22
ATOM     22  C   UNL     1      -1.829  10.147 -13.249  0.00  0.00    +0.000 C 
ATOM     23  H   UNL     1      -2.067   9.395 -14.010  0.00  0.00    +0.000 HD
ATOM     24  H   UNL     1      -2.612  10.911 -13.281  0.00  0.00    +0.000 HD
ATOM     25  H   UNL     1      -0.896  10.642 -13.534  0.00  0.00    +0.000 HD
ENDBRANCH  20  22
BRANCH  20  26
ATOM     26  C   UNL     1      -0.946  10.422 -10.915  0.00  0.00    +0.000 C 
ATOM     27  H   UNL     1      -1.171  10.207  -9.864  0.00  0.00    +0.000 HD
ATOM     28  H   UNL     1      -1.186  11.476 -11.094  0.00  0.00    +0.000 HD
ATOM     29  H   UNL     1       0.132  10.326 -11.070  0.00  0.00    +0.000 HD
ENDBRANCH  20  26
ENDBRANCH   2  20
TORSDOF 4
ENDMDL
MODEL 7
REMARK VINA RESULT:    -4.564     16.469     17.900
REMARK INTER + INTRA:          -5.314
REMARK INTER:                  -5.167
REMARK INTRA:                  -0.147
REMARK UNBOUND:                -0.083
REMARK  Name = 26447
REMARK  4 active torsions:
REMARK  status: ('A' for Active; 'I' for Inactive)
REMARK    1  A    between atoms: C_2  and  C_6
REMARK    2  A    between atoms: C_4  and  C_9
REMARK    3  A    between atoms: C_6  and  C_10
REMARK    4  A    between atoms: C_6  and  C_11
REMARK                            x       y       z     vdW  Elec       q    Type
REMARK                         _______ _______ _______ _____ _____    ______ ____
ROOT
ATOM      1  O   UNL     1     -12.539   5.811  -6.904  0.00  0.00    +0.000 OA
ATOM      2  C   UNL     1     -10.242   5.280  -6.444  0.00  0.00    +0.000 C 
ATOM      3  C   UNL     1      -9.011   6.167  -6.642  0.00  0.00    +0.000 C 
ATOM      4  C   UNL     1     -10.209   8.181  -5.632  0.00  0.00    +0.000 C 
ATOM      5  C   UNL     1      -8.935   7.325  -5.646  0.00  0.00    +0.000 C 
ATOM      6  C   UNL     1     -11.449   7.319  -5.392  0.00  0.00    +0.000 C 
ATOM      7  C   UNL     1     -11.497   6.129  -6.330  0.00  0.00    +0.000 C 
ATOM      8  H   UNL     1     -10.351   4.666  -7.349  0.00  0.00    +0.000 HD
ATOM      9  H   UNL     1      -9.062   6.593  -7.653  0.00  0.00    +0.000 HD
ATOM     10  H   UNL     1      -8.076   5.602  -6.632  0.00  0.00    +0.000 HD
ATOM     11  H   UNL     1     -10.125   8.891  -4.799  0.00  0.00    +0.000 HD
ATOM     12  H   UNL     1      -8.757   6.926  -4.640  0.00  0.00    +0.000 HD
ATOM     13  H   UNL     1      -8.066   7.951  -5.886  0.00  0.00    +0.000 HD
ATOM     14  H   UNL     1     -12.361   7.911  -5.524  0.00  0.00    +0.000 HD
ATOM     15  H   UNL     1     -11.455   6.935  -4.365  0.00  0.00    +0.000 HD
ENDROOT
BRANCH   4  16
ATOM     16  C   UNL     1     -10.352   9.013  -6.910  0.00  0.00    +0.000 C 
ATOM     17  H   UNL     1      -9.967   8.464  -7.775  0.00  0.00    +0.000 HD
ATOM     18  H   UNL     1     -11.392   9.285  -7.116  0.00  0.00    +0.000 HD
ATOM     19  H   UNL     1      -9.779   9.943  -6.826  0.00  0.00    +0.000 HD
ENDBRANCH   4  16
BRANCH   2  20
ATOM     20  C   UNL     1     -10.123   4.365  -5.228  0.00  0.00    +0.000 C 
ATOM     21  H   UNL     1     -10.414   4.900  -4.315  0.00  0.00    +0.000 HD
BRANCH  20  22
ATOM     22  C   UNL     1     -11.064   3.169  -5.360  0.00  0.00    +0.000 C 
ATOM     23  H   UNL     1     -10.550   2.229  -5.128  0.00  0.00    +0.000 HD
ATOM     24  H   UNL     1     -11.908   3.264  -4.668  0.00  0.00    +0.000 HD
ATOM     25  H   UNL     1     -11.489   3.090  -6.365  0.00  0.00    +0.000 HD
ENDBRANCH  20  22
BRANCH  20  26
ATOM     26  C   UNL     1      -8.681   3.896  -5.047  0.00  0.00    +0.000 C 
ATOM     27  H   UNL     1      -8.633   2.911  -4.568  0.00  0.00    +0.000 HD
ATOM     28  H   UNL     1      -8.124   4.596  -4.415  0.00  0.00    +0.000 HD
ATOM     29  H   UNL     1      -8.142   3.851  -5.998  0.00  0.00    +0.000 HD
ENDBRANCH  20  26
ENDBRANCH   2  20
TORSDOF 4
ENDMDL
MODEL 8
REMARK VINA RESULT:    -4.533      2.035      3.962
REMARK INTER + INTRA:          -5.278
REMARK INTER:                  -5.840
REMARK INTRA:                   0.562
REMARK UNBOUND:                -0.083
REMARK  Name = 26447
REMARK  4 active torsions:
REMARK  status: ('A' for Active; 'I' for Inactive)
REMARK    1  A    between atoms: C_2  and  C_6
REMARK    2  A    between atoms: C_4  and  C_9
REMARK    3  A    between atoms: C_6  and  C_10
REMARK    4  A    between atoms: C_6  and  C_11
REMARK                            x       y       z     vdW  Elec       q    Type
REMARK                         _______ _______ _______ _____ _____    ______ ____
ROOT
ATOM      1  O   UNL     1       6.599   7.642  -0.405  0.00  0.00    +0.000 OA
ATOM      2  C   UNL     1       7.292   9.881  -0.929  0.00  0.00    +0.000 C 
ATOM      3  C   UNL     1       6.411  11.087  -1.263  0.00  0.00    +0.000 C 
ATOM      4  C   UNL     1       4.800  10.531   0.636  0.00  0.00    +0.000 C 
ATOM      5  C   UNL     1       5.631  11.618  -0.060  0.00  0.00    +0.000 C 
ATOM      6  C   UNL     1       5.671   9.333   1.018  0.00  0.00    +0.000 C 
ATOM      7  C   UNL     1       6.500   8.842  -0.152  0.00  0.00    +0.000 C 
ATOM      8  H   UNL     1       7.584   9.416  -1.881  0.00  0.00    +0.000 HD
ATOM      9  H   UNL     1       5.684  10.772  -2.025  0.00  0.00    +0.000 HD
ATOM     10  H   UNL     1       6.967  11.899  -1.737  0.00  0.00    +0.000 HD
ATOM     11  H   UNL     1       4.393  10.961   1.560  0.00  0.00    +0.000 HD
ATOM     12  H   UNL     1       6.333  12.053   0.662  0.00  0.00    +0.000 HD
ATOM     13  H   UNL     1       4.977  12.437  -0.385  0.00  0.00    +0.000 HD
ATOM     14  H   UNL     1       5.050   8.507   1.383  0.00  0.00    +0.000 HD
ATOM     15  H   UNL     1       6.361   9.603   1.826  0.00  0.00    +0.000 HD
ENDROOT
BRANCH   4  16
ATOM     16  C   UNL     1       3.602  10.095  -0.215  0.00  0.00    +0.000 C 
ATOM     17  H   UNL     1       3.894   9.975  -1.263  0.00  0.00    +0.000 HD
ATOM     18  H   UNL     1       3.170   9.150   0.128  0.00  0.00    +0.000 HD
ATOM     19  H   UNL     1       2.812  10.853  -0.176  0.00  0.00    +0.000 HD
ENDBRANCH   4  16
BRANCH   2  20
ATOM     20  C   UNL     1       8.547  10.264  -0.151  0.00  0.00    +0.000 C 
ATOM     21  H   UNL     1       8.635  11.355  -0.075  0.00  0.00    +0.000 HD
BRANCH  20  22
ATOM     22  C   UNL     1       8.481   9.725   1.278  0.00  0.00    +0.000 C 
ATOM     23  H   UNL     1       8.826  10.471   2.002  0.00  0.00    +0.000 HD
ATOM     24  H   UNL     1       7.453   9.457   1.541  0.00  0.00    +0.000 HD
ATOM     25  H   UNL     1       9.083   8.820   1.402  0.00  0.00    +0.000 HD
ENDBRANCH  20  22
BRANCH  20  26
ATOM     26  C   UNL     1       9.798   9.750  -0.860  0.00  0.00    +0.000 C 
ATOM     27  H   UNL     1      10.138   8.796  -0.441  0.00  0.00    +0.000 HD
ATOM     28  H   UNL     1      10.621  10.467  -0.757  0.00  0.00    +0.000 HD
ATOM     29  H   UNL     1       9.638   9.626  -1.935  0.00  0.00    +0.000 HD
ENDBRANCH  20  26
ENDBRANCH   2  20
TORSDOF 4
ENDMDL
MODEL 9
REMARK VINA RESULT:    -4.490     13.677     15.050
REMARK INTER + INTRA:          -5.229
REMARK INTER:                  -5.086
REMARK INTRA:                  -0.143
REMARK UNBOUND:                -0.083
REMARK  Name = 26447
REMARK  4 active torsions:
REMARK  status: ('A' for Active; 'I' for Inactive)
REMARK    1  A    between atoms: C_2  and  C_6
REMARK    2  A    between atoms: C_4  and  C_9
REMARK    3  A    between atoms: C_6  and  C_10
REMARK    4  A    between atoms: C_6  and  C_11
REMARK                            x       y       z     vdW  Elec       q    Type
REMARK                         _______ _______ _______ _____ _____    ______ ____
ROOT
ATOM      1  O   UNL     1      -8.640  13.755   8.233  0.00  0.00    +0.000 OA
ATOM      2  C   UNL     1      -8.874  11.607   7.185  0.00  0.00    +0.000 C 
ATOM      3  C   UNL     1      -8.921  11.287   5.690  0.00  0.00    +0.000 C 
ATOM      4  C   UNL     1      -6.978  12.870   5.213  0.00  0.00    +0.000 C 
ATOM      5  C   UNL     1      -7.576  11.474   4.988  0.00  0.00    +0.000 C 
ATOM      6  C   UNL     1      -6.881  13.193   6.705  0.00  0.00    +0.000 C 
ATOM      7  C   UNL     1      -8.193  12.945   7.422  0.00  0.00    +0.000 C 
ATOM      8  H   UNL     1      -9.912  11.709   7.531  0.00  0.00    +0.000 HD
ATOM      9  H   UNL     1      -9.645  11.970   5.222  0.00  0.00    +0.000 HD
ATOM     10  H   UNL     1      -9.317  10.289   5.482  0.00  0.00    +0.000 HD
ATOM     11  H   UNL     1      -5.961  12.869   4.801  0.00  0.00    +0.000 HD
ATOM     12  H   UNL     1      -6.870  10.717   5.351  0.00  0.00    +0.000 HD
ATOM     13  H   UNL     1      -7.699  11.290   3.914  0.00  0.00    +0.000 HD
ATOM     14  H   UNL     1      -6.588  14.239   6.854  0.00  0.00    +0.000 HD
ATOM     15  H   UNL     1      -6.116  12.570   7.182  0.00  0.00    +0.000 HD
ENDROOT
BRANCH   4  16
ATOM     16  C   UNL     1      -7.759  13.954   4.462  0.00  0.00    +0.000 C 
ATOM     17  H   UNL     1      -8.684  13.546   4.044  0.00  0.00    +0.000 HD
ATOM     18  H   UNL     1      -8.020  14.800   5.105  0.00  0.00    +0.000 HD
ATOM     19  H   UNL     1      -7.164  14.344   3.629  0.00  0.00    +0.000 HD
ENDBRANCH   4  16
BRANCH   2  20
ATOM     20  C   UNL     1      -8.178  10.520   8.000  0.00  0.00    +0.000 C 
ATOM     21  H   UNL     1      -7.106  10.491   7.767  0.00  0.00    +0.000 HD
BRANCH  20  22
ATOM     22  C   UNL     1      -8.297  10.808   9.496  0.00  0.00    +0.000 C 
ATOM     23  H   UNL     1      -8.273   9.884  10.084  0.00  0.00    +0.000 HD
ATOM     24  H   UNL     1      -7.468  11.438   9.835  0.00  0.00    +0.000 HD
ATOM     25  H   UNL     1      -9.218  11.347   9.737  0.00  0.00    +0.000 HD
ENDBRANCH  20  22
BRANCH  20  26
ATOM     26  C   UNL     1      -8.757   9.146   7.672  0.00  0.00    +0.000 C 
ATOM     27  H   UNL     1      -9.759   9.223   7.234  0.00  0.00    +0.000 HD
ATOM     28  H   UNL     1      -8.840   8.536   8.578  0.00  0.00    +0.000 HD
ATOM     29  H   UNL     1      -8.116   8.584   6.986  0.00  0.00    +0.000 HD
ENDBRANCH  20  26
ENDBRANCH   2  20
TORSDOF 4
ENDMDL
MODEL 10
REMARK VINA RESULT:    -4.329     14.792     16.338
REMARK INTER + INTRA:          -5.045
REMARK INTER:                  -4.962
REMARK INTRA:                  -0.083
REMARK UNBOUND:                -0.083
REMARK  Name = 26447
REMARK  4 active torsions:
REMARK  status: ('A' for Active; 'I' for Inactive)
REMARK    1  A    between atoms: C_2  and  C_6
REMARK    2  A    between atoms: C_4  and  C_9
REMARK    3  A    between atoms: C_6  and  C_10
REMARK    4  A    between atoms: C_6  and  C_11
REMARK                            x       y       z     vdW  Elec       q    Type
REMARK                         _______ _______ _______ _____ _____    ______ ____
ROOT
ATOM      1  O   UNL     1      -3.916   8.176 -14.302  0.00  0.00    +0.000 OA
ATOM      2  C   UNL     1      -2.892   7.129 -12.398  0.00  0.00    +0.000 C 
ATOM      3  C   UNL     1      -1.400   6.981 -12.093  0.00  0.00    +0.000 C 
ATOM      4  C   UNL     1      -0.944   9.397 -12.773  0.00  0.00    +0.000 C 
ATOM      5  C   UNL     1      -0.724   8.301 -11.721  0.00  0.00    +0.000 C 
ATOM      6  C   UNL     1      -2.433   9.593 -13.062  0.00  0.00    +0.000 C 
ATOM      7  C   UNL     1      -3.125   8.279 -13.364  0.00  0.00    +0.000 C 
ATOM      8  H   UNL     1      -3.214   6.211 -12.908  0.00  0.00    +0.000 HD
ATOM      9  H   UNL     1      -0.909   6.592 -12.996  0.00  0.00    +0.000 HD
ATOM     10  H   UNL     1      -1.198   6.227 -11.328  0.00  0.00    +0.000 HD
ATOM     11  H   UNL     1      -0.553  10.337 -12.363  0.00  0.00    +0.000 HD
ATOM     12  H   UNL     1      -1.112   8.645 -10.755  0.00  0.00    +0.000 HD
ATOM     13  H   UNL     1       0.350   8.130 -11.578  0.00  0.00    +0.000 HD
ATOM     14  H   UNL     1      -2.574  10.272 -13.910  0.00  0.00    +0.000 HD
ATOM     15  H   UNL     1      -2.934  10.043 -12.197  0.00  0.00    +0.000 HD
ENDROOT
BRANCH   4  16
ATOM     16  C   UNL     1      -0.162   9.118 -14.061  0.00  0.00    +0.000 C 
ATOM     17  H   UNL     1       0.276   8.115 -14.039  0.00  0.00    +0.000 HD
ATOM     18  H   UNL     1      -0.790   9.194 -14.954  0.00  0.00    +0.000 HD
ATOM     19  H   UNL     1       0.658   9.834 -14.172  0.00  0.00    +0.000 HD
ENDBRANCH   4  16
BRANCH   2  20
ATOM     20  C   UNL     1      -3.735   7.329 -11.142  0.00  0.00    +0.000 C 
ATOM     21  H   UNL     1      -3.869   8.398 -10.934  0.00  0.00    +0.000 HD
BRANCH  20  22
ATOM     22  C   UNL     1      -5.132   6.737 -11.331  0.00  0.00    +0.000 C 
ATOM     23  H   UNL     1      -5.636   7.173 -12.201  0.00  0.00    +0.000 HD
ATOM     24  H   UNL     1      -5.074   5.655 -11.488  0.00  0.00    +0.000 HD
ATOM     25  H   UNL     1      -5.764   6.894 -10.452  0.00  0.00    +0.000 HD
ENDBRANCH  20  22
BRANCH  20  26
ATOM     26  C   UNL     1      -3.049   6.706  -9.929  0.00  0.00    +0.000 C 
ATOM     27  H   UNL     1      -3.208   7.303  -9.023  0.00  0.00    +0.000 HD
ATOM     28  H   UNL     1      -1.968   6.636 -10.091  0.00  0.00    +0.000 HD
ATOM     29  H   UNL     1      -3.394   5.685  -9.742  0.00  0.00    +0.000 HD
ENDBRANCH  20  26
ENDBRANCH   2  20
TORSDOF 4
ENDMDL
