MODEL 1
REMARK VINA RESULT:    -5.728      0.000      0.000
REMARK INTER + INTRA:          -8.165
REMARK INTER:                  -7.738
REMARK INTRA:                  -0.427
REMARK UNBOUND:                -0.428
REMARK  Name = 605629
REMARK  8 active torsions:
REMARK  status: ('A' for Active; 'I' for Inactive)
REMARK    1  A    between atoms: O_1  and  C_14
REMARK    2  A    between atoms: O_1  and  C_15
REMARK    3  A    between atoms: C_3  and  C_4
REMARK    4  A    between atoms: C_3  and  C_5
REMARK    5  A    between atoms: C_3  and  C_6
REMARK    6  A    between atoms: C_3  and  C_7
REMARK    7  A    between atoms: C_10  and  C_13
REMARK    8  A    between atoms: C_13  and  C_14
REMARK                            x       y       z     vdW  Elec       q    Type
REMARK                         _______ _______ _______ _____ _____    ______ ____
ROOT
ATOM      1  C   UNL     1       6.794   8.424   3.235  0.00  0.00    +0.000 A 
ATOM      2  C   UNL     1       7.857   9.209   2.867  0.00  0.00    +0.000 A 
ATOM      3  C   UNL     1       5.975   7.791   2.333  0.00  0.00    +0.000 A 
ATOM      4  C   UNL     1       7.312   8.743   0.560  0.00  0.00    +0.000 A 
ATOM      5  C   UNL     1       8.121   9.371   1.507  0.00  0.00    +0.000 A 
ATOM      6  C   UNL     1       6.239   7.953   0.973  0.00  0.00    +0.000 A 
ATOM      7  H   UNL     1       8.500   9.707   3.585  0.00  0.00    +0.000 HD
ATOM      8  H   UNL     1       5.131   7.168   2.597  0.00  0.00    +0.000 HD
ATOM      9  H   UNL     1       8.959   9.991   1.198  0.00  0.00    +0.000 HD
ATOM     10  H   UNL     1       5.600   7.461   0.245  0.00  0.00    +0.000 HD
ENDROOT
BRANCH   4  11
ATOM     11  C   UNL     1       7.593   8.918  -0.894  0.00  0.00    +0.000 C 
ATOM     12  H   UNL     1       8.434   8.278  -1.189  0.00  0.00    +0.000 HD
ATOM     13  H   UNL     1       6.721   8.600  -1.478  0.00  0.00    +0.000 HD
BRANCH  11  15
ATOM     14  O   UNL     1       7.138  11.280  -1.256  0.00  0.00    +0.000 OA
ATOM     15  C   UNL     1       7.927  10.346  -1.278  0.00  0.00    +0.000 C 
BRANCH  15  16
ATOM     16  O   UNL     1       9.242  10.419  -1.647  0.00  0.00    +0.000 OA
BRANCH  16  17
ATOM     17  C   UNL     1       9.926   9.166  -1.747  0.00  0.00    +0.000 C 
ATOM     18  H   UNL     1      10.991   9.330  -1.936  0.00  0.00    +0.000 HD
ATOM     19  H   UNL     1       9.482   8.556  -2.539  0.00  0.00    +0.000 HD
ATOM     20  H   UNL     1       9.815   8.640  -0.795  0.00  0.00    +0.000 HD
ENDBRANCH  16  17
ENDBRANCH  15  16
ENDBRANCH  11  15
ENDBRANCH   4  11
BRANCH   1  21
ATOM     21  C   UNL     1       6.502   8.245   4.734  0.00  0.00    +0.000 C 
BRANCH  21  22
ATOM     22  C   UNL     1       7.517   9.063   5.562  0.00  0.00    +0.000 C 
ATOM     23  H   UNL     1       7.061   9.440   6.485  0.00  0.00    +0.000 HD
ATOM     24  H   UNL     1       8.390   8.472   5.857  0.00  0.00    +0.000 HD
ATOM     25  H   UNL     1       7.882   9.929   4.995  0.00  0.00    +0.000 HD
ENDBRANCH  21  22
BRANCH  21  26
ATOM     26  C   UNL     1       6.626   6.752   5.113  0.00  0.00    +0.000 C 
ATOM     27  H   UNL     1       7.563   6.529   5.632  0.00  0.00    +0.000 HD
ATOM     28  H   UNL     1       5.812   6.446   5.780  0.00  0.00    +0.000 HD
ATOM     29  H   UNL     1       6.583   6.115   4.222  0.00  0.00    +0.000 HD
ENDBRANCH  21  26
BRANCH  21  30
ATOM     30  C   UNL     1       5.090   8.706   5.157  0.00  0.00    +0.000 C 
ATOM     31  H   UNL     1       4.568   9.180   4.316  0.00  0.00    +0.000 HD
ATOM     32  H   UNL     1       4.463   7.866   5.479  0.00  0.00    +0.000 HD
ATOM     33  H   UNL     1       5.123   9.449   5.962  0.00  0.00    +0.000 HD
ENDBRANCH  21  30
ENDBRANCH   1  21
TORSDOF 8
ENDMDL
MODEL 2
REMARK VINA RESULT:    -5.614      2.266      3.844
REMARK INTER + INTRA:          -8.012
REMARK INTER:                  -7.525
REMARK INTRA:                  -0.486
REMARK UNBOUND:                -0.428
REMARK  Name = 605629
REMARK  8 active torsions:
REMARK  status: ('A' for Active; 'I' for Inactive)
REMARK    1  A    between atoms: O_1  and  C_14
REMARK    2  A    between atoms: O_1  and  C_15
REMARK    3  A    between atoms: C_3  and  C_4
REMARK    4  A    between atoms: C_3  and  C_5
REMARK    5  A    between atoms: C_3  and  C_6
REMARK    6  A    between atoms: C_3  and  C_7
REMARK    7  A    between atoms: C_10  and  C_13
REMARK    8  A    between atoms: C_13  and  C_14
REMARK                            x       y       z     vdW  Elec       q    Type
REMARK                         _______ _______ _______ _____ _____    ______ ____
ROOT
ATOM      1  C   UNL     1       8.141   9.404   5.452  0.00  0.00    +0.000 A 
ATOM      2  C   UNL     1       8.651   9.849   4.259  0.00  0.00    +0.000 A 
ATOM      3  C   UNL     1       7.135   8.475   5.544  0.00  0.00    +0.000 A 
ATOM      4  C   UNL     1       7.098   8.382   3.130  0.00  0.00    +0.000 A 
ATOM      5  C   UNL     1       8.121   9.329   3.077  0.00  0.00    +0.000 A 
ATOM      6  C   UNL     1       6.606   7.954   4.363  0.00  0.00    +0.000 A 
ATOM      7  H   UNL     1       9.445  10.585   4.193  0.00  0.00    +0.000 HD
ATOM      8  H   UNL     1       6.716   8.108   6.472  0.00  0.00    +0.000 HD
ATOM      9  H   UNL     1       8.512   9.672   2.123  0.00  0.00    +0.000 HD
ATOM     10  H   UNL     1       5.808   7.219   4.417  0.00  0.00    +0.000 HD
ENDROOT
BRANCH   4  11
ATOM     11  C   UNL     1       6.531   7.826   1.867  0.00  0.00    +0.000 C 
ATOM     12  H   UNL     1       7.335   7.399   1.256  0.00  0.00    +0.000 HD
ATOM     13  H   UNL     1       5.834   7.013   2.103  0.00  0.00    +0.000 HD
BRANCH  11  15
ATOM     14  O   UNL     1       6.125   9.209  -0.093  0.00  0.00    +0.000 OA
ATOM     15  C   UNL     1       5.796   8.855   1.031  0.00  0.00    +0.000 C 
BRANCH  15  16
ATOM     16  O   UNL     1       4.714   9.315   1.729  0.00  0.00    +0.000 OA
BRANCH  16  17
ATOM     17  C   UNL     1       3.921  10.300   1.057  0.00  0.00    +0.000 C 
ATOM     18  H   UNL     1       2.874  10.215   1.364  0.00  0.00    +0.000 HD
ATOM     19  H   UNL     1       4.016  10.187  -0.027  0.00  0.00    +0.000 HD
ATOM     20  H   UNL     1       4.291  11.288   1.342  0.00  0.00    +0.000 HD
ENDBRANCH  16  17
ENDBRANCH  15  16
ENDBRANCH  11  15
ENDBRANCH   4  11
BRANCH   1  21
ATOM     21  C   UNL     1       8.724   9.978   6.754  0.00  0.00    +0.000 C 
BRANCH  21  22
ATOM     22  C   UNL     1       7.718  10.965   7.385  0.00  0.00    +0.000 C 
ATOM     23  H   UNL     1       7.995  12.003   7.168  0.00  0.00    +0.000 HD
ATOM     24  H   UNL     1       6.700  10.823   7.007  0.00  0.00    +0.000 HD
ATOM     25  H   UNL     1       7.683  10.850   8.475  0.00  0.00    +0.000 HD
ENDBRANCH  21  22
BRANCH  21  26
ATOM     26  C   UNL     1      10.042  10.724   6.448  0.00  0.00    +0.000 C 
ATOM     27  H   UNL     1      10.923  10.180   6.803  0.00  0.00    +0.000 HD
ATOM     28  H   UNL     1      10.172  10.868   5.369  0.00  0.00    +0.000 HD
ATOM     29  H   UNL     1      10.054  11.713   6.920  0.00  0.00    +0.000 HD
ENDBRANCH  21  26
BRANCH  21  30
ATOM     30  C   UNL     1       9.045   8.907   7.821  0.00  0.00    +0.000 C 
ATOM     31  H   UNL     1       8.174   8.722   8.461  0.00  0.00    +0.000 HD
ATOM     32  H   UNL     1       9.310   7.944   7.369  0.00  0.00    +0.000 HD
ATOM     33  H   UNL     1       9.859   9.220   8.485  0.00  0.00    +0.000 HD
ENDBRANCH  21  30
ENDBRANCH   1  21
TORSDOF 8
ENDMDL
MODEL 3
REMARK VINA RESULT:    -5.539     15.433     16.981
REMARK INTER + INTRA:          -7.910
REMARK INTER:                  -7.518
REMARK INTRA:                  -0.392
REMARK UNBOUND:                -0.428
REMARK  Name = 605629
REMARK  8 active torsions:
REMARK  status: ('A' for Active; 'I' for Inactive)
REMARK    1  A    between atoms: O_1  and  C_14
REMARK    2  A    between atoms: O_1  and  C_15
REMARK    3  A    between atoms: C_3  and  C_4
REMARK    4  A    between atoms: C_3  and  C_5
REMARK    5  A    between atoms: C_3  and  C_6
REMARK    6  A    between atoms: C_3  and  C_7
REMARK    7  A    between atoms: C_10  and  C_13
REMARK    8  A    between atoms: C_13  and  C_14
REMARK                            x       y       z     vdW  Elec       q    Type
REMARK                         _______ _______ _______ _____ _____    ______ ____
ROOT
ATOM      1  C   UNL     1      -5.815   6.038  -9.709  0.00  0.00    +0.000 A 
ATOM      2  C   UNL     1      -5.622   6.458 -11.001  0.00  0.00    +0.000 A 
ATOM      3  C   UNL     1      -4.877   6.188  -8.718  0.00  0.00    +0.000 A 
ATOM      4  C   UNL     1      -3.433   7.243 -10.343  0.00  0.00    +0.000 A 
ATOM      5  C   UNL     1      -4.411   7.072 -11.324  0.00  0.00    +0.000 A 
ATOM      6  C   UNL     1      -3.666   6.802  -9.041  0.00  0.00    +0.000 A 
ATOM      7  H   UNL     1      -6.367   6.336 -11.779  0.00  0.00    +0.000 HD
ATOM      8  H   UNL     1      -5.004   5.865  -7.693  0.00  0.00    +0.000 HD
ATOM      9  H   UNL     1      -4.240   7.409 -12.343  0.00  0.00    +0.000 HD
ATOM     10  H   UNL     1      -2.912   6.927  -8.269  0.00  0.00    +0.000 HD
ENDROOT
BRANCH   4  11
ATOM     11  C   UNL     1      -2.139   7.898 -10.688  0.00  0.00    +0.000 C 
ATOM     12  H   UNL     1      -1.319   7.408 -10.148  0.00  0.00    +0.000 HD
ATOM     13  H   UNL     1      -1.940   7.777 -11.760  0.00  0.00    +0.000 HD
BRANCH  11  15
ATOM     14  O   UNL     1      -2.964   9.977  -9.731  0.00  0.00    +0.000 OA
ATOM     15  C   UNL     1      -2.104   9.378 -10.362  0.00  0.00    +0.000 C 
BRANCH  15  16
ATOM     16  O   UNL     1      -0.965   9.929 -10.881  0.00  0.00    +0.000 OA
BRANCH  16  17
ATOM     17  C   UNL     1      -0.461   9.303 -12.066  0.00  0.00    +0.000 C 
ATOM     18  H   UNL     1       0.499   9.746 -12.348  0.00  0.00    +0.000 HD
ATOM     19  H   UNL     1      -1.185   9.399 -12.881  0.00  0.00    +0.000 HD
ATOM     20  H   UNL     1      -0.310   8.242 -11.853  0.00  0.00    +0.000 HD
ENDBRANCH  16  17
ENDBRANCH  15  16
ENDBRANCH  11  15
ENDBRANCH   4  11
BRANCH   1  21
ATOM     21  C   UNL     1      -7.149   5.361  -9.354  0.00  0.00    +0.000 C 
BRANCH  21  22
ATOM     22  C   UNL     1      -6.937   4.377  -8.183  0.00  0.00    +0.000 C 
ATOM     23  H   UNL     1      -6.868   3.344  -8.545  0.00  0.00    +0.000 HD
ATOM     24  H   UNL     1      -6.017   4.580  -7.627  0.00  0.00    +0.000 HD
ATOM     25  H   UNL     1      -7.770   4.425  -7.471  0.00  0.00    +0.000 HD
ENDBRANCH  21  22
BRANCH  21  26
ATOM     26  C   UNL     1      -7.681   4.586 -10.579  0.00  0.00    +0.000 C 
ATOM     27  H   UNL     1      -6.914   4.441 -11.348  0.00  0.00    +0.000 HD
ATOM     28  H   UNL     1      -8.034   3.588 -10.292  0.00  0.00    +0.000 HD
ATOM     29  H   UNL     1      -8.519   5.114 -11.047  0.00  0.00    +0.000 HD
ENDBRANCH  21  26
BRANCH  21  30
ATOM     30  C   UNL     1      -8.257   6.349  -8.925  0.00  0.00    +0.000 C 
ATOM     31  H   UNL     1      -7.942   6.932  -8.050  0.00  0.00    +0.000 HD
ATOM     32  H   UNL     1      -8.488   7.075  -9.715  0.00  0.00    +0.000 HD
ATOM     33  H   UNL     1      -9.180   5.834  -8.640  0.00  0.00    +0.000 HD
ENDBRANCH  21  30
ENDBRANCH   1  21
TORSDOF 8
ENDMDL
MODEL 4
REMARK VINA RESULT:    -5.421     16.337     18.043
REMARK INTER + INTRA:          -7.751
REMARK INTER:                  -7.321
REMARK INTRA:                  -0.429
REMARK UNBOUND:                -0.428
REMARK  Name = 605629
REMARK  8 active torsions:
REMARK  status: ('A' for Active; 'I' for Inactive)
REMARK    1  A    between atoms: O_1  and  C_14
REMARK    2  A    between atoms: O_1  and  C_15
REMARK    3  A    between atoms: C_3  and  C_4
REMARK    4  A    between atoms: C_3  and  C_5
REMARK    5  A    between atoms: C_3  and  C_6
REMARK    6  A    between atoms: C_3  and  C_7
REMARK    7  A    between atoms: C_10  and  C_13
REMARK    8  A    between atoms: C_13  and  C_14
REMARK                            x       y       z     vdW  Elec       q    Type
REMARK                         _______ _______ _______ _____ _____    ______ ____
ROOT
ATOM      1  C   UNL     1      -4.037   6.968 -10.814  0.00  0.00    +0.000 A 
ATOM      2  C   UNL     1      -3.683   6.813  -9.497  0.00  0.00    +0.000 A 
ATOM      3  C   UNL     1      -5.267   6.614 -11.311  0.00  0.00    +0.000 A 
ATOM      4  C   UNL     1      -5.881   5.899  -9.087  0.00  0.00    +0.000 A 
ATOM      5  C   UNL     1      -4.620   6.270  -8.619  0.00  0.00    +0.000 A 
ATOM      6  C   UNL     1      -6.204   6.071 -10.432  0.00  0.00    +0.000 A 
ATOM      7  H   UNL     1      -2.709   7.094  -9.111  0.00  0.00    +0.000 HD
ATOM      8  H   UNL     1      -5.570   6.726 -12.344  0.00  0.00    +0.000 HD
ATOM      9  H   UNL     1      -4.356   6.138  -7.573  0.00  0.00    +0.000 HD
ATOM     10  H   UNL     1      -7.182   5.784 -10.809  0.00  0.00    +0.000 HD
ENDROOT
BRANCH   4  11
ATOM     11  C   UNL     1      -6.883   5.317  -8.148  0.00  0.00    +0.000 C 
ATOM     12  H   UNL     1      -7.408   4.485  -8.633  0.00  0.00    +0.000 HD
ATOM     13  H   UNL     1      -6.370   4.909  -7.268  0.00  0.00    +0.000 HD
BRANCH  11  15
ATOM     14  O   UNL     1      -8.875   6.701  -8.331  0.00  0.00    +0.000 OA
ATOM     15  C   UNL     1      -7.918   6.317  -7.673  0.00  0.00    +0.000 C 
BRANCH  15  16
ATOM     16  O   UNL     1      -7.613   6.714  -6.401  0.00  0.00    +0.000 OA
BRANCH  16  17
ATOM     17  C   UNL     1      -8.487   6.229  -5.376  0.00  0.00    +0.000 C 
ATOM     18  H   UNL     1      -8.051   5.349  -4.893  0.00  0.00    +0.000 HD
ATOM     19  H   UNL     1      -9.469   5.992  -5.797  0.00  0.00    +0.000 HD
ATOM     20  H   UNL     1      -8.606   7.017  -4.628  0.00  0.00    +0.000 HD
ENDBRANCH  16  17
ENDBRANCH  15  16
ENDBRANCH  11  15
ENDBRANCH   4  11
BRANCH   1  21
ATOM     21  C   UNL     1      -3.004   7.567 -11.782  0.00  0.00    +0.000 C 
BRANCH  21  22
ATOM     22  C   UNL     1      -1.636   6.882 -11.571  0.00  0.00    +0.000 C 
ATOM     23  H   UNL     1      -1.734   5.790 -11.588  0.00  0.00    +0.000 HD
ATOM     24  H   UNL     1      -0.910   7.148 -12.346  0.00  0.00    +0.000 HD
ATOM     25  H   UNL     1      -1.201   7.161 -10.603  0.00  0.00    +0.000 HD
ENDBRANCH  21  22
BRANCH  21  26
ATOM     26  C   UNL     1      -2.860   9.081 -11.516  0.00  0.00    +0.000 C 
ATOM     27  H   UNL     1      -3.228   9.690 -12.349  0.00  0.00    +0.000 HD
ATOM     28  H   UNL     1      -3.428   9.382 -10.628  0.00  0.00    +0.000 HD
ATOM     29  H   UNL     1      -1.811   9.354 -11.348  0.00  0.00    +0.000 HD
ENDBRANCH  21  26
BRANCH  21  30
ATOM     30  C   UNL     1      -3.373   7.400 -13.273  0.00  0.00    +0.000 C 
ATOM     31  H   UNL     1      -4.462   7.406 -13.407  0.00  0.00    +0.000 HD
ATOM     32  H   UNL     1      -2.978   8.218 -13.888  0.00  0.00    +0.000 HD
ATOM     33  H   UNL     1      -3.015   6.448 -13.682  0.00  0.00    +0.000 HD
ENDBRANCH  21  30
ENDBRANCH   1  21
TORSDOF 8
ENDMDL
MODEL 5
REMARK VINA RESULT:    -5.408     29.155     30.912
REMARK INTER + INTRA:          -7.733
REMARK INTER:                  -7.314
REMARK INTRA:                  -0.419
REMARK UNBOUND:                -0.428
REMARK  Name = 605629
REMARK  8 active torsions:
REMARK  status: ('A' for Active; 'I' for Inactive)
REMARK    1  A    between atoms: O_1  and  C_14
REMARK    2  A    between atoms: O_1  and  C_15
REMARK    3  A    between atoms: C_3  and  C_4
REMARK    4  A    between atoms: C_3  and  C_5
REMARK    5  A    between atoms: C_3  and  C_6
REMARK    6  A    between atoms: C_3  and  C_7
REMARK    7  A    between atoms: C_10  and  C_13
REMARK    8  A    between atoms: C_13  and  C_14
REMARK                            x       y       z     vdW  Elec       q    Type
REMARK                         _______ _______ _______ _____ _____    ______ ____
ROOT
ATOM      1  C   UNL     1     -20.141  -3.889   3.319  0.00  0.00    +0.000 A 
ATOM      2  C   UNL     1     -20.778  -2.709   3.029  0.00  0.00    +0.000 A 
ATOM      3  C   UNL     1     -20.030  -4.395   4.590  0.00  0.00    +0.000 A 
ATOM      4  C   UNL     1     -21.254  -2.470   5.386  0.00  0.00    +0.000 A 
ATOM      5  C   UNL     1     -21.345  -1.987   4.079  0.00  0.00    +0.000 A 
ATOM      6  C   UNL     1     -20.597  -3.673   5.641  0.00  0.00    +0.000 A 
ATOM      7  H   UNL     1     -20.861  -2.315   2.022  0.00  0.00    +0.000 HD
ATOM      8  H   UNL     1     -19.533  -5.321   4.844  0.00  0.00    +0.000 HD
ATOM      9  H   UNL     1     -21.852  -1.049   3.868  0.00  0.00    +0.000 HD
ATOM     10  H   UNL     1     -20.518  -4.058   6.653  0.00  0.00    +0.000 HD
ENDROOT
BRANCH   4  11
ATOM     11  C   UNL     1     -21.859  -1.697   6.509  0.00  0.00    +0.000 C 
ATOM     12  H   UNL     1     -22.668  -1.062   6.130  0.00  0.00    +0.000 HD
ATOM     13  H   UNL     1     -22.302  -2.390   7.235  0.00  0.00    +0.000 HD
BRANCH  11  15
ATOM     14  O   UNL     1     -19.693  -0.670   6.924  0.00  0.00    +0.000 OA
ATOM     15  C   UNL     1     -20.866  -0.815   7.240  0.00  0.00    +0.000 C 
BRANCH  15  16
ATOM     16  O   UNL     1     -21.489  -0.212   8.297  0.00  0.00    +0.000 OA
BRANCH  16  17
ATOM     17  C   UNL     1     -22.682  -0.855   8.758  0.00  0.00    +0.000 C 
ATOM     18  H   UNL     1     -22.486  -1.911   8.966  0.00  0.00    +0.000 HD
ATOM     19  H   UNL     1     -23.480  -0.748   8.018  0.00  0.00    +0.000 HD
ATOM     20  H   UNL     1     -22.995  -0.366   9.685  0.00  0.00    +0.000 HD
ENDBRANCH  16  17
ENDBRANCH  15  16
ENDBRANCH  11  15
ENDBRANCH   4  11
BRANCH   1  21
ATOM     21  C   UNL     1     -19.516  -4.684   2.161  0.00  0.00    +0.000 C 
BRANCH  21  22
ATOM     22  C   UNL     1     -18.027  -4.959   2.463  0.00  0.00    +0.000 C 
ATOM     23  H   UNL     1     -17.619  -4.210   3.152  0.00  0.00    +0.000 HD
ATOM     24  H   UNL     1     -17.867  -5.938   2.927  0.00  0.00    +0.000 HD
ATOM     25  H   UNL     1     -17.426  -4.929   1.545  0.00  0.00    +0.000 HD
ENDBRANCH  21  22
BRANCH  21  26
ATOM     26  C   UNL     1     -19.626  -3.870   0.853  0.00  0.00    +0.000 C 
ATOM     27  H   UNL     1     -20.262  -4.360   0.107  0.00  0.00    +0.000 HD
ATOM     28  H   UNL     1     -20.060  -2.881   1.040  0.00  0.00    +0.000 HD
ATOM     29  H   UNL     1     -18.641  -3.721   0.397  0.00  0.00    +0.000 HD
ENDBRANCH  21  26
BRANCH  21  30
ATOM     30  C   UNL     1     -20.190  -6.051   1.904  0.00  0.00    +0.000 C 
ATOM     31  H   UNL     1     -20.254  -6.257   0.829  0.00  0.00    +0.000 HD
ATOM     32  H   UNL     1     -19.623  -6.878   2.347  0.00  0.00    +0.000 HD
ATOM     33  H   UNL     1     -21.216  -6.082   2.289  0.00  0.00    +0.000 HD
ENDBRANCH  21  30
ENDBRANCH   1  21
TORSDOF 8
ENDMDL
MODEL 6
REMARK VINA RESULT:    -4.997     14.970     16.717
REMARK INTER + INTRA:          -7.178
REMARK INTER:                  -6.768
REMARK INTRA:                  -0.410
REMARK UNBOUND:                -0.428
REMARK  Name = 605629
REMARK  8 active torsions:
REMARK  status: ('A' for Active; 'I' for Inactive)
REMARK    1  A    between atoms: O_1  and  C_14
REMARK    2  A    between atoms: O_1  and  C_15
REMARK    3  A    between atoms: C_3  and  C_4
REMARK    4  A    between atoms: C_3  and  C_5
REMARK    5  A    between atoms: C_3  and  C_6
REMARK    6  A    between atoms: C_3  and  C_7
REMARK    7  A    between atoms: C_10  and  C_13
REMARK    8  A    between atoms: C_13  and  C_14
REMARK                            x       y       z     vdW  Elec       q    Type
REMARK                         _______ _______ _______ _____ _____    ______ ____
ROOT
ATOM      1  C   UNL     1      14.765  -3.972   7.401  0.00  0.00    +0.000 A 
ATOM      2  C   UNL     1      13.583  -3.528   6.865  0.00  0.00    +0.000 A 
ATOM      3  C   UNL     1      15.023  -3.990   8.749  0.00  0.00    +0.000 A 
ATOM      4  C   UNL     1      12.817  -3.074   9.111  0.00  0.00    +0.000 A 
ATOM      5  C   UNL     1      12.592  -3.071   7.734  0.00  0.00    +0.000 A 
ATOM      6  C   UNL     1      14.032  -3.534   9.618  0.00  0.00    +0.000 A 
ATOM      7  H   UNL     1      13.385  -3.516   5.798  0.00  0.00    +0.000 HD
ATOM      8  H   UNL     1      15.946  -4.335   9.196  0.00  0.00    +0.000 HD
ATOM      9  H   UNL     1      11.650  -2.713   7.327  0.00  0.00    +0.000 HD
ATOM     10  H   UNL     1      14.221  -3.539  10.688  0.00  0.00    +0.000 HD
ENDROOT
BRANCH   4  11
ATOM     11  C   UNL     1      11.758  -2.585  10.040  0.00  0.00    +0.000 C 
ATOM     12  H   UNL     1      12.219  -2.192  10.954  0.00  0.00    +0.000 HD
ATOM     13  H   UNL     1      11.209  -1.760   9.571  0.00  0.00    +0.000 HD
BRANCH  11  15
ATOM     14  O   UNL     1      10.980  -4.859  10.419  0.00  0.00    +0.000 OA
ATOM     15  C   UNL     1      10.760  -3.656  10.436  0.00  0.00    +0.000 C 
BRANCH  15  16
ATOM     16  O   UNL     1       9.587  -3.063  10.814  0.00  0.00    +0.000 OA
BRANCH  16  17
ATOM     17  C   UNL     1       8.801  -3.798  11.757  0.00  0.00    +0.000 C 
ATOM     18  H   UNL     1       7.923  -4.227  11.264  0.00  0.00    +0.000 HD
ATOM     19  H   UNL     1       8.501  -3.150  12.586  0.00  0.00    +0.000 HD
ATOM     20  H   UNL     1       9.415  -4.612  12.152  0.00  0.00    +0.000 HD
ENDBRANCH  16  17
ENDBRANCH  15  16
ENDBRANCH  11  15
ENDBRANCH   4  11
BRANCH   1  21
ATOM     21  C   UNL     1      15.857  -4.475   6.442  0.00  0.00    +0.000 C 
BRANCH  21  22
ATOM     22  C   UNL     1      15.863  -3.612   5.162  0.00  0.00    +0.000 C 
ATOM     23  H   UNL     1      16.839  -3.652   4.663  0.00  0.00    +0.000 HD
ATOM     24  H   UNL     1      15.119  -3.942   4.431  0.00  0.00    +0.000 HD
ATOM     25  H   UNL     1      15.652  -2.561   5.394  0.00  0.00    +0.000 HD
ENDBRANCH  21  22
BRANCH  21  26
ATOM     26  C   UNL     1      15.577  -5.945   6.061  0.00  0.00    +0.000 C 
ATOM     27  H   UNL     1      15.167  -6.523   6.896  0.00  0.00    +0.000 HD
ATOM     28  H   UNL     1      14.848  -6.009   5.244  0.00  0.00    +0.000 HD
ATOM     29  H   UNL     1      16.493  -6.449   5.731  0.00  0.00    +0.000 HD
ENDBRANCH  21  26
BRANCH  21  30
ATOM     30  C   UNL     1      17.283  -4.423   7.036  0.00  0.00    +0.000 C 
ATOM     31  H   UNL     1      17.993  -4.953   6.389  0.00  0.00    +0.000 HD
ATOM     32  H   UNL     1      17.652  -3.394   7.127  0.00  0.00    +0.000 HD
ATOM     33  H   UNL     1      17.337  -4.905   8.018  0.00  0.00    +0.000 HD
ENDBRANCH  21  30
ENDBRANCH   1  21
TORSDOF 8
ENDMDL
MODEL 7
REMARK VINA RESULT:    -4.996     15.868     17.417
REMARK INTER + INTRA:          -7.176
REMARK INTER:                  -6.777
REMARK INTRA:                  -0.399
REMARK UNBOUND:                -0.428
REMARK  Name = 605629
REMARK  8 active torsions:
REMARK  status: ('A' for Active; 'I' for Inactive)
REMARK    1  A    between atoms: O_1  and  C_14
REMARK    2  A    between atoms: O_1  and  C_15
REMARK    3  A    between atoms: C_3  and  C_4
REMARK    4  A    between atoms: C_3  and  C_5
REMARK    5  A    between atoms: C_3  and  C_6
REMARK    6  A    between atoms: C_3  and  C_7
REMARK    7  A    between atoms: C_10  and  C_13
REMARK    8  A    between atoms: C_13  and  C_14
REMARK                            x       y       z     vdW  Elec       q    Type
REMARK                         _______ _______ _______ _____ _____    ______ ____
ROOT
ATOM      1  C   UNL     1      -5.799   6.151  -9.627  0.00  0.00    +0.000 A 
ATOM      2  C   UNL     1      -4.762   6.253  -8.734  0.00  0.00    +0.000 A 
ATOM      3  C   UNL     1      -5.661   6.383 -10.973  0.00  0.00    +0.000 A 
ATOM      4  C   UNL     1      -3.324   6.854 -10.580  0.00  0.00    +0.000 A 
ATOM      5  C   UNL     1      -3.504   6.610  -9.218  0.00  0.00    +0.000 A 
ATOM      6  C   UNL     1      -4.403   6.740 -11.457  0.00  0.00    +0.000 A 
ATOM      7  H   UNL     1      -4.878   6.069  -7.671  0.00  0.00    +0.000 HD
ATOM      8  H   UNL     1      -6.462   6.309 -11.697  0.00  0.00    +0.000 HD
ATOM      9  H   UNL     1      -2.671   6.699  -8.525  0.00  0.00    +0.000 HD
ATOM     10  H   UNL     1      -4.277   6.929 -12.519  0.00  0.00    +0.000 HD
ENDROOT
BRANCH   4  11
ATOM     11  C   UNL     1      -1.980   7.237 -11.098  0.00  0.00    +0.000 C 
ATOM     12  H   UNL     1      -1.466   7.872 -10.366  0.00  0.00    +0.000 HD
ATOM     13  H   UNL     1      -1.368   6.337 -11.234  0.00  0.00    +0.000 HD
BRANCH  11  15
ATOM     14  O   UNL     1      -1.835   7.476 -13.515  0.00  0.00    +0.000 OA
ATOM     15  C   UNL     1      -2.029   7.982 -12.418  0.00  0.00    +0.000 C 
BRANCH  15  16
ATOM     16  O   UNL     1      -2.326   9.296 -12.185  0.00  0.00    +0.000 OA
BRANCH  16  17
ATOM     17  C   UNL     1      -2.703  10.057 -13.337  0.00  0.00    +0.000 C 
ATOM     18  H   UNL     1      -1.866  10.678 -13.670  0.00  0.00    +0.000 HD
ATOM     19  H   UNL     1      -3.578  10.674 -13.113  0.00  0.00    +0.000 HD
ATOM     20  H   UNL     1      -2.961   9.358 -14.137  0.00  0.00    +0.000 HD
ENDBRANCH  16  17
ENDBRANCH  15  16
ENDBRANCH  11  15
ENDBRANCH   4  11
BRANCH   1  21
ATOM     21  C   UNL     1      -7.186   5.757  -9.093  0.00  0.00    +0.000 C 
BRANCH  21  22
ATOM     22  C   UNL     1      -7.405   4.241  -9.283  0.00  0.00    +0.000 C 
ATOM     23  H   UNL     1      -6.482   3.682  -9.090  0.00  0.00    +0.000 HD
ATOM     24  H   UNL     1      -8.166   3.839  -8.606  0.00  0.00    +0.000 HD
ATOM     25  H   UNL     1      -7.723   4.014 -10.308  0.00  0.00    +0.000 HD
ENDBRANCH  21  22
BRANCH  21  26
ATOM     26  C   UNL     1      -8.278   6.529  -9.866  0.00  0.00    +0.000 C 
ATOM     27  H   UNL     1      -7.861   7.307 -10.514  0.00  0.00    +0.000 HD
ATOM     28  H   UNL     1      -8.855   5.855 -10.510  0.00  0.00    +0.000 HD
ATOM     29  H   UNL     1      -8.980   7.015  -9.179  0.00  0.00    +0.000 HD
ENDBRANCH  21  26
BRANCH  21  30
ATOM     30  C   UNL     1      -7.389   6.064  -7.592  0.00  0.00    +0.000 C 
ATOM     31  H   UNL     1      -8.453   6.029  -7.328  0.00  0.00    +0.000 HD
ATOM     32  H   UNL     1      -6.885   5.330  -6.951  0.00  0.00    +0.000 HD
ATOM     33  H   UNL     1      -7.034   7.066  -7.325  0.00  0.00    +0.000 HD
ENDBRANCH  21  30
ENDBRANCH   1  21
TORSDOF 8
ENDMDL
MODEL 8
REMARK VINA RESULT:    -4.992     17.701     18.972
REMARK INTER + INTRA:          -7.171
REMARK INTER:                  -6.726
REMARK INTRA:                  -0.445
REMARK UNBOUND:                -0.428
REMARK  Name = 605629
REMARK  8 active torsions:
REMARK  status: ('A' for Active; 'I' for Inactive)
REMARK    1  A    between atoms: O_1  and  C_14
REMARK    2  A    between atoms: O_1  and  C_15
REMARK    3  A    between atoms: C_3  and  C_4
REMARK    4  A    between atoms: C_3  and  C_5
REMARK    5  A    between atoms: C_3  and  C_6
REMARK    6  A    between atoms: C_3  and  C_7
REMARK    7  A    between atoms: C_10  and  C_13
REMARK    8  A    between atoms: C_13  and  C_14
REMARK                            x       y       z     vdW  Elec       q    Type
REMARK                         _______ _______ _______ _____ _____    ______ ____
ROOT
ATOM      1  C   UNL     1      -0.711  -0.384 -12.520  0.00  0.00    +0.000 A 
ATOM      2  C   UNL     1      -0.559  -0.710 -13.844  0.00  0.00    +0.000 A 
ATOM      3  C   UNL     1       0.190   0.383 -11.823  0.00  0.00    +0.000 A 
ATOM      4  C   UNL     1       1.506   0.544 -13.843  0.00  0.00    +0.000 A 
ATOM      5  C   UNL     1       0.568  -0.239 -14.517  0.00  0.00    +0.000 A 
ATOM      6  C   UNL     1       1.317   0.855 -12.496  0.00  0.00    +0.000 A 
ATOM      7  H   UNL     1      -1.275  -1.317 -14.388  0.00  0.00    +0.000 HD
ATOM      8  H   UNL     1       0.093   0.654 -10.780  0.00  0.00    +0.000 HD
ATOM      9  H   UNL     1       0.706  -0.490 -15.565  0.00  0.00    +0.000 HD
ATOM     10  H   UNL     1       2.041   1.461 -11.960  0.00  0.00    +0.000 HD
ENDROOT
BRANCH   4  11
ATOM     11  C   UNL     1       2.711   1.047 -14.562  0.00  0.00    +0.000 C 
ATOM     12  H   UNL     1       2.441   1.335 -15.585  0.00  0.00    +0.000 HD
ATOM     13  H   UNL     1       3.090   1.946 -14.061  0.00  0.00    +0.000 HD
BRANCH  11  15
ATOM     14  O   UNL     1       4.293  -0.578 -13.681  0.00  0.00    +0.000 OA
ATOM     15  C   UNL     1       3.837   0.035 -14.637  0.00  0.00    +0.000 C 
BRANCH  15  16
ATOM     16  O   UNL     1       4.254  -0.083 -15.934  0.00  0.00    +0.000 OA
BRANCH  16  17
ATOM     17  C   UNL     1       5.434  -0.868 -16.133  0.00  0.00    +0.000 C 
ATOM     18  H   UNL     1       5.397  -1.771 -15.516  0.00  0.00    +0.000 HD
ATOM     19  H   UNL     1       6.326  -0.278 -15.901  0.00  0.00    +0.000 HD
ATOM     20  H   UNL     1       5.473  -1.164 -17.185  0.00  0.00    +0.000 HD
ENDBRANCH  16  17
ENDBRANCH  15  16
ENDBRANCH  11  15
ENDBRANCH   4  11
BRANCH   1  21
ATOM     21  C   UNL     1      -1.954  -0.904 -11.778  0.00  0.00    +0.000 C 
BRANCH  21  22
ATOM     22  C   UNL     1      -1.917  -0.431 -10.308  0.00  0.00    +0.000 C 
ATOM     23  H   UNL     1      -1.527   0.591 -10.233  0.00  0.00    +0.000 HD
ATOM     24  H   UNL     1      -2.909  -0.427  -9.845  0.00  0.00    +0.000 HD
ATOM     25  H   UNL     1      -1.273  -1.078  -9.701  0.00  0.00    +0.000 HD
ENDBRANCH  21  22
BRANCH  21  26
ATOM     26  C   UNL     1      -1.971  -2.448 -11.813  0.00  0.00    +0.000 C 
ATOM     27  H   UNL     1      -2.914  -2.865 -11.444  0.00  0.00    +0.000 HD
ATOM     28  H   UNL     1      -1.838  -2.820 -12.836  0.00  0.00    +0.000 HD
ATOM     29  H   UNL     1      -1.164  -2.865 -11.199  0.00  0.00    +0.000 HD
ENDBRANCH  21  26
BRANCH  21  30
ATOM     30  C   UNL     1      -3.291  -0.420 -12.381  0.00  0.00    +0.000 C 
ATOM     31  H   UNL     1      -3.692   0.426 -11.810  0.00  0.00    +0.000 HD
ATOM     32  H   UNL     1      -3.173  -0.070 -13.414  0.00  0.00    +0.000 HD
ATOM     33  H   UNL     1      -4.058  -1.202 -12.360  0.00  0.00    +0.000 HD
ENDBRANCH  21  30
ENDBRANCH   1  21
TORSDOF 8
ENDMDL
MODEL 9
REMARK VINA RESULT:    -4.906      3.342      5.374
REMARK INTER + INTRA:          -7.055
REMARK INTER:                  -6.566
REMARK INTRA:                  -0.489
REMARK UNBOUND:                -0.428
REMARK  Name = 605629
REMARK  8 active torsions:
REMARK  status: ('A' for Active; 'I' for Inactive)
REMARK    1  A    between atoms: O_1  and  C_14
REMARK    2  A    between atoms: O_1  and  C_15
REMARK    3  A    between atoms: C_3  and  C_4
REMARK    4  A    between atoms: C_3  and  C_5
REMARK    5  A    between atoms: C_3  and  C_6
REMARK    6  A    between atoms: C_3  and  C_7
REMARK    7  A    between atoms: C_10  and  C_13
REMARK    8  A    between atoms: C_13  and  C_14
REMARK                            x       y       z     vdW  Elec       q    Type
REMARK                         _______ _______ _______ _____ _____    ______ ____
ROOT
ATOM      1  C   UNL     1       8.780  10.924   6.075  0.00  0.00    +0.000 A 
ATOM      2  C   UNL     1       7.740  10.401   6.800  0.00  0.00    +0.000 A 
ATOM      3  C   UNL     1       9.149  10.457   4.838  0.00  0.00    +0.000 A 
ATOM      4  C   UNL     1       7.363   8.838   4.997  0.00  0.00    +0.000 A 
ATOM      5  C   UNL     1       7.018   9.341   6.252  0.00  0.00    +0.000 A 
ATOM      6  C   UNL     1       8.428   9.396   4.290  0.00  0.00    +0.000 A 
ATOM      7  H   UNL     1       7.454  10.775   7.777  0.00  0.00    +0.000 HD
ATOM      8  H   UNL     1       9.965  10.852   4.247  0.00  0.00    +0.000 HD
ATOM      9  H   UNL     1       6.192   8.912   6.813  0.00  0.00    +0.000 HD
ATOM     10  H   UNL     1       8.707   9.013   3.313  0.00  0.00    +0.000 HD
ENDROOT
BRANCH   4  11
ATOM     11  C   UNL     1       6.592   7.703   4.411  0.00  0.00    +0.000 C 
ATOM     12  H   UNL     1       7.250   6.836   4.280  0.00  0.00    +0.000 HD
ATOM     13  H   UNL     1       5.794   7.405   5.102  0.00  0.00    +0.000 HD
BRANCH  11  15
ATOM     14  O   UNL     1       6.387   7.646   1.987  0.00  0.00    +0.000 OA
ATOM     15  C   UNL     1       5.964   8.027   3.070  0.00  0.00    +0.000 C 
BRANCH  15  16
ATOM     16  O   UNL     1       4.857   8.806   3.265  0.00  0.00    +0.000 OA
BRANCH  16  17
ATOM     17  C   UNL     1       4.291   9.381   2.083  0.00  0.00    +0.000 C 
ATOM     18  H   UNL     1       3.442   8.781   1.740  0.00  0.00    +0.000 HD
ATOM     19  H   UNL     1       5.050   9.459   1.299  0.00  0.00    +0.000 HD
ATOM     20  H   UNL     1       3.935  10.384   2.329  0.00  0.00    +0.000 HD
ENDBRANCH  16  17
ENDBRANCH  15  16
ENDBRANCH  11  15
ENDBRANCH   4  11
BRANCH   1  21
ATOM     21  C   UNL     1       9.576  12.094   6.679  0.00  0.00    +0.000 C 
BRANCH  21  22
ATOM     22  C   UNL     1       9.183  13.409   5.973  0.00  0.00    +0.000 C 
ATOM     23  H   UNL     1       9.259  14.262   6.658  0.00  0.00    +0.000 HD
ATOM     24  H   UNL     1       9.825  13.633   5.116  0.00  0.00    +0.000 HD
ATOM     25  H   UNL     1       8.149  13.367   5.608  0.00  0.00    +0.000 HD
ENDBRANCH  21  22
BRANCH  21  26
ATOM     26  C   UNL     1      11.088  11.847   6.487  0.00  0.00    +0.000 C 
ATOM     27  H   UNL     1      11.431  12.112   5.481  0.00  0.00    +0.000 HD
ATOM     28  H   UNL     1      11.678  12.445   7.191  0.00  0.00    +0.000 HD
ATOM     29  H   UNL     1      11.340  10.793   6.652  0.00  0.00    +0.000 HD
ENDBRANCH  21  26
BRANCH  21  30
ATOM     30  C   UNL     1       9.337  12.297   8.192  0.00  0.00    +0.000 C 
ATOM     31  H   UNL     1      10.288  12.300   8.739  0.00  0.00    +0.000 HD
ATOM     32  H   UNL     1       8.852  13.257   8.406  0.00  0.00    +0.000 HD
ATOM     33  H   UNL     1       8.731  11.493   8.625  0.00  0.00    +0.000 HD
ENDBRANCH  21  30
ENDBRANCH   1  21
TORSDOF 8
ENDMDL
MODEL 10
REMARK VINA RESULT:    -4.830     15.943     17.669
REMARK INTER + INTRA:          -6.952
REMARK INTER:                  -6.524
REMARK INTRA:                  -0.428
REMARK UNBOUND:                -0.428
REMARK  Name = 605629
REMARK  8 active torsions:
REMARK  status: ('A' for Active; 'I' for Inactive)
REMARK    1  A    between atoms: O_1  and  C_14
REMARK    2  A    between atoms: O_1  and  C_15
REMARK    3  A    between atoms: C_3  and  C_4
REMARK    4  A    between atoms: C_3  and  C_5
REMARK    5  A    between atoms: C_3  and  C_6
REMARK    6  A    between atoms: C_3  and  C_7
REMARK    7  A    between atoms: C_10  and  C_13
REMARK    8  A    between atoms: C_13  and  C_14
REMARK                            x       y       z     vdW  Elec       q    Type
REMARK                         _______ _______ _______ _____ _____    ______ ____
ROOT
ATOM      1  C   UNL     1      -1.211   9.175 -12.978  0.00  0.00    +0.000 A 
ATOM      2  C   UNL     1      -1.096   7.810 -13.049  0.00  0.00    +0.000 A 
ATOM      3  C   UNL     1      -1.829   9.828 -11.941  0.00  0.00    +0.000 A 
ATOM      4  C   UNL     1      -2.269   7.674 -10.941  0.00  0.00    +0.000 A 
ATOM      5  C   UNL     1      -1.633   7.046 -12.013  0.00  0.00    +0.000 A 
ATOM      6  C   UNL     1      -2.367   9.064 -10.905  0.00  0.00    +0.000 A 
ATOM      7  H   UNL     1      -0.606   7.300 -13.871  0.00  0.00    +0.000 HD
ATOM      8  H   UNL     1      -1.934  10.902 -11.863  0.00  0.00    +0.000 HD
ATOM      9  H   UNL     1      -1.553   5.963 -12.053  0.00  0.00    +0.000 HD
ATOM     10  H   UNL     1      -2.861   9.565 -10.078  0.00  0.00    +0.000 HD
ENDROOT
BRANCH   4  11
ATOM     11  C   UNL     1      -2.844   6.857  -9.834  0.00  0.00    +0.000 C 
ATOM     12  H   UNL     1      -2.391   5.858  -9.834  0.00  0.00    +0.000 HD
ATOM     13  H   UNL     1      -2.605   7.323  -8.870  0.00  0.00    +0.000 HD
BRANCH  11  15
ATOM     14  O   UNL     1      -5.003   6.772 -10.953  0.00  0.00    +0.000 OA
ATOM     15  C   UNL     1      -4.349   6.694  -9.922  0.00  0.00    +0.000 C 
BRANCH  15  16
ATOM     16  O   UNL     1      -4.851   6.445  -8.675  0.00  0.00    +0.000 OA
BRANCH  16  17
ATOM     17  C   UNL     1      -6.084   5.718  -8.640  0.00  0.00    +0.000 C 
ATOM     18  H   UNL     1      -6.027   4.844  -9.295  0.00  0.00    +0.000 HD
ATOM     19  H   UNL     1      -6.914   6.368  -8.934  0.00  0.00    +0.000 HD
ATOM     20  H   UNL     1      -6.250   5.378  -7.614  0.00  0.00    +0.000 HD
ENDBRANCH  16  17
ENDBRANCH  15  16
ENDBRANCH  11  15
ENDBRANCH   4  11
BRANCH   1  21
ATOM     21  C   UNL     1      -0.619  10.017 -14.121  0.00  0.00    +0.000 C 
BRANCH  21  22
ATOM     22  C   UNL     1      -1.633  10.105 -15.282  0.00  0.00    +0.000 C 
ATOM     23  H   UNL     1      -1.805  11.147 -15.577  0.00  0.00    +0.000 HD
ATOM     24  H   UNL     1      -1.293   9.573 -16.176  0.00  0.00    +0.000 HD
ATOM     25  H   UNL     1      -2.601   9.678 -14.993  0.00  0.00    +0.000 HD
ENDBRANCH  21  22
BRANCH  21  26
ATOM     26  C   UNL     1       0.681   9.358 -14.632  0.00  0.00    +0.000 C 
ATOM     27  H   UNL     1       1.046   8.575 -13.958  0.00  0.00    +0.000 HD
ATOM     28  H   UNL     1       0.527   8.888 -15.610  0.00  0.00    +0.000 HD
ATOM     29  H   UNL     1       1.483  10.098 -14.740  0.00  0.00    +0.000 HD
ENDBRANCH  21  26
BRANCH  21  30
ATOM     30  C   UNL     1      -0.264  11.465 -13.712  0.00  0.00    +0.000 C 
ATOM     31  H   UNL     1      -1.130  11.965 -13.262  0.00  0.00    +0.000 HD
ATOM     32  H   UNL     1       0.537  11.495 -12.964  0.00  0.00    +0.000 HD
ATOM     33  H   UNL     1       0.035  12.074 -14.573  0.00  0.00    +0.000 HD
ENDBRANCH  21  30
ENDBRANCH   1  21
TORSDOF 8
ENDMDL
