MODEL 1
REMARK VINA RESULT:    -4.714      0.000      0.000
REMARK INTER + INTRA:          -7.740
REMARK INTER:                  -7.090
REMARK INTRA:                  -0.649
REMARK UNBOUND:                -0.545
REMARK  Name = 15606
REMARK  10 active torsions:
REMARK  status: ('A' for Active; 'I' for Inactive)
REMARK    1  A    between atoms: O_1  and  C_11
REMARK    2  A    between atoms: O_1  and  C_12
REMARK    3  A    between atoms: C_3  and  C_4
REMARK    4  A    between atoms: C_3  and  C_5
REMARK    5  A    between atoms: C_4  and  C_6
REMARK    6  A    between atoms: C_5  and  C_7
REMARK    7  A    between atoms: C_6  and  C_8
REMARK    8  A    between atoms: C_7  and  C_9
REMARK    9  A    between atoms: C_8  and  C_10
REMARK   10  A    between atoms: C_9  and  C_11
REMARK                            x       y       z     vdW  Elec       q    Type
REMARK                         _______ _______ _______ _____ _____    ______ ____
ROOT
ATOM      1  C   UNL     1      -2.705   9.744  -9.831  0.00  0.00    +0.000 C 
ATOM      2  H   UNL     1      -3.172  10.666  -9.465  0.00  0.00    +0.000 HD
ATOM      3  H   UNL     1      -3.263   9.441 -10.726  0.00  0.00    +0.000 HD
ENDROOT
BRANCH   1   4
ATOM      4  C   UNL     1      -2.849   8.655  -8.764  0.00  0.00    +0.000 C 
ATOM      5  H   UNL     1      -1.854   8.384  -8.389  0.00  0.00    +0.000 HD
ATOM      6  H   UNL     1      -3.406   9.064  -7.913  0.00  0.00    +0.000 HD
BRANCH   4   7
ATOM      7  C   UNL     1      -3.553   7.394  -9.271  0.00  0.00    +0.000 C 
ATOM      8  H   UNL     1      -4.567   7.648  -9.604  0.00  0.00    +0.000 HD
ATOM      9  H   UNL     1      -3.653   6.677  -8.447  0.00  0.00    +0.000 HD
BRANCH   7  10
ATOM     10  C   UNL     1      -2.776   6.749 -10.419  0.00  0.00    +0.000 C 
ATOM     11  H   UNL     1      -2.590   5.692 -10.198  0.00  0.00    +0.000 HD
ATOM     12  H   UNL     1      -1.800   7.235 -10.527  0.00  0.00    +0.000 HD
BRANCH  10  13
ATOM     13  C   UNL     1      -3.535   6.853 -11.733  0.00  0.00    +0.000 C 
ATOM     14  H   UNL     1      -2.872   7.170 -12.544  0.00  0.00    +0.000 HD
ATOM     15  H   UNL     1      -4.355   7.575 -11.657  0.00  0.00    +0.000 HD
ATOM     16  H   UNL     1      -3.962   5.883 -12.002  0.00  0.00    +0.000 HD
ENDBRANCH  10  13
ENDBRANCH   7  10
ENDBRANCH   4   7
ENDBRANCH   1   4
BRANCH   1  17
ATOM     17  C   UNL     1      -1.252  10.030 -10.216  0.00  0.00    +0.000 C 
ATOM     18  H   UNL     1      -0.946  11.000  -9.806  0.00  0.00    +0.000 HD
ATOM     19  H   UNL     1      -0.599   9.269  -9.772  0.00  0.00    +0.000 HD
BRANCH  17  20
ATOM     20  C   UNL     1      -1.074  10.035 -11.738  0.00  0.00    +0.000 C 
ATOM     21  H   UNL     1      -0.585  10.968 -12.045  0.00  0.00    +0.000 HD
ATOM     22  H   UNL     1      -2.060  10.027 -12.220  0.00  0.00    +0.000 HD
BRANCH  20  23
ATOM     23  C   UNL     1      -0.258   8.844 -12.233  0.00  0.00    +0.000 C 
ATOM     24  H   UNL     1       0.796   8.982 -11.967  0.00  0.00    +0.000 HD
ATOM     25  H   UNL     1      -0.626   7.927 -11.761  0.00  0.00    +0.000 HD
BRANCH  23  27
ATOM     26  O   UNL     1      -1.080   7.855 -14.276  0.00  0.00    +0.000 OA
ATOM     27  C   UNL     1      -0.344   8.666 -13.729  0.00  0.00    +0.000 C 
BRANCH  27  28
ATOM     28  O   UNL     1       0.510   9.528 -14.352  0.00  0.00    +0.000 OA
BRANCH  28  29
ATOM     29  C   UNL     1       0.844   9.195 -15.703  0.00  0.00    +0.000 C 
ATOM     30  H   UNL     1       0.144   8.450 -16.093  0.00  0.00    +0.000 HD
ATOM     31  H   UNL     1       1.851   8.769 -15.710  0.00  0.00    +0.000 HD
ATOM     32  H   UNL     1       0.840  10.094 -16.328  0.00  0.00    +0.000 HD
ENDBRANCH  28  29
ENDBRANCH  27  28
ENDBRANCH  23  27
ENDBRANCH  20  23
ENDBRANCH  17  20
ENDBRANCH   1  17
TORSDOF 10
ENDMDL
MODEL 2
REMARK VINA RESULT:    -4.534     14.877     16.394
REMARK INTER + INTRA:          -7.464
REMARK INTER:                  -7.074
REMARK INTRA:                  -0.390
REMARK UNBOUND:                -0.545
REMARK  Name = 15606
REMARK  10 active torsions:
REMARK  status: ('A' for Active; 'I' for Inactive)
REMARK    1  A    between atoms: O_1  and  C_11
REMARK    2  A    between atoms: O_1  and  C_12
REMARK    3  A    between atoms: C_3  and  C_4
REMARK    4  A    between atoms: C_3  and  C_5
REMARK    5  A    between atoms: C_4  and  C_6
REMARK    6  A    between atoms: C_5  and  C_7
REMARK    7  A    between atoms: C_6  and  C_8
REMARK    8  A    between atoms: C_7  and  C_9
REMARK    9  A    between atoms: C_8  and  C_10
REMARK   10  A    between atoms: C_9  and  C_11
REMARK                            x       y       z     vdW  Elec       q    Type
REMARK                         _______ _______ _______ _____ _____    ______ ____
ROOT
ATOM      1  C   UNL     1       5.119   7.020   3.471  0.00  0.00    +0.000 C 
ATOM      2  H   UNL     1       4.067   6.890   3.749  0.00  0.00    +0.000 HD
ATOM      3  H   UNL     1       5.415   6.120   2.918  0.00  0.00    +0.000 HD
ENDROOT
BRANCH   1   4
ATOM      4  C   UNL     1       5.964   7.120   4.745  0.00  0.00    +0.000 C 
ATOM      5  H   UNL     1       5.435   6.622   5.568  0.00  0.00    +0.000 HD
ATOM      6  H   UNL     1       6.899   6.568   4.593  0.00  0.00    +0.000 HD
BRANCH   4   7
ATOM      7  C   UNL     1       6.285   8.560   5.153  0.00  0.00    +0.000 C 
ATOM      8  H   UNL     1       5.517   8.926   5.844  0.00  0.00    +0.000 HD
ATOM      9  H   UNL     1       6.257   9.203   4.265  0.00  0.00    +0.000 HD
BRANCH   7  10
ATOM     10  C   UNL     1       7.663   8.654   5.810  0.00  0.00    +0.000 C 
ATOM     11  H   UNL     1       8.182   7.692   5.730  0.00  0.00    +0.000 HD
ATOM     12  H   UNL     1       7.552   8.875   6.877  0.00  0.00    +0.000 HD
BRANCH  10  13
ATOM     13  C   UNL     1       8.516   9.733   5.161  0.00  0.00    +0.000 C 
ATOM     14  H   UNL     1       8.578  10.620   5.799  0.00  0.00    +0.000 HD
ATOM     15  H   UNL     1       8.101  10.033   4.193  0.00  0.00    +0.000 HD
ATOM     16  H   UNL     1       9.532   9.363   4.994  0.00  0.00    +0.000 HD
ENDBRANCH  10  13
ENDBRANCH   7  10
ENDBRANCH   4   7
ENDBRANCH   1   4
BRANCH   1  17
ATOM     17  C   UNL     1       5.254   8.240   2.557  0.00  0.00    +0.000 C 
ATOM     18  H   UNL     1       5.736   9.059   3.102  0.00  0.00    +0.000 HD
ATOM     19  H   UNL     1       5.900   7.990   1.706  0.00  0.00    +0.000 HD
BRANCH  17  20
ATOM     20  C   UNL     1       3.884   8.698   2.043  0.00  0.00    +0.000 C 
ATOM     21  H   UNL     1       3.493   9.485   2.701  0.00  0.00    +0.000 HD
ATOM     22  H   UNL     1       3.175   7.863   2.101  0.00  0.00    +0.000 HD
BRANCH  20  23
ATOM     23  C   UNL     1       3.943   9.216   0.608  0.00  0.00    +0.000 C 
ATOM     24  H   UNL     1       4.866   8.871   0.129  0.00  0.00    +0.000 HD
ATOM     25  H   UNL     1       3.085   8.831   0.046  0.00  0.00    +0.000 HD
BRANCH  23  27
ATOM     26  O   UNL     1       3.249  11.425   1.288  0.00  0.00    +0.000 OA
ATOM     27  C   UNL     1       3.911  10.723   0.535  0.00  0.00    +0.000 C 
BRANCH  27  28
ATOM     28  O   UNL     1       4.714  11.159  -0.477  0.00  0.00    +0.000 OA
BRANCH  28  29
ATOM     29  C   UNL     1       6.051  11.502  -0.097  0.00  0.00    +0.000 C 
ATOM     30  H   UNL     1       6.771  10.992  -0.744  0.00  0.00    +0.000 HD
ATOM     31  H   UNL     1       6.208  11.171   0.933  0.00  0.00    +0.000 HD
ATOM     32  H   UNL     1       6.192  12.587  -0.142  0.00  0.00    +0.000 HD
ENDBRANCH  28  29
ENDBRANCH  27  28
ENDBRANCH  23  27
ENDBRANCH  20  23
ENDBRANCH  17  20
ENDBRANCH   1  17
TORSDOF 10
ENDMDL
MODEL 3
REMARK VINA RESULT:    -4.487     13.225     14.810
REMARK INTER + INTRA:          -7.392
REMARK INTER:                  -6.782
REMARK INTRA:                  -0.610
REMARK UNBOUND:                -0.545
REMARK  Name = 15606
REMARK  10 active torsions:
REMARK  status: ('A' for Active; 'I' for Inactive)
REMARK    1  A    between atoms: O_1  and  C_11
REMARK    2  A    between atoms: O_1  and  C_12
REMARK    3  A    between atoms: C_3  and  C_4
REMARK    4  A    between atoms: C_3  and  C_5
REMARK    5  A    between atoms: C_4  and  C_6
REMARK    6  A    between atoms: C_5  and  C_7
REMARK    7  A    between atoms: C_6  and  C_8
REMARK    8  A    between atoms: C_7  and  C_9
REMARK    9  A    between atoms: C_8  and  C_10
REMARK   10  A    between atoms: C_9  and  C_11
REMARK                            x       y       z     vdW  Elec       q    Type
REMARK                         _______ _______ _______ _____ _____    ______ ____
ROOT
ATOM      1  C   UNL     1       6.611   7.893   1.096  0.00  0.00    +0.000 C 
ATOM      2  H   UNL     1       7.569   7.685   1.588  0.00  0.00    +0.000 HD
ATOM      3  H   UNL     1       6.205   6.926   0.773  0.00  0.00    +0.000 HD
ENDROOT
BRANCH   1   4
ATOM      4  C   UNL     1       6.863   8.763  -0.139  0.00  0.00    +0.000 C 
ATOM      5  H   UNL     1       7.410   8.176  -0.888  0.00  0.00    +0.000 HD
ATOM      6  H   UNL     1       5.898   9.026  -0.589  0.00  0.00    +0.000 HD
BRANCH   4   7
ATOM      7  C   UNL     1       7.646  10.043   0.166  0.00  0.00    +0.000 C 
ATOM      8  H   UNL     1       7.837  10.108   1.244  0.00  0.00    +0.000 HD
ATOM      9  H   UNL     1       7.039  10.913  -0.109  0.00  0.00    +0.000 HD
BRANCH   7  10
ATOM     10  C   UNL     1       8.969  10.078  -0.600  0.00  0.00    +0.000 C 
ATOM     11  H   UNL     1       9.809  10.045   0.103  0.00  0.00    +0.000 HD
ATOM     12  H   UNL     1       9.050  11.017  -1.159  0.00  0.00    +0.000 HD
BRANCH  10  13
ATOM     13  C   UNL     1       9.084   8.909  -1.566  0.00  0.00    +0.000 C 
ATOM     14  H   UNL     1       8.481   8.060  -1.227  0.00  0.00    +0.000 HD
ATOM     15  H   UNL     1      10.124   8.577  -1.658  0.00  0.00    +0.000 HD
ATOM     16  H   UNL     1       8.732   9.202  -2.559  0.00  0.00    +0.000 HD
ENDBRANCH  10  13
ENDBRANCH   7  10
ENDBRANCH   4   7
ENDBRANCH   1   4
BRANCH   1  17
ATOM     17  C   UNL     1       5.653   8.532   2.104  0.00  0.00    +0.000 C 
ATOM     18  H   UNL     1       5.592   7.907   3.003  0.00  0.00    +0.000 HD
ATOM     19  H   UNL     1       6.045   9.508   2.414  0.00  0.00    +0.000 HD
BRANCH  17  20
ATOM     20  C   UNL     1       4.255   8.707   1.502  0.00  0.00    +0.000 C 
ATOM     21  H   UNL     1       3.570   7.976   1.951  0.00  0.00    +0.000 HD
ATOM     22  H   UNL     1       4.289   8.483   0.428  0.00  0.00    +0.000 HD
BRANCH  20  23
ATOM     23  C   UNL     1       3.703  10.116   1.709  0.00  0.00    +0.000 C 
ATOM     24  H   UNL     1       2.622  10.067   1.880  0.00  0.00    +0.000 HD
ATOM     25  H   UNL     1       4.182  10.570   2.583  0.00  0.00    +0.000 HD
BRANCH  23  27
ATOM     26  O   UNL     1       4.376  12.157   0.611  0.00  0.00    +0.000 OA
ATOM     27  C   UNL     1       3.950  11.013   0.521  0.00  0.00    +0.000 C 
BRANCH  27  28
ATOM     28  O   UNL     1       3.627  10.361  -0.632  0.00  0.00    +0.000 OA
BRANCH  28  29
ATOM     29  C   UNL     1       3.155  11.192  -1.697  0.00  0.00    +0.000 C 
ATOM     30  H   UNL     1       3.584  12.195  -1.614  0.00  0.00    +0.000 HD
ATOM     31  H   UNL     1       2.067  11.266  -1.615  0.00  0.00    +0.000 HD
ATOM     32  H   UNL     1       3.403  10.745  -2.666  0.00  0.00    +0.000 HD
ENDBRANCH  28  29
ENDBRANCH  27  28
ENDBRANCH  23  27
ENDBRANCH  20  23
ENDBRANCH  17  20
ENDBRANCH   1  17
TORSDOF 10
ENDMDL
MODEL 4
REMARK VINA RESULT:    -4.476     25.247     27.857
REMARK INTER + INTRA:          -7.377
REMARK INTER:                  -6.906
REMARK INTRA:                  -0.471
REMARK UNBOUND:                -0.545
REMARK  Name = 15606
REMARK  10 active torsions:
REMARK  status: ('A' for Active; 'I' for Inactive)
REMARK    1  A    between atoms: O_1  and  C_11
REMARK    2  A    between atoms: O_1  and  C_12
REMARK    3  A    between atoms: C_3  and  C_4
REMARK    4  A    between atoms: C_3  and  C_5
REMARK    5  A    between atoms: C_4  and  C_6
REMARK    6  A    between atoms: C_5  and  C_7
REMARK    7  A    between atoms: C_6  and  C_8
REMARK    8  A    between atoms: C_7  and  C_9
REMARK    9  A    between atoms: C_8  and  C_10
REMARK   10  A    between atoms: C_9  and  C_11
REMARK                            x       y       z     vdW  Elec       q    Type
REMARK                         _______ _______ _______ _____ _____    ______ ____
ROOT
ATOM      1  C   UNL     1     -20.822  -2.303   4.740  0.00  0.00    +0.000 C 
ATOM      2  H   UNL     1     -20.024  -2.310   3.988  0.00  0.00    +0.000 HD
ATOM      3  H   UNL     1     -21.772  -2.350   4.194  0.00  0.00    +0.000 HD
ENDROOT
BRANCH   1   4
ATOM      4  C   UNL     1     -20.762  -0.985   5.518  0.00  0.00    +0.000 C 
ATOM      5  H   UNL     1     -20.107  -0.282   4.987  0.00  0.00    +0.000 HD
ATOM      6  H   UNL     1     -21.762  -0.535   5.530  0.00  0.00    +0.000 HD
BRANCH   4   7
ATOM      7  C   UNL     1     -20.263  -1.147   6.956  0.00  0.00    +0.000 C 
ATOM      8  H   UNL     1     -19.292  -0.650   7.066  0.00  0.00    +0.000 HD
ATOM      9  H   UNL     1     -20.108  -2.212   7.168  0.00  0.00    +0.000 HD
BRANCH   7  10
ATOM     10  C   UNL     1     -21.262  -0.566   7.957  0.00  0.00    +0.000 C 
ATOM     11  H   UNL     1     -21.293   0.526   7.864  0.00  0.00    +0.000 HD
ATOM     12  H   UNL     1     -20.940  -0.795   8.980  0.00  0.00    +0.000 HD
BRANCH  10  13
ATOM     13  C   UNL     1     -22.659  -1.122   7.736  0.00  0.00    +0.000 C 
ATOM     14  H   UNL     1     -23.184  -0.564   6.954  0.00  0.00    +0.000 HD
ATOM     15  H   UNL     1     -23.254  -1.069   8.654  0.00  0.00    +0.000 HD
ATOM     16  H   UNL     1     -22.606  -2.170   7.427  0.00  0.00    +0.000 HD
ENDBRANCH  10  13
ENDBRANCH   7  10
ENDBRANCH   4   7
ENDBRANCH   1   4
BRANCH   1  17
ATOM     17  C   UNL     1     -20.690  -3.540   5.631  0.00  0.00    +0.000 C 
ATOM     18  H   UNL     1     -20.306  -3.248   6.615  0.00  0.00    +0.000 HD
ATOM     19  H   UNL     1     -21.679  -3.986   5.787  0.00  0.00    +0.000 HD
BRANCH  17  20
ATOM     20  C   UNL     1     -19.754  -4.577   4.999  0.00  0.00    +0.000 C 
ATOM     21  H   UNL     1     -19.526  -5.359   5.736  0.00  0.00    +0.000 HD
ATOM     22  H   UNL     1     -18.799  -4.100   4.746  0.00  0.00    +0.000 HD
BRANCH  20  23
ATOM     23  C   UNL     1     -20.350  -5.215   3.747  0.00  0.00    +0.000 C 
ATOM     24  H   UNL     1     -20.968  -6.075   4.029  0.00  0.00    +0.000 HD
ATOM     25  H   UNL     1     -20.977  -4.482   3.227  0.00  0.00    +0.000 HD
BRANCH  23  27
ATOM     26  O   UNL     1     -19.458  -6.619   1.998  0.00  0.00    +0.000 OA
ATOM     27  C   UNL     1     -19.293  -5.694   2.783  0.00  0.00    +0.000 C 
BRANCH  27  28
ATOM     28  O   UNL     1     -18.158  -4.952   2.927  0.00  0.00    +0.000 OA
BRANCH  28  29
ATOM     29  C   UNL     1     -17.339  -4.846   1.759  0.00  0.00    +0.000 C 
ATOM     30  H   UNL     1     -17.877  -4.320   0.965  0.00  0.00    +0.000 HD
ATOM     31  H   UNL     1     -17.105  -5.857   1.414  0.00  0.00    +0.000 HD
ATOM     32  H   UNL     1     -16.402  -4.332   1.997  0.00  0.00    +0.000 HD
ENDBRANCH  28  29
ENDBRANCH  27  28
ENDBRANCH  23  27
ENDBRANCH  20  23
ENDBRANCH  17  20
ENDBRANCH   1  17
TORSDOF 10
ENDMDL
MODEL 5
REMARK VINA RESULT:    -4.428      1.108      2.446
REMARK INTER + INTRA:          -7.303
REMARK INTER:                  -6.542
REMARK INTRA:                  -0.760
REMARK UNBOUND:                -0.545
REMARK  Name = 15606
REMARK  10 active torsions:
REMARK  status: ('A' for Active; 'I' for Inactive)
REMARK    1  A    between atoms: O_1  and  C_11
REMARK    2  A    between atoms: O_1  and  C_12
REMARK    3  A    between atoms: C_3  and  C_4
REMARK    4  A    between atoms: C_3  and  C_5
REMARK    5  A    between atoms: C_4  and  C_6
REMARK    6  A    between atoms: C_5  and  C_7
REMARK    7  A    between atoms: C_6  and  C_8
REMARK    8  A    between atoms: C_7  and  C_9
REMARK    9  A    between atoms: C_8  and  C_10
REMARK   10  A    between atoms: C_9  and  C_11
REMARK                            x       y       z     vdW  Elec       q    Type
REMARK                         _______ _______ _______ _____ _____    ______ ____
ROOT
ATOM      1  C   UNL     1      -2.974   7.268 -12.266  0.00  0.00    +0.000 C 
ATOM      2  H   UNL     1      -2.991   8.320 -12.574  0.00  0.00    +0.000 HD
ATOM      3  H   UNL     1      -3.406   6.690 -13.092  0.00  0.00    +0.000 HD
ENDROOT
BRANCH   1   4
ATOM      4  C   UNL     1      -3.857   7.097 -11.026  0.00  0.00    +0.000 C 
ATOM      5  H   UNL     1      -4.457   8.004 -10.882  0.00  0.00    +0.000 HD
ATOM      6  H   UNL     1      -4.563   6.277 -11.205  0.00  0.00    +0.000 HD
BRANCH   4   7
ATOM      7  C   UNL     1      -3.064   6.811  -9.748  0.00  0.00    +0.000 C 
ATOM      8  H   UNL     1      -1.999   6.714  -9.991  0.00  0.00    +0.000 HD
ATOM      9  H   UNL     1      -3.389   5.853  -9.325  0.00  0.00    +0.000 HD
BRANCH   7  10
ATOM     10  C   UNL     1      -3.262   7.921  -8.714  0.00  0.00    +0.000 C 
ATOM     11  H   UNL     1      -2.903   7.586  -7.734  0.00  0.00    +0.000 HD
ATOM     12  H   UNL     1      -4.329   8.146  -8.610  0.00  0.00    +0.000 HD
BRANCH  10  13
ATOM     13  C   UNL     1      -2.518   9.187  -9.108  0.00  0.00    +0.000 C 
ATOM     14  H   UNL     1      -1.568   9.267  -8.569  0.00  0.00    +0.000 HD
ATOM     15  H   UNL     1      -3.115  10.078  -8.887  0.00  0.00    +0.000 HD
ATOM     16  H   UNL     1      -2.301   9.182 -10.180  0.00  0.00    +0.000 HD
ENDBRANCH  10  13
ENDBRANCH   7  10
ENDBRANCH   4   7
ENDBRANCH   1   4
BRANCH   1  17
ATOM     17  C   UNL     1      -1.525   6.829 -12.046  0.00  0.00    +0.000 C 
ATOM     18  H   UNL     1      -1.428   6.354 -11.063  0.00  0.00    +0.000 HD
ATOM     19  H   UNL     1      -1.251   6.079 -12.798  0.00  0.00    +0.000 HD
BRANCH  17  20
ATOM     20  C   UNL     1      -0.566   8.021 -12.138  0.00  0.00    +0.000 C 
ATOM     21  H   UNL     1       0.319   7.732 -12.720  0.00  0.00    +0.000 HD
ATOM     22  H   UNL     1      -0.208   8.280 -11.134  0.00  0.00    +0.000 HD
BRANCH  20  23
ATOM     23  C   UNL     1      -1.218   9.246 -12.775  0.00  0.00    +0.000 C 
ATOM     24  H   UNL     1      -2.158   8.955 -13.258  0.00  0.00    +0.000 HD
ATOM     25  H   UNL     1      -1.432   9.990 -12.001  0.00  0.00    +0.000 HD
BRANCH  23  27
ATOM     26  O   UNL     1      -0.358  11.090 -14.073  0.00  0.00    +0.000 OA
ATOM     27  C   UNL     1      -0.338   9.893 -13.816  0.00  0.00    +0.000 C 
BRANCH  27  28
ATOM     28  O   UNL     1       0.456   8.955 -14.406  0.00  0.00    +0.000 OA
BRANCH  28  29
ATOM     29  C   UNL     1       0.801   9.211 -15.771  0.00  0.00    +0.000 C 
ATOM     30  H   UNL     1       1.187  10.229 -15.880  0.00  0.00    +0.000 HD
ATOM     31  H   UNL     1      -0.105   9.112 -16.376  0.00  0.00    +0.000 HD
ATOM     32  H   UNL     1       1.537   8.480 -16.121  0.00  0.00    +0.000 HD
ENDBRANCH  28  29
ENDBRANCH  27  28
ENDBRANCH  23  27
ENDBRANCH  20  23
ENDBRANCH  17  20
ENDBRANCH   1  17
TORSDOF 10
ENDMDL
MODEL 6
REMARK VINA RESULT:    -4.407     13.778     15.110
REMARK INTER + INTRA:          -7.271
REMARK INTER:                  -6.481
REMARK INTRA:                  -0.791
REMARK UNBOUND:                -0.545
REMARK  Name = 15606
REMARK  10 active torsions:
REMARK  status: ('A' for Active; 'I' for Inactive)
REMARK    1  A    between atoms: O_1  and  C_11
REMARK    2  A    between atoms: O_1  and  C_12
REMARK    3  A    between atoms: C_3  and  C_4
REMARK    4  A    between atoms: C_3  and  C_5
REMARK    5  A    between atoms: C_4  and  C_6
REMARK    6  A    between atoms: C_5  and  C_7
REMARK    7  A    between atoms: C_6  and  C_8
REMARK    8  A    between atoms: C_7  and  C_9
REMARK    9  A    between atoms: C_8  and  C_10
REMARK   10  A    between atoms: C_9  and  C_11
REMARK                            x       y       z     vdW  Elec       q    Type
REMARK                         _______ _______ _______ _____ _____    ______ ____
ROOT
ATOM      1  C   UNL     1       5.000   7.969   3.739  0.00  0.00    +0.000 C 
ATOM      2  H   UNL     1       4.711   7.028   4.222  0.00  0.00    +0.000 HD
ATOM      3  H   UNL     1       4.846   8.765   4.478  0.00  0.00    +0.000 HD
ENDROOT
BRANCH   1   4
ATOM      4  C   UNL     1       4.077   8.218   2.542  0.00  0.00    +0.000 C 
ATOM      5  H   UNL     1       4.622   7.998   1.615  0.00  0.00    +0.000 HD
ATOM      6  H   UNL     1       3.238   7.514   2.589  0.00  0.00    +0.000 HD
BRANCH   4   7
ATOM      7  C   UNL     1       3.535   9.648   2.477  0.00  0.00    +0.000 C 
ATOM      8  H   UNL     1       4.101  10.287   3.166  0.00  0.00    +0.000 HD
ATOM      9  H   UNL     1       2.491   9.656   2.812  0.00  0.00    +0.000 HD
BRANCH   7  10
ATOM     10  C   UNL     1       3.623  10.210   1.058  0.00  0.00    +0.000 C 
ATOM     11  H   UNL     1       4.487  10.879   0.972  0.00  0.00    +0.000 HD
ATOM     12  H   UNL     1       2.729  10.805   0.837  0.00  0.00    +0.000 HD
BRANCH  10  13
ATOM     13  C   UNL     1       3.752   9.100   0.027  0.00  0.00    +0.000 C 
ATOM     14  H   UNL     1       3.232   9.363  -0.900  0.00  0.00    +0.000 HD
ATOM     15  H   UNL     1       3.330   8.162   0.404  0.00  0.00    +0.000 HD
ATOM     16  H   UNL     1       4.805   8.925  -0.212  0.00  0.00    +0.000 HD
ENDBRANCH  10  13
ENDBRANCH   7  10
ENDBRANCH   4   7
ENDBRANCH   1   4
BRANCH   1  17
ATOM     17  C   UNL     1       6.482   7.910   3.362  0.00  0.00    +0.000 C 
ATOM     18  H   UNL     1       7.007   8.769   3.795  0.00  0.00    +0.000 HD
ATOM     19  H   UNL     1       6.932   7.005   3.787  0.00  0.00    +0.000 HD
BRANCH  17  20
ATOM     20  C   UNL     1       6.665   7.907   1.840  0.00  0.00    +0.000 C 
ATOM     21  H   UNL     1       5.681   7.892   1.355  0.00  0.00    +0.000 HD
ATOM     22  H   UNL     1       7.177   6.985   1.536  0.00  0.00    +0.000 HD
BRANCH  20  23
ATOM     23  C   UNL     1       7.459   9.115   1.346  0.00  0.00    +0.000 C 
ATOM     24  H   UNL     1       6.982  10.037   1.696  0.00  0.00    +0.000 HD
ATOM     25  H   UNL     1       8.478   9.069   1.743  0.00  0.00    +0.000 HD
BRANCH  23  27
ATOM     26  O   UNL     1       7.366   8.205  -0.888  0.00  0.00    +0.000 OA
ATOM     27  C   UNL     1       7.545   9.173  -0.159  0.00  0.00    +0.000 C 
BRANCH  27  28
ATOM     28  O   UNL     1       7.848  10.440  -0.561  0.00  0.00    +0.000 OA
BRANCH  28  29
ATOM     29  C   UNL     1       6.726  11.272  -0.870  0.00  0.00    +0.000 C 
ATOM     30  H   UNL     1       5.906  11.076  -0.173  0.00  0.00    +0.000 HD
ATOM     31  H   UNL     1       6.391  11.032  -1.883  0.00  0.00    +0.000 HD
ATOM     32  H   UNL     1       7.016  12.328  -0.839  0.00  0.00    +0.000 HD
ENDBRANCH  28  29
ENDBRANCH  27  28
ENDBRANCH  23  27
ENDBRANCH  20  23
ENDBRANCH  17  20
ENDBRANCH   1  17
TORSDOF 10
ENDMDL
MODEL 7
REMARK VINA RESULT:    -4.334     19.377     21.699
REMARK INTER + INTRA:          -7.160
REMARK INTER:                  -6.714
REMARK INTRA:                  -0.447
REMARK UNBOUND:                -0.545
REMARK  Name = 15606
REMARK  10 active torsions:
REMARK  status: ('A' for Active; 'I' for Inactive)
REMARK    1  A    between atoms: O_1  and  C_11
REMARK    2  A    between atoms: O_1  and  C_12
REMARK    3  A    between atoms: C_3  and  C_4
REMARK    4  A    between atoms: C_3  and  C_5
REMARK    5  A    between atoms: C_4  and  C_6
REMARK    6  A    between atoms: C_5  and  C_7
REMARK    7  A    between atoms: C_6  and  C_8
REMARK    8  A    between atoms: C_7  and  C_9
REMARK    9  A    between atoms: C_8  and  C_10
REMARK   10  A    between atoms: C_9  and  C_11
REMARK                            x       y       z     vdW  Elec       q    Type
REMARK                         _______ _______ _______ _____ _____    ______ ____
ROOT
ATOM      1  C   UNL     1      -9.265  11.399   6.356  0.00  0.00    +0.000 C 
ATOM      2  H   UNL     1     -10.218  10.858   6.314  0.00  0.00    +0.000 HD
ATOM      3  H   UNL     1      -9.488  12.403   6.738  0.00  0.00    +0.000 HD
ENDROOT
BRANCH   1   4
ATOM      4  C   UNL     1      -8.698  11.522   4.939  0.00  0.00    +0.000 C 
ATOM      5  H   UNL     1      -8.894  10.592   4.390  0.00  0.00    +0.000 HD
ATOM      6  H   UNL     1      -9.236  12.319   4.411  0.00  0.00    +0.000 HD
BRANCH   4   7
ATOM      7  C   UNL     1      -7.197  11.818   4.907  0.00  0.00    +0.000 C 
ATOM      8  H   UNL     1      -6.758  11.388   3.998  0.00  0.00    +0.000 HD
ATOM      9  H   UNL     1      -6.712  11.331   5.761  0.00  0.00    +0.000 HD
BRANCH   7  10
ATOM     10  C   UNL     1      -6.927  13.322   4.953  0.00  0.00    +0.000 C 
ATOM     11  H   UNL     1      -7.867  13.874   4.835  0.00  0.00    +0.000 HD
ATOM     12  H   UNL     1      -6.276  13.610   4.121  0.00  0.00    +0.000 HD
BRANCH  10  13
ATOM     13  C   UNL     1      -6.275  13.730   6.265  0.00  0.00    +0.000 C 
ATOM     14  H   UNL     1      -6.499  13.006   7.055  0.00  0.00    +0.000 HD
ATOM     15  H   UNL     1      -6.628  14.715   6.590  0.00  0.00    +0.000 HD
ATOM     16  H   UNL     1      -5.188  13.781   6.148  0.00  0.00    +0.000 HD
ENDBRANCH  10  13
ENDBRANCH   7  10
ENDBRANCH   4   7
ENDBRANCH   1   4
BRANCH   1  17
ATOM     17  C   UNL     1      -8.322  10.687   7.329  0.00  0.00    +0.000 C 
ATOM     18  H   UNL     1      -7.386  10.435   6.817  0.00  0.00    +0.000 HD
ATOM     19  H   UNL     1      -8.069  11.363   8.154  0.00  0.00    +0.000 HD
BRANCH  17  20
ATOM     20  C   UNL     1      -8.964   9.413   7.888  0.00  0.00    +0.000 C 
ATOM     21  H   UNL     1      -9.325   8.792   7.057  0.00  0.00    +0.000 HD
ATOM     22  H   UNL     1      -9.846   9.680   8.484  0.00  0.00    +0.000 HD
BRANCH  20  23
ATOM     23  C   UNL     1      -7.998   8.602   8.748  0.00  0.00    +0.000 C 
ATOM     24  H   UNL     1      -8.138   7.533   8.553  0.00  0.00    +0.000 HD
ATOM     25  H   UNL     1      -6.968   8.877   8.497  0.00  0.00    +0.000 HD
BRANCH  23  27
ATOM     26  O   UNL     1      -7.968   9.907  10.779  0.00  0.00    +0.000 OA
ATOM     27  C   UNL     1      -8.199   8.840  10.225  0.00  0.00    +0.000 C 
BRANCH  27  28
ATOM     28  O   UNL     1      -8.664   7.705  10.821  0.00  0.00    +0.000 OA
BRANCH  28  29
ATOM     29  C   UNL     1      -9.874   7.855  11.570  0.00  0.00    +0.000 C 
ATOM     30  H   UNL     1      -9.648   8.023  12.627  0.00  0.00    +0.000 HD
ATOM     31  H   UNL     1     -10.450   6.931  11.476  0.00  0.00    +0.000 HD
ATOM     32  H   UNL     1     -10.470   8.681  11.167  0.00  0.00    +0.000 HD
ENDBRANCH  28  29
ENDBRANCH  27  28
ENDBRANCH  23  27
ENDBRANCH  20  23
ENDBRANCH  17  20
ENDBRANCH   1  17
TORSDOF 10
ENDMDL
MODEL 8
REMARK VINA RESULT:    -4.301     26.572     28.634
REMARK INTER + INTRA:          -7.109
REMARK INTER:                  -6.632
REMARK INTRA:                  -0.477
REMARK UNBOUND:                -0.545
REMARK  Name = 15606
REMARK  10 active torsions:
REMARK  status: ('A' for Active; 'I' for Inactive)
REMARK    1  A    between atoms: O_1  and  C_11
REMARK    2  A    between atoms: O_1  and  C_12
REMARK    3  A    between atoms: C_3  and  C_4
REMARK    4  A    between atoms: C_3  and  C_5
REMARK    5  A    between atoms: C_4  and  C_6
REMARK    6  A    between atoms: C_5  and  C_7
REMARK    7  A    between atoms: C_6  and  C_8
REMARK    8  A    between atoms: C_7  and  C_9
REMARK    9  A    between atoms: C_8  and  C_10
REMARK   10  A    between atoms: C_9  and  C_11
REMARK                            x       y       z     vdW  Elec       q    Type
REMARK                         _______ _______ _______ _____ _____    ______ ____
ROOT
ATOM      1  C   UNL     1     -20.694  -3.227   4.895  0.00  0.00    +0.000 C 
ATOM      2  H   UNL     1     -19.820  -3.160   5.553  0.00  0.00    +0.000 HD
ATOM      3  H   UNL     1     -21.484  -3.727   5.468  0.00  0.00    +0.000 HD
ENDROOT
BRANCH   1   4
ATOM      4  C   UNL     1     -20.339  -4.092   3.681  0.00  0.00    +0.000 C 
ATOM      5  H   UNL     1     -21.213  -4.693   3.398  0.00  0.00    +0.000 HD
ATOM      6  H   UNL     1     -20.120  -3.435   2.831  0.00  0.00    +0.000 HD
BRANCH   4   7
ATOM      7  C   UNL     1     -19.147  -5.022   3.923  0.00  0.00    +0.000 C 
ATOM      8  H   UNL     1     -19.506  -6.048   4.065  0.00  0.00    +0.000 HD
ATOM      9  H   UNL     1     -18.637  -4.725   4.847  0.00  0.00    +0.000 HD
BRANCH   7  10
ATOM     10  C   UNL     1     -18.161  -4.972   2.755  0.00  0.00    +0.000 C 
ATOM     11  H   UNL     1     -17.720  -5.963   2.596  0.00  0.00    +0.000 HD
ATOM     12  H   UNL     1     -17.340  -4.286   2.990  0.00  0.00    +0.000 HD
BRANCH  10  13
ATOM     13  C   UNL     1     -18.841  -4.521   1.472  0.00  0.00    +0.000 C 
ATOM     14  H   UNL     1     -18.140  -3.982   0.826  0.00  0.00    +0.000 HD
ATOM     15  H   UNL     1     -19.689  -3.862   1.686  0.00  0.00    +0.000 HD
ATOM     16  H   UNL     1     -19.216  -5.386   0.917  0.00  0.00    +0.000 HD
ENDBRANCH  10  13
ENDBRANCH   7  10
ENDBRANCH   4   7
ENDBRANCH   1   4
BRANCH   1  17
ATOM     17  C   UNL     1     -21.157  -1.817   4.522  0.00  0.00    +0.000 C 
ATOM     18  H   UNL     1     -20.801  -1.565   3.516  0.00  0.00    +0.000 HD
ATOM     19  H   UNL     1     -22.253  -1.787   4.495  0.00  0.00    +0.000 HD
BRANCH  17  20
ATOM     20  C   UNL     1     -20.640  -0.782   5.526  0.00  0.00    +0.000 C 
ATOM     21  H   UNL     1     -21.418  -0.029   5.707  0.00  0.00    +0.000 HD
ATOM     22  H   UNL     1     -19.784  -0.248   5.093  0.00  0.00    +0.000 HD
BRANCH  20  23
ATOM     23  C   UNL     1     -20.224  -1.414   6.853  0.00  0.00    +0.000 C 
ATOM     24  H   UNL     1     -20.037  -2.484   6.709  0.00  0.00    +0.000 HD
ATOM     25  H   UNL     1     -19.305  -0.937   7.211  0.00  0.00    +0.000 HD
BRANCH  23  27
ATOM     26  O   UNL     1     -21.562  -0.193   8.448  0.00  0.00    +0.000 OA
ATOM     27  C   UNL     1     -21.278  -1.261   7.921  0.00  0.00    +0.000 C 
BRANCH  27  28
ATOM     28  O   UNL     1     -21.842  -2.472   8.197  0.00  0.00    +0.000 OA
BRANCH  28  29
ATOM     29  C   UNL     1     -23.219  -2.607   7.829  0.00  0.00    +0.000 C 
ATOM     30  H   UNL     1     -23.656  -1.624   7.629  0.00  0.00    +0.000 HD
ATOM     31  H   UNL     1     -23.752  -3.065   8.665  0.00  0.00    +0.000 HD
ATOM     32  H   UNL     1     -23.315  -3.257   6.953  0.00  0.00    +0.000 HD
ENDBRANCH  28  29
ENDBRANCH  27  28
ENDBRANCH  23  27
ENDBRANCH  20  23
ENDBRANCH  17  20
ENDBRANCH   1  17
TORSDOF 10
ENDMDL
MODEL 9
REMARK VINA RESULT:    -4.002     19.126     21.594
REMARK INTER + INTRA:          -6.652
REMARK INTER:                  -6.107
REMARK INTRA:                  -0.545
REMARK UNBOUND:                -0.545
REMARK  Name = 15606
REMARK  10 active torsions:
REMARK  status: ('A' for Active; 'I' for Inactive)
REMARK    1  A    between atoms: O_1  and  C_11
REMARK    2  A    between atoms: O_1  and  C_12
REMARK    3  A    between atoms: C_3  and  C_4
REMARK    4  A    between atoms: C_3  and  C_5
REMARK    5  A    between atoms: C_4  and  C_6
REMARK    6  A    between atoms: C_5  and  C_7
REMARK    7  A    between atoms: C_6  and  C_8
REMARK    8  A    between atoms: C_7  and  C_9
REMARK    9  A    between atoms: C_8  and  C_10
REMARK   10  A    between atoms: C_9  and  C_11
REMARK                            x       y       z     vdW  Elec       q    Type
REMARK                         _______ _______ _______ _____ _____    ______ ____
ROOT
ATOM      1  C   UNL     1      -9.500  10.913   7.449  0.00  0.00    +0.000 C 
ATOM      2  H   UNL     1     -10.240  11.066   6.655  0.00  0.00    +0.000 HD
ATOM      3  H   UNL     1      -9.701  11.669   8.218  0.00  0.00    +0.000 HD
ENDROOT
BRANCH   1   4
ATOM      4  C   UNL     1      -8.099  11.149   6.876  0.00  0.00    +0.000 C 
ATOM      5  H   UNL     1      -7.710  12.102   7.256  0.00  0.00    +0.000 HD
ATOM      6  H   UNL     1      -7.428  10.364   7.248  0.00  0.00    +0.000 HD
BRANCH   4   7
ATOM      7  C   UNL     1      -8.060  11.164   5.346  0.00  0.00    +0.000 C 
ATOM      8  H   UNL     1      -9.072  11.324   4.955  0.00  0.00    +0.000 HD
ATOM      9  H   UNL     1      -7.722  10.187   4.982  0.00  0.00    +0.000 HD
BRANCH   7  10
ATOM     10  C   UNL     1      -7.123  12.256   4.827  0.00  0.00    +0.000 C 
ATOM     11  H   UNL     1      -6.663  11.936   3.885  0.00  0.00    +0.000 HD
ATOM     12  H   UNL     1      -6.312  12.422   5.545  0.00  0.00    +0.000 HD
BRANCH  10  13
ATOM     13  C   UNL     1      -7.865  13.563   4.597  0.00  0.00    +0.000 C 
ATOM     14  H   UNL     1      -7.521  14.053   3.681  0.00  0.00    +0.000 HD
ATOM     15  H   UNL     1      -7.714  14.253   5.434  0.00  0.00    +0.000 HD
ATOM     16  H   UNL     1      -8.939  13.377   4.501  0.00  0.00    +0.000 HD
ENDBRANCH  10  13
ENDBRANCH   7  10
ENDBRANCH   4   7
ENDBRANCH   1   4
BRANCH   1  17
ATOM     17  C   UNL     1      -9.684   9.518   8.051  0.00  0.00    +0.000 C 
ATOM     18  H   UNL     1     -10.199   9.597   9.015  0.00  0.00    +0.000 HD
ATOM     19  H   UNL     1     -10.319   8.915   7.391  0.00  0.00    +0.000 HD
BRANCH  17  20
ATOM     20  C   UNL     1      -8.334   8.818   8.244  0.00  0.00    +0.000 C 
ATOM     21  H   UNL     1      -7.535   9.445   7.828  0.00  0.00    +0.000 HD
ATOM     22  H   UNL     1      -8.324   7.881   7.673  0.00  0.00    +0.000 HD
BRANCH  20  23
ATOM     23  C   UNL     1      -8.036   8.520   9.712  0.00  0.00    +0.000 C 
ATOM     24  H   UNL     1      -8.945   8.160  10.207  0.00  0.00    +0.000 HD
ATOM     25  H   UNL     1      -7.265   7.745   9.777  0.00  0.00    +0.000 HD
BRANCH  23  27
ATOM     26  O   UNL     1      -8.230  10.369  11.251  0.00  0.00    +0.000 OA
ATOM     27  C   UNL     1      -7.544   9.735  10.460  0.00  0.00    +0.000 C 
BRANCH  27  28
ATOM     28  O   UNL     1      -6.252  10.002  10.117  0.00  0.00    +0.000 OA
BRANCH  28  29
ATOM     29  C   UNL     1      -5.880  11.384  10.152  0.00  0.00    +0.000 C 
ATOM     30  H   UNL     1      -6.706  12.007   9.796  0.00  0.00    +0.000 HD
ATOM     31  H   UNL     1      -5.023  11.523   9.488  0.00  0.00    +0.000 HD
ATOM     32  H   UNL     1      -5.588  11.674  11.167  0.00  0.00    +0.000 HD
ENDBRANCH  28  29
ENDBRANCH  27  28
ENDBRANCH  23  27
ENDBRANCH  20  23
ENDBRANCH  17  20
ENDBRANCH   1  17
TORSDOF 10
ENDMDL
MODEL 10
REMARK VINA RESULT:    -3.983     19.088     21.538
REMARK INTER + INTRA:          -6.624
REMARK INTER:                  -6.096
REMARK INTRA:                  -0.528
REMARK UNBOUND:                -0.545
REMARK  Name = 15606
REMARK  10 active torsions:
REMARK  status: ('A' for Active; 'I' for Inactive)
REMARK    1  A    between atoms: O_1  and  C_11
REMARK    2  A    between atoms: O_1  and  C_12
REMARK    3  A    between atoms: C_3  and  C_4
REMARK    4  A    between atoms: C_3  and  C_5
REMARK    5  A    between atoms: C_4  and  C_6
REMARK    6  A    between atoms: C_5  and  C_7
REMARK    7  A    between atoms: C_6  and  C_8
REMARK    8  A    between atoms: C_7  and  C_9
REMARK    9  A    between atoms: C_8  and  C_10
REMARK   10  A    between atoms: C_9  and  C_11
REMARK                            x       y       z     vdW  Elec       q    Type
REMARK                         _______ _______ _______ _____ _____    ______ ____
ROOT
ATOM      1  C   UNL     1      -6.526  14.275   6.824  0.00  0.00    +0.000 C 
ATOM      2  H   UNL     1      -7.618  14.302   6.909  0.00  0.00    +0.000 HD
ATOM      3  H   UNL     1      -6.182  15.317   6.839  0.00  0.00    +0.000 HD
ENDROOT
BRANCH   1   4
ATOM      4  C   UNL     1      -6.144  13.645   5.482  0.00  0.00    +0.000 C 
ATOM      5  H   UNL     1      -5.620  14.391   4.870  0.00  0.00    +0.000 HD
ATOM      6  H   UNL     1      -5.433  12.830   5.663  0.00  0.00    +0.000 HD
BRANCH   4   7
ATOM      7  C   UNL     1      -7.343  13.106   4.698  0.00  0.00    +0.000 C 
ATOM      8  H   UNL     1      -7.361  13.557   3.698  0.00  0.00    +0.000 HD
ATOM      9  H   UNL     1      -8.270  13.403   5.203  0.00  0.00    +0.000 HD
BRANCH   7  10
ATOM     10  C   UNL     1      -7.288  11.583   4.580  0.00  0.00    +0.000 C 
ATOM     11  H   UNL     1      -6.264  11.231   4.752  0.00  0.00    +0.000 HD
ATOM     12  H   UNL     1      -7.570  11.277   3.566  0.00  0.00    +0.000 HD
BRANCH  10  13
ATOM     13  C   UNL     1      -8.216  10.913   5.582  0.00  0.00    +0.000 C 
ATOM     14  H   UNL     1      -8.716  10.048   5.135  0.00  0.00    +0.000 HD
ATOM     15  H   UNL     1      -8.983  11.611   5.934  0.00  0.00    +0.000 HD
ATOM     16  H   UNL     1      -7.649  10.567   6.451  0.00  0.00    +0.000 HD
ENDBRANCH  10  13
ENDBRANCH   7  10
ENDBRANCH   4   7
ENDBRANCH   1   4
BRANCH   1  17
ATOM     17  C   UNL     1      -5.943  13.535   8.030  0.00  0.00    +0.000 C 
ATOM     18  H   UNL     1      -5.071  12.949   7.719  0.00  0.00    +0.000 HD
ATOM     19  H   UNL     1      -5.598  14.262   8.775  0.00  0.00    +0.000 HD
BRANCH  17  20
ATOM     20  C   UNL     1      -6.986  12.607   8.665  0.00  0.00    +0.000 C 
ATOM     21  H   UNL     1      -7.367  11.913   7.905  0.00  0.00    +0.000 HD
ATOM     22  H   UNL     1      -7.845  13.201   9.004  0.00  0.00    +0.000 HD
BRANCH  20  23
ATOM     23  C   UNL     1      -6.422  11.815   9.842  0.00  0.00    +0.000 C 
ATOM     24  H   UNL     1      -5.422  11.443   9.591  0.00  0.00    +0.000 HD
ATOM     25  H   UNL     1      -6.349  12.467  10.719  0.00  0.00    +0.000 HD
BRANCH  23  27
ATOM     26  O   UNL     1      -7.303   9.584   9.577  0.00  0.00    +0.000 OA
ATOM     27  C   UNL     1      -7.284  10.632  10.209  0.00  0.00    +0.000 C 
BRANCH  27  28
ATOM     28  O   UNL     1      -8.018  10.916  11.323  0.00  0.00    +0.000 OA
BRANCH  28  29
ATOM     29  C   UNL     1      -9.321  10.327  11.367  0.00  0.00    +0.000 C 
ATOM     30  H   UNL     1      -9.353   9.429  10.743  0.00  0.00    +0.000 HD
ATOM     31  H   UNL     1     -10.037  11.054  10.974  0.00  0.00    +0.000 HD
ATOM     32  H   UNL     1      -9.596  10.089  12.400  0.00  0.00    +0.000 HD
ENDBRANCH  28  29
ENDBRANCH  27  28
ENDBRANCH  23  27
ENDBRANCH  20  23
ENDBRANCH  17  20
ENDBRANCH   1  17
TORSDOF 10
ENDMDL
