MODEL 1
REMARK VINA RESULT:    -5.052      0.000      0.000
REMARK INTER + INTRA:          -8.340
REMARK INTER:                  -7.665
REMARK INTRA:                  -0.675
REMARK UNBOUND:                -0.335
REMARK  Name = 8050
REMARK  11 active torsions:
REMARK  status: ('A' for Active; 'I' for Inactive)
REMARK    1  A    between atoms: O_1  and  C_12
REMARK    2  A    between atoms: O_1  and  C_13
REMARK    3  A    between atoms: C_3  and  C_4
REMARK    4  A    between atoms: C_3  and  C_5
REMARK    5  A    between atoms: C_4  and  C_6
REMARK    6  A    between atoms: C_5  and  C_7
REMARK    7  A    between atoms: C_6  and  C_8
REMARK    8  A    between atoms: C_7  and  C_9
REMARK    9  A    between atoms: C_8  and  C_10
REMARK   10  A    between atoms: C_9  and  C_11
REMARK   11  A    between atoms: C_10  and  C_12
REMARK                            x       y       z     vdW  Elec       q    Type
REMARK                         _______ _______ _______ _____ _____    ______ ____
ROOT
ATOM      1  C   UNL     1       8.165   9.887  -0.084  0.00  0.00    +0.000 C 
ATOM      2  H   UNL     1       8.491  10.882  -0.412  0.00  0.00    +0.000 HD
ATOM      3  H   UNL     1       8.818   9.155  -0.575  0.00  0.00    +0.000 HD
ENDROOT
BRANCH   1   4
ATOM      4  C   UNL     1       8.320   9.772   1.435  0.00  0.00    +0.000 C 
ATOM      5  H   UNL     1       9.339   9.448   1.680  0.00  0.00    +0.000 HD
ATOM      6  H   UNL     1       8.173  10.756   1.896  0.00  0.00    +0.000 HD
BRANCH   4   7
ATOM      7  C   UNL     1       7.313   8.779   2.021  0.00  0.00    +0.000 C 
ATOM      8  H   UNL     1       7.492   7.786   1.590  0.00  0.00    +0.000 HD
ATOM      9  H   UNL     1       6.300   9.076   1.724  0.00  0.00    +0.000 HD
BRANCH   7  10
ATOM     10  C   UNL     1       7.374   8.681   3.547  0.00  0.00    +0.000 C 
ATOM     11  H   UNL     1       7.460   9.690   3.970  0.00  0.00    +0.000 HD
ATOM     12  H   UNL     1       8.284   8.140   3.832  0.00  0.00    +0.000 HD
BRANCH  10  13
ATOM     13  C   UNL     1       6.158   7.984   4.160  0.00  0.00    +0.000 C 
ATOM     14  H   UNL     1       6.383   7.678   5.188  0.00  0.00    +0.000 HD
ATOM     15  H   UNL     1       5.313   8.682   4.205  0.00  0.00    +0.000 HD
BRANCH  13  16
ATOM     16  C   UNL     1       5.752   6.763   3.348  0.00  0.00    +0.000 C 
ATOM     17  H   UNL     1       6.562   6.028   3.310  0.00  0.00    +0.000 HD
ATOM     18  H   UNL     1       5.510   7.055   2.321  0.00  0.00    +0.000 HD
ATOM     19  H   UNL     1       4.870   6.281   3.781  0.00  0.00    +0.000 HD
ENDBRANCH  13  16
ENDBRANCH  10  13
ENDBRANCH   7  10
ENDBRANCH   4   7
ENDBRANCH   1   4
BRANCH   1  20
ATOM     20  C   UNL     1       6.717   9.650  -0.514  0.00  0.00    +0.000 C 
ATOM     21  H   UNL     1       6.689   8.917  -1.328  0.00  0.00    +0.000 HD
ATOM     22  H   UNL     1       6.152   9.224   0.324  0.00  0.00    +0.000 HD
BRANCH  20  23
ATOM     23  C   UNL     1       6.055  10.949  -0.975  0.00  0.00    +0.000 C 
ATOM     24  H   UNL     1       5.357  10.736  -1.794  0.00  0.00    +0.000 HD
ATOM     25  H   UNL     1       6.820  11.624  -1.379  0.00  0.00    +0.000 HD
BRANCH  23  26
ATOM     26  C   UNL     1       5.317  11.632   0.171  0.00  0.00    +0.000 C 
ATOM     27  H   UNL     1       5.541  12.705   0.177  0.00  0.00    +0.000 HD
ATOM     28  H   UNL     1       5.625  11.193   1.126  0.00  0.00    +0.000 HD
BRANCH  26  30
ATOM     29  O   UNL     1       3.227  11.602  -1.036  0.00  0.00    +0.000 OA
ATOM     30  C   UNL     1       3.827  11.461   0.022  0.00  0.00    +0.000 C 
BRANCH  30  31
ATOM     31  O   UNL     1       3.278  11.111   1.221  0.00  0.00    +0.000 OA
BRANCH  31  32
ATOM     32  C   UNL     1       3.720   9.860   1.759  0.00  0.00    +0.000 C 
ATOM     33  H   UNL     1       2.970   9.085   1.580  0.00  0.00    +0.000 HD
ATOM     34  H   UNL     1       3.927   9.960   2.829  0.00  0.00    +0.000 HD
ATOM     35  H   UNL     1       4.644   9.579   1.247  0.00  0.00    +0.000 HD
ENDBRANCH  31  32
ENDBRANCH  30  31
ENDBRANCH  26  30
ENDBRANCH  23  26
ENDBRANCH  20  23
ENDBRANCH   1  20
TORSDOF 11
ENDMDL
MODEL 2
REMARK VINA RESULT:    -4.970      1.308      2.115
REMARK INTER + INTRA:          -8.211
REMARK INTER:                  -7.338
REMARK INTRA:                  -0.873
REMARK UNBOUND:                -0.335
REMARK  Name = 8050
REMARK  11 active torsions:
REMARK  status: ('A' for Active; 'I' for Inactive)
REMARK    1  A    between atoms: O_1  and  C_12
REMARK    2  A    between atoms: O_1  and  C_13
REMARK    3  A    between atoms: C_3  and  C_4
REMARK    4  A    between atoms: C_3  and  C_5
REMARK    5  A    between atoms: C_4  and  C_6
REMARK    6  A    between atoms: C_5  and  C_7
REMARK    7  A    between atoms: C_6  and  C_8
REMARK    8  A    between atoms: C_7  and  C_9
REMARK    9  A    between atoms: C_8  and  C_10
REMARK   10  A    between atoms: C_9  and  C_11
REMARK   11  A    between atoms: C_10  and  C_12
REMARK                            x       y       z     vdW  Elec       q    Type
REMARK                         _______ _______ _______ _____ _____    ______ ____
ROOT
ATOM      1  C   UNL     1       8.502   9.979   0.377  0.00  0.00    +0.000 C 
ATOM      2  H   UNL     1       8.668  11.055   0.509  0.00  0.00    +0.000 HD
ATOM      3  H   UNL     1       9.460   9.540   0.071  0.00  0.00    +0.000 HD
ENDROOT
BRANCH   1   4
ATOM      4  C   UNL     1       8.058   9.361   1.705  0.00  0.00    +0.000 C 
ATOM      5  H   UNL     1       8.900   8.834   2.168  0.00  0.00    +0.000 HD
ATOM      6  H   UNL     1       7.753  10.156   2.397  0.00  0.00    +0.000 HD
BRANCH   4   7
ATOM      7  C   UNL     1       6.894   8.389   1.501  0.00  0.00    +0.000 C 
ATOM      8  H   UNL     1       7.217   7.376   1.771  0.00  0.00    +0.000 HD
ATOM      9  H   UNL     1       6.626   8.364   0.438  0.00  0.00    +0.000 HD
BRANCH   7  10
ATOM     10  C   UNL     1       5.650   8.750   2.318  0.00  0.00    +0.000 C 
ATOM     11  H   UNL     1       5.723   9.795   2.643  0.00  0.00    +0.000 HD
ATOM     12  H   UNL     1       5.633   8.137   3.227  0.00  0.00    +0.000 HD
BRANCH  10  13
ATOM     13  C   UNL     1       4.341   8.554   1.550  0.00  0.00    +0.000 C 
ATOM     14  H   UNL     1       4.362   9.141   0.625  0.00  0.00    +0.000 HD
ATOM     15  H   UNL     1       4.233   7.501   1.265  0.00  0.00    +0.000 HD
BRANCH  13  16
ATOM     16  C   UNL     1       3.141   8.970   2.386  0.00  0.00    +0.000 C 
ATOM     17  H   UNL     1       3.236  10.007   2.723  0.00  0.00    +0.000 HD
ATOM     18  H   UNL     1       3.057   8.332   3.272  0.00  0.00    +0.000 HD
ATOM     19  H   UNL     1       2.213   8.878   1.812  0.00  0.00    +0.000 HD
ENDBRANCH  13  16
ENDBRANCH  10  13
ENDBRANCH   7  10
ENDBRANCH   4   7
ENDBRANCH   1   4
BRANCH   1  20
ATOM     20  C   UNL     1       7.461   9.749  -0.719  0.00  0.00    +0.000 C 
ATOM     21  H   UNL     1       7.916   9.201  -1.552  0.00  0.00    +0.000 HD
ATOM     22  H   UNL     1       6.649   9.124  -0.327  0.00  0.00    +0.000 HD
BRANCH  20  23
ATOM     23  C   UNL     1       6.891  11.072  -1.231  0.00  0.00    +0.000 C 
ATOM     24  H   UNL     1       6.173  10.877  -2.037  0.00  0.00    +0.000 HD
ATOM     25  H   UNL     1       7.700  11.672  -1.668  0.00  0.00    +0.000 HD
BRANCH  23  26
ATOM     26  C   UNL     1       6.215  11.855  -0.111  0.00  0.00    +0.000 C 
ATOM     27  H   UNL     1       6.434  12.924  -0.213  0.00  0.00    +0.000 HD
ATOM     28  H   UNL     1       6.578  11.502   0.861  0.00  0.00    +0.000 HD
BRANCH  26  30
ATOM     29  O   UNL     1       3.961  12.020   0.734  0.00  0.00    +0.000 OA
ATOM     30  C   UNL     1       4.720  11.671  -0.160  0.00  0.00    +0.000 C 
BRANCH  30  31
ATOM     31  O   UNL     1       4.362  11.088  -1.341  0.00  0.00    +0.000 OA
BRANCH  31  32
ATOM     32  C   UNL     1       2.993  11.256  -1.720  0.00  0.00    +0.000 C 
ATOM     33  H   UNL     1       2.547  10.287  -1.964  0.00  0.00    +0.000 HD
ATOM     34  H   UNL     1       2.915  11.942  -2.569  0.00  0.00    +0.000 HD
ATOM     35  H   UNL     1       2.456  11.685  -0.870  0.00  0.00    +0.000 HD
ENDBRANCH  31  32
ENDBRANCH  30  31
ENDBRANCH  26  30
ENDBRANCH  23  26
ENDBRANCH  20  23
ENDBRANCH   1  20
TORSDOF 11
ENDMDL
MODEL 3
REMARK VINA RESULT:    -4.896     13.958     15.788
REMARK INTER + INTRA:          -8.093
REMARK INTER:                  -7.316
REMARK INTRA:                  -0.776
REMARK UNBOUND:                -0.335
REMARK  Name = 8050
REMARK  11 active torsions:
REMARK  status: ('A' for Active; 'I' for Inactive)
REMARK    1  A    between atoms: O_1  and  C_12
REMARK    2  A    between atoms: O_1  and  C_13
REMARK    3  A    between atoms: C_3  and  C_4
REMARK    4  A    between atoms: C_3  and  C_5
REMARK    5  A    between atoms: C_4  and  C_6
REMARK    6  A    between atoms: C_5  and  C_7
REMARK    7  A    between atoms: C_6  and  C_8
REMARK    8  A    between atoms: C_7  and  C_9
REMARK    9  A    between atoms: C_8  and  C_10
REMARK   10  A    between atoms: C_9  and  C_11
REMARK   11  A    between atoms: C_10  and  C_12
REMARK                            x       y       z     vdW  Elec       q    Type
REMARK                         _______ _______ _______ _____ _____    ______ ____
ROOT
ATOM      1  C   UNL     1      -1.278  10.021 -10.261  0.00  0.00    +0.000 C 
ATOM      2  H   UNL     1      -0.917  10.972  -9.852  0.00  0.00    +0.000 HD
ATOM      3  H   UNL     1      -0.632   9.230  -9.859  0.00  0.00    +0.000 HD
ENDROOT
BRANCH   1   4
ATOM      4  C   UNL     1      -2.721   9.781  -9.806  0.00  0.00    +0.000 C 
ATOM      5  H   UNL     1      -3.141  10.710  -9.403  0.00  0.00    +0.000 HD
ATOM      6  H   UNL     1      -3.335   9.494 -10.667  0.00  0.00    +0.000 HD
BRANCH   4   7
ATOM      7  C   UNL     1      -2.791   8.684  -8.742  0.00  0.00    +0.000 C 
ATOM      8  H   UNL     1      -3.330   9.064  -7.865  0.00  0.00    +0.000 HD
ATOM      9  H   UNL     1      -1.775   8.439  -8.408  0.00  0.00    +0.000 HD
BRANCH   7  10
ATOM     10  C   UNL     1      -3.473   7.404  -9.232  0.00  0.00    +0.000 C 
ATOM     11  H   UNL     1      -4.511   7.630  -9.506  0.00  0.00    +0.000 HD
ATOM     12  H   UNL     1      -3.514   6.685  -8.405  0.00  0.00    +0.000 HD
BRANCH  10  13
ATOM     13  C   UNL     1      -2.768   6.760 -10.428  0.00  0.00    +0.000 C 
ATOM     14  H   UNL     1      -1.798   7.242 -10.591  0.00  0.00    +0.000 HD
ATOM     15  H   UNL     1      -2.575   5.701 -10.218  0.00  0.00    +0.000 HD
BRANCH  13  16
ATOM     16  C   UNL     1      -3.608   6.871 -11.691  0.00  0.00    +0.000 C 
ATOM     17  H   UNL     1      -3.226   7.657 -12.349  0.00  0.00    +0.000 HD
ATOM     18  H   UNL     1      -4.644   7.114 -11.437  0.00  0.00    +0.000 HD
ATOM     19  H   UNL     1      -3.606   5.927 -12.246  0.00  0.00    +0.000 HD
ENDBRANCH  13  16
ENDBRANCH  10  13
ENDBRANCH   7  10
ENDBRANCH   4   7
ENDBRANCH   1   4
BRANCH   1  20
ATOM     20  C   UNL     1      -1.173  10.042 -11.786  0.00  0.00    +0.000 C 
ATOM     21  H   UNL     1      -2.174   9.979 -12.227  0.00  0.00    +0.000 HD
ATOM     22  H   UNL     1      -0.737  10.995 -12.109  0.00  0.00    +0.000 HD
BRANCH  20  23
ATOM     23  C   UNL     1      -0.316   8.883 -12.300  0.00  0.00    +0.000 C 
ATOM     24  H   UNL     1      -0.451   8.009 -11.651  0.00  0.00    +0.000 HD
ATOM     25  H   UNL     1       0.744   9.161 -12.240  0.00  0.00    +0.000 HD
BRANCH  23  26
ATOM     26  C   UNL     1      -0.675   8.523 -13.737  0.00  0.00    +0.000 C 
ATOM     27  H   UNL     1      -1.691   8.862 -13.968  0.00  0.00    +0.000 HD
ATOM     28  H   UNL     1      -0.616   7.438 -13.874  0.00  0.00    +0.000 HD
BRANCH  26  30
ATOM     29  O   UNL     1       1.160   9.958 -14.367  0.00  0.00    +0.000 OA
ATOM     30  C   UNL     1       0.275   9.182 -14.704  0.00  0.00    +0.000 C 
BRANCH  30  31
ATOM     31  O   UNL     1       0.008   8.764 -15.975  0.00  0.00    +0.000 OA
BRANCH  31  32
ATOM     32  C   UNL     1       1.001   9.093 -16.952  0.00  0.00    +0.000 C 
ATOM     33  H   UNL     1       1.577   9.965 -16.627  0.00  0.00    +0.000 HD
ATOM     34  H   UNL     1       0.531   9.281 -17.922  0.00  0.00    +0.000 HD
ATOM     35  H   UNL     1       1.678   8.241 -17.048  0.00  0.00    +0.000 HD
ENDBRANCH  31  32
ENDBRANCH  30  31
ENDBRANCH  26  30
ENDBRANCH  23  26
ENDBRANCH  20  23
ENDBRANCH   1  20
TORSDOF 11
ENDMDL
MODEL 4
REMARK VINA RESULT:    -4.829      2.290      4.247
REMARK INTER + INTRA:          -7.987
REMARK INTER:                  -7.191
REMARK INTRA:                  -0.797
REMARK UNBOUND:                -0.335
REMARK  Name = 8050
REMARK  11 active torsions:
REMARK  status: ('A' for Active; 'I' for Inactive)
REMARK    1  A    between atoms: O_1  and  C_12
REMARK    2  A    between atoms: O_1  and  C_13
REMARK    3  A    between atoms: C_3  and  C_4
REMARK    4  A    between atoms: C_3  and  C_5
REMARK    5  A    between atoms: C_4  and  C_6
REMARK    6  A    between atoms: C_5  and  C_7
REMARK    7  A    between atoms: C_6  and  C_8
REMARK    8  A    between atoms: C_7  and  C_9
REMARK    9  A    between atoms: C_8  and  C_10
REMARK   10  A    between atoms: C_9  and  C_11
REMARK   11  A    between atoms: C_10  and  C_12
REMARK                            x       y       z     vdW  Elec       q    Type
REMARK                         _______ _______ _______ _____ _____    ______ ____
ROOT
ATOM      1  C   UNL     1       4.489  11.162  -0.515  0.00  0.00    +0.000 C 
ATOM      2  H   UNL     1       3.906  11.889  -1.093  0.00  0.00    +0.000 HD
ATOM      3  H   UNL     1       4.670  10.300  -1.169  0.00  0.00    +0.000 HD
ENDROOT
BRANCH   1   4
ATOM      4  C   UNL     1       5.827  11.785  -0.109  0.00  0.00    +0.000 C 
ATOM      5  H   UNL     1       5.797  12.868  -0.273  0.00  0.00    +0.000 HD
ATOM      6  H   UNL     1       5.998  11.624   0.962  0.00  0.00    +0.000 HD
BRANCH   4   7
ATOM      7  C   UNL     1       6.984  11.178  -0.906  0.00  0.00    +0.000 C 
ATOM      8  H   UNL     1       7.749  11.946  -1.075  0.00  0.00    +0.000 HD
ATOM      9  H   UNL     1       6.620  10.869  -1.893  0.00  0.00    +0.000 HD
BRANCH   7  10
ATOM     10  C   UNL     1       7.631   9.973  -0.217  0.00  0.00    +0.000 C 
ATOM     11  H   UNL     1       7.072   9.737   0.697  0.00  0.00    +0.000 HD
ATOM     12  H   UNL     1       8.646  10.246   0.096  0.00  0.00    +0.000 HD
BRANCH  10  13
ATOM     13  C   UNL     1       7.691   8.727  -1.102  0.00  0.00    +0.000 C 
ATOM     14  H   UNL     1       7.415   8.987  -2.129  0.00  0.00    +0.000 HD
ATOM     15  H   UNL     1       8.717   8.340  -1.128  0.00  0.00    +0.000 HD
BRANCH  13  16
ATOM     16  C   UNL     1       6.762   7.637  -0.589  0.00  0.00    +0.000 C 
ATOM     17  H   UNL     1       6.166   7.213  -1.404  0.00  0.00    +0.000 HD
ATOM     18  H   UNL     1       6.074   8.046   0.157  0.00  0.00    +0.000 HD
ATOM     19  H   UNL     1       7.330   6.827  -0.121  0.00  0.00    +0.000 HD
ENDBRANCH  13  16
ENDBRANCH  10  13
ENDBRANCH   7  10
ENDBRANCH   4   7
ENDBRANCH   1   4
BRANCH   1  20
ATOM     20  C   UNL     1       3.689  10.716   0.709  0.00  0.00    +0.000 C 
ATOM     21  H   UNL     1       4.078  11.212   1.606  0.00  0.00    +0.000 HD
ATOM     22  H   UNL     1       2.643  11.027   0.596  0.00  0.00    +0.000 HD
BRANCH  20  23
ATOM     23  C   UNL     1       3.757   9.200   0.896  0.00  0.00    +0.000 C 
ATOM     24  H   UNL     1       4.790   8.858   0.761  0.00  0.00    +0.000 HD
ATOM     25  H   UNL     1       3.158   8.710   0.116  0.00  0.00    +0.000 HD
BRANCH  23  26
ATOM     26  C   UNL     1       3.249   8.787   2.272  0.00  0.00    +0.000 C 
ATOM     27  H   UNL     1       2.753   7.812   2.215  0.00  0.00    +0.000 HD
ATOM     28  H   UNL     1       2.538   9.533   2.645  0.00  0.00    +0.000 HD
BRANCH  26  30
ATOM     29  O   UNL     1       4.331   9.069   4.411  0.00  0.00    +0.000 OA
ATOM     30  C   UNL     1       4.390   8.681   3.251  0.00  0.00    +0.000 C 
BRANCH  30  31
ATOM     31  O   UNL     1       5.459   8.079   2.654  0.00  0.00    +0.000 OA
BRANCH  31  32
ATOM     32  C   UNL     1       5.941   6.897   3.302  0.00  0.00    +0.000 C 
ATOM     33  H   UNL     1       6.013   7.061   4.382  0.00  0.00    +0.000 HD
ATOM     34  H   UNL     1       6.912   6.607   2.889  0.00  0.00    +0.000 HD
ATOM     35  H   UNL     1       5.225   6.093   3.117  0.00  0.00    +0.000 HD
ENDBRANCH  31  32
ENDBRANCH  30  31
ENDBRANCH  26  30
ENDBRANCH  23  26
ENDBRANCH  20  23
ENDBRANCH   1  20
TORSDOF 11
ENDMDL
MODEL 5
REMARK VINA RESULT:    -4.766     27.724     29.724
REMARK INTER + INTRA:          -7.887
REMARK INTER:                  -7.227
REMARK INTRA:                  -0.660
REMARK UNBOUND:                -0.335
REMARK  Name = 8050
REMARK  11 active torsions:
REMARK  status: ('A' for Active; 'I' for Inactive)
REMARK    1  A    between atoms: O_1  and  C_12
REMARK    2  A    between atoms: O_1  and  C_13
REMARK    3  A    between atoms: C_3  and  C_4
REMARK    4  A    between atoms: C_3  and  C_5
REMARK    5  A    between atoms: C_4  and  C_6
REMARK    6  A    between atoms: C_5  and  C_7
REMARK    7  A    between atoms: C_6  and  C_8
REMARK    8  A    between atoms: C_7  and  C_9
REMARK    9  A    between atoms: C_8  and  C_10
REMARK   10  A    between atoms: C_9  and  C_11
REMARK   11  A    between atoms: C_10  and  C_12
REMARK                            x       y       z     vdW  Elec       q    Type
REMARK                         _______ _______ _______ _____ _____    ______ ____
ROOT
ATOM      1  C   UNL     1     -20.877  -1.255   4.683  0.00  0.00    +0.000 C 
ATOM      2  H   UNL     1     -21.909  -1.016   4.397  0.00  0.00    +0.000 HD
ATOM      3  H   UNL     1     -20.259  -1.142   3.784  0.00  0.00    +0.000 HD
ENDROOT
BRANCH   1   4
ATOM      4  C   UNL     1     -20.402  -0.272   5.756  0.00  0.00    +0.000 C 
ATOM      5  H   UNL     1     -19.428   0.144   5.473  0.00  0.00    +0.000 HD
ATOM      6  H   UNL     1     -21.105   0.567   5.825  0.00  0.00    +0.000 HD
BRANCH   4   7
ATOM      7  C   UNL     1     -20.290  -0.955   7.121  0.00  0.00    +0.000 C 
ATOM      8  H   UNL     1     -19.295  -0.764   7.541  0.00  0.00    +0.000 HD
ATOM      9  H   UNL     1     -20.375  -2.041   6.990  0.00  0.00    +0.000 HD
BRANCH   7  10
ATOM     10  C   UNL     1     -21.352  -0.491   8.122  0.00  0.00    +0.000 C 
ATOM     11  H   UNL     1     -21.859   0.397   7.725  0.00  0.00    +0.000 HD
ATOM     12  H   UNL     1     -20.854  -0.183   9.050  0.00  0.00    +0.000 HD
BRANCH  10  13
ATOM     13  C   UNL     1     -22.396  -1.563   8.440  0.00  0.00    +0.000 C 
ATOM     14  H   UNL     1     -21.931  -2.555   8.412  0.00  0.00    +0.000 HD
ATOM     15  H   UNL     1     -22.783  -1.414   9.455  0.00  0.00    +0.000 HD
BRANCH  13  16
ATOM     16  C   UNL     1     -23.553  -1.519   7.455  0.00  0.00    +0.000 C 
ATOM     17  H   UNL     1     -23.470  -0.654   6.788  0.00  0.00    +0.000 HD
ATOM     18  H   UNL     1     -24.504  -1.445   7.990  0.00  0.00    +0.000 HD
ATOM     19  H   UNL     1     -23.579  -2.425   6.841  0.00  0.00    +0.000 HD
ENDBRANCH  13  16
ENDBRANCH  10  13
ENDBRANCH   7  10
ENDBRANCH   4   7
ENDBRANCH   1   4
BRANCH   1  20
ATOM     20  C   UNL     1     -20.800  -2.699   5.179  0.00  0.00    +0.000 C 
ATOM     21  H   UNL     1     -19.962  -2.806   5.877  0.00  0.00    +0.000 HD
ATOM     22  H   UNL     1     -21.715  -2.945   5.731  0.00  0.00    +0.000 HD
BRANCH  20  23
ATOM     23  C   UNL     1     -20.622  -3.677   4.016  0.00  0.00    +0.000 C 
ATOM     24  H   UNL     1     -20.148  -3.162   3.172  0.00  0.00    +0.000 HD
ATOM     25  H   UNL     1     -21.608  -4.012   3.669  0.00  0.00    +0.000 HD
BRANCH  23  26
ATOM     26  C   UNL     1     -19.783  -4.881   4.428  0.00  0.00    +0.000 C 
ATOM     27  H   UNL     1     -20.418  -5.641   4.896  0.00  0.00    +0.000 HD
ATOM     28  H   UNL     1     -19.008  -4.569   5.138  0.00  0.00    +0.000 HD
BRANCH  26  30
ATOM     29  O   UNL     1     -19.630  -6.357   2.525  0.00  0.00    +0.000 OA
ATOM     30  C   UNL     1     -19.113  -5.498   3.227  0.00  0.00    +0.000 C 
BRANCH  30  31
ATOM     31  O   UNL     1     -17.880  -4.942   3.046  0.00  0.00    +0.000 OA
BRANCH  31  32
ATOM     32  C   UNL     1     -17.417  -4.900   1.693  0.00  0.00    +0.000 C 
ATOM     33  H   UNL     1     -16.851  -5.807   1.458  0.00  0.00    +0.000 HD
ATOM     34  H   UNL     1     -16.803  -4.009   1.529  0.00  0.00    +0.000 HD
ATOM     35  H   UNL     1     -18.290  -4.852   1.037  0.00  0.00    +0.000 HD
ENDBRANCH  31  32
ENDBRANCH  30  31
ENDBRANCH  26  30
ENDBRANCH  23  26
ENDBRANCH  20  23
ENDBRANCH   1  20
TORSDOF 11
ENDMDL
MODEL 6
REMARK VINA RESULT:    -4.510     13.992     15.658
REMARK INTER + INTRA:          -7.482
REMARK INTER:                  -7.048
REMARK INTRA:                  -0.434
REMARK UNBOUND:                -0.335
REMARK  Name = 8050
REMARK  11 active torsions:
REMARK  status: ('A' for Active; 'I' for Inactive)
REMARK    1  A    between atoms: O_1  and  C_12
REMARK    2  A    between atoms: O_1  and  C_13
REMARK    3  A    between atoms: C_3  and  C_4
REMARK    4  A    between atoms: C_3  and  C_5
REMARK    5  A    between atoms: C_4  and  C_6
REMARK    6  A    between atoms: C_5  and  C_7
REMARK    7  A    between atoms: C_6  and  C_8
REMARK    8  A    between atoms: C_7  and  C_9
REMARK    9  A    between atoms: C_8  and  C_10
REMARK   10  A    between atoms: C_9  and  C_11
REMARK   11  A    between atoms: C_10  and  C_12
REMARK                            x       y       z     vdW  Elec       q    Type
REMARK                         _______ _______ _______ _____ _____    ______ ____
ROOT
ATOM      1  C   UNL     1      -5.513   6.324  -9.949  0.00  0.00    +0.000 C 
ATOM      2  H   UNL     1      -5.111   5.581 -10.649  0.00  0.00    +0.000 HD
ATOM      3  H   UNL     1      -5.549   7.283 -10.480  0.00  0.00    +0.000 HD
ENDROOT
BRANCH   1   4
ATOM      4  C   UNL     1      -6.928   5.919  -9.528  0.00  0.00    +0.000 C 
ATOM      5  H   UNL     1      -7.645   6.681  -9.855  0.00  0.00    +0.000 HD
ATOM      6  H   UNL     1      -7.205   4.980 -10.024  0.00  0.00    +0.000 HD
BRANCH   4   7
ATOM      7  C   UNL     1      -7.025   5.742  -8.011  0.00  0.00    +0.000 C 
ATOM      8  H   UNL     1      -6.170   6.235  -7.534  0.00  0.00    +0.000 HD
ATOM      9  H   UNL     1      -6.953   4.675  -7.767  0.00  0.00    +0.000 HD
BRANCH   7  10
ATOM     10  C   UNL     1      -8.321   6.300  -7.416  0.00  0.00    +0.000 C 
ATOM     11  H   UNL     1      -9.100   5.528  -7.460  0.00  0.00    +0.000 HD
ATOM     12  H   UNL     1      -8.667   7.133  -8.039  0.00  0.00    +0.000 HD
BRANCH  10  13
ATOM     13  C   UNL     1      -8.169   6.777  -5.971  0.00  0.00    +0.000 C 
ATOM     14  H   UNL     1      -7.171   7.204  -5.823  0.00  0.00    +0.000 HD
ATOM     15  H   UNL     1      -8.897   7.570  -5.764  0.00  0.00    +0.000 HD
BRANCH  13  16
ATOM     16  C   UNL     1      -8.383   5.638  -4.986  0.00  0.00    +0.000 C 
ATOM     17  H   UNL     1      -7.427   5.210  -4.666  0.00  0.00    +0.000 HD
ATOM     18  H   UNL     1      -8.972   4.841  -5.450  0.00  0.00    +0.000 HD
ATOM     19  H   UNL     1      -8.919   5.984  -4.097  0.00  0.00    +0.000 HD
ENDBRANCH  13  16
ENDBRANCH  10  13
ENDBRANCH   7  10
ENDBRANCH   4   7
ENDBRANCH   1   4
BRANCH   1  20
ATOM     20  C   UNL     1      -4.587   6.446  -8.738  0.00  0.00    +0.000 C 
ATOM     21  H   UNL     1      -4.922   7.271  -8.099  0.00  0.00    +0.000 HD
ATOM     22  H   UNL     1      -4.645   5.529  -8.140  0.00  0.00    +0.000 HD
BRANCH  20  23
ATOM     23  C   UNL     1      -3.139   6.690  -9.168  0.00  0.00    +0.000 C 
ATOM     24  H   UNL     1      -2.761   5.811  -9.704  0.00  0.00    +0.000 HD
ATOM     25  H   UNL     1      -2.511   6.811  -8.276  0.00  0.00    +0.000 HD
BRANCH  23  26
ATOM     26  C   UNL     1      -3.024   7.926 -10.052  0.00  0.00    +0.000 C 
ATOM     27  H   UNL     1      -2.754   8.799  -9.448  0.00  0.00    +0.000 HD
ATOM     28  H   UNL     1      -3.981   8.116 -10.553  0.00  0.00    +0.000 HD
BRANCH  26  30
ATOM     29  O   UNL     1      -1.703   6.650 -11.617  0.00  0.00    +0.000 OA
ATOM     30  C   UNL     1      -1.963   7.731 -11.104  0.00  0.00    +0.000 C 
BRANCH  30  31
ATOM     31  O   UNL     1      -1.374   8.926 -11.397  0.00  0.00    +0.000 OA
BRANCH  31  32
ATOM     32  C   UNL     1      -1.465   9.923 -10.375  0.00  0.00    +0.000 C 
ATOM     33  H   UNL     1      -2.469   9.928  -9.940  0.00  0.00    +0.000 HD
ATOM     34  H   UNL     1      -1.215  10.908 -10.783  0.00  0.00    +0.000 HD
ATOM     35  H   UNL     1      -0.744   9.673  -9.592  0.00  0.00    +0.000 HD
ENDBRANCH  31  32
ENDBRANCH  30  31
ENDBRANCH  26  30
ENDBRANCH  23  26
ENDBRANCH  20  23
ENDBRANCH   1  20
TORSDOF 11
ENDMDL
MODEL 7
REMARK VINA RESULT:    -4.508      2.407      3.573
REMARK INTER + INTRA:          -7.478
REMARK INTER:                  -6.809
REMARK INTRA:                  -0.669
REMARK UNBOUND:                -0.335
REMARK  Name = 8050
REMARK  11 active torsions:
REMARK  status: ('A' for Active; 'I' for Inactive)
REMARK    1  A    between atoms: O_1  and  C_12
REMARK    2  A    between atoms: O_1  and  C_13
REMARK    3  A    between atoms: C_3  and  C_4
REMARK    4  A    between atoms: C_3  and  C_5
REMARK    5  A    between atoms: C_4  and  C_6
REMARK    6  A    between atoms: C_5  and  C_7
REMARK    7  A    between atoms: C_6  and  C_8
REMARK    8  A    between atoms: C_7  and  C_9
REMARK    9  A    between atoms: C_8  and  C_10
REMARK   10  A    between atoms: C_9  and  C_11
REMARK   11  A    between atoms: C_10  and  C_12
REMARK                            x       y       z     vdW  Elec       q    Type
REMARK                         _______ _______ _______ _____ _____    ______ ____
ROOT
ATOM      1  C   UNL     1       4.563  10.191   1.037  0.00  0.00    +0.000 C 
ATOM      2  H   UNL     1       4.522  11.085   1.670  0.00  0.00    +0.000 HD
ATOM      3  H   UNL     1       5.593   9.816   1.072  0.00  0.00    +0.000 HD
ENDROOT
BRANCH   1   4
ATOM      4  C   UNL     1       3.612   9.126   1.591  0.00  0.00    +0.000 C 
ATOM      5  H   UNL     1       2.739   9.609   2.045  0.00  0.00    +0.000 HD
ATOM      6  H   UNL     1       3.246   8.497   0.771  0.00  0.00    +0.000 HD
BRANCH   4   7
ATOM      7  C   UNL     1       4.311   8.249   2.633  0.00  0.00    +0.000 C 
ATOM      8  H   UNL     1       3.895   7.235   2.589  0.00  0.00    +0.000 HD
ATOM      9  H   UNL     1       4.095   8.638   3.635  0.00  0.00    +0.000 HD
BRANCH   7  10
ATOM     10  C   UNL     1       5.829   8.175   2.445  0.00  0.00    +0.000 C 
ATOM     11  H   UNL     1       6.190   9.130   2.043  0.00  0.00    +0.000 HD
ATOM     12  H   UNL     1       6.056   7.409   1.694  0.00  0.00    +0.000 HD
BRANCH  10  13
ATOM     13  C   UNL     1       6.586   7.858   3.736  0.00  0.00    +0.000 C 
ATOM     14  H   UNL     1       7.491   7.286   3.506  0.00  0.00    +0.000 HD
ATOM     15  H   UNL     1       6.903   8.791   4.218  0.00  0.00    +0.000 HD
BRANCH  13  16
ATOM     16  C   UNL     1       5.721   7.067   4.706  0.00  0.00    +0.000 C 
ATOM     17  H   UNL     1       6.064   6.030   4.783  0.00  0.00    +0.000 HD
ATOM     18  H   UNL     1       4.681   7.056   4.364  0.00  0.00    +0.000 HD
ATOM     19  H   UNL     1       5.745   7.513   5.705  0.00  0.00    +0.000 HD
ENDBRANCH  13  16
ENDBRANCH  10  13
ENDBRANCH   7  10
ENDBRANCH   4   7
ENDBRANCH   1   4
BRANCH   1  20
ATOM     20  C   UNL     1       4.203  10.562  -0.403  0.00  0.00    +0.000 C 
ATOM     21  H   UNL     1       3.695   9.720  -0.885  0.00  0.00    +0.000 HD
ATOM     22  H   UNL     1       3.500  11.404  -0.398  0.00  0.00    +0.000 HD
BRANCH  20  23
ATOM     23  C   UNL     1       5.448  10.935  -1.208  0.00  0.00    +0.000 C 
ATOM     24  H   UNL     1       5.278  11.885  -1.730  0.00  0.00    +0.000 HD
ATOM     25  H   UNL     1       5.622  10.176  -1.982  0.00  0.00    +0.000 HD
BRANCH  23  26
ATOM     26  C   UNL     1       6.676  11.048  -0.311  0.00  0.00    +0.000 C 
ATOM     27  H   UNL     1       6.442  10.685   0.696  0.00  0.00    +0.000 HD
ATOM     28  H   UNL     1       6.999  12.093  -0.253  0.00  0.00    +0.000 HD
BRANCH  26  30
ATOM     29  O   UNL     1       8.657  10.658  -1.632  0.00  0.00    +0.000 OA
ATOM     30  C   UNL     1       7.813  10.224  -0.859  0.00  0.00    +0.000 C 
BRANCH  30  31
ATOM     31  O   UNL     1       7.758   8.960  -0.350  0.00  0.00    +0.000 OA
BRANCH  31  32
ATOM     32  C   UNL     1       7.462   7.928  -1.297  0.00  0.00    +0.000 C 
ATOM     33  H   UNL     1       6.972   7.086  -0.798  0.00  0.00    +0.000 HD
ATOM     34  H   UNL     1       8.378   7.600  -1.799  0.00  0.00    +0.000 HD
ATOM     35  H   UNL     1       6.779   8.339  -2.044  0.00  0.00    +0.000 HD
ENDBRANCH  31  32
ENDBRANCH  30  31
ENDBRANCH  26  30
ENDBRANCH  23  26
ENDBRANCH  20  23
ENDBRANCH   1  20
TORSDOF 11
ENDMDL
MODEL 8
REMARK VINA RESULT:    -4.404      3.161      4.839
REMARK INTER + INTRA:          -7.313
REMARK INTER:                  -7.021
REMARK INTRA:                  -0.293
REMARK UNBOUND:                -0.335
REMARK  Name = 8050
REMARK  11 active torsions:
REMARK  status: ('A' for Active; 'I' for Inactive)
REMARK    1  A    between atoms: O_1  and  C_12
REMARK    2  A    between atoms: O_1  and  C_13
REMARK    3  A    between atoms: C_3  and  C_4
REMARK    4  A    between atoms: C_3  and  C_5
REMARK    5  A    between atoms: C_4  and  C_6
REMARK    6  A    between atoms: C_5  and  C_7
REMARK    7  A    between atoms: C_6  and  C_8
REMARK    8  A    between atoms: C_7  and  C_9
REMARK    9  A    between atoms: C_8  and  C_10
REMARK   10  A    between atoms: C_9  and  C_11
REMARK   11  A    between atoms: C_10  and  C_12
REMARK                            x       y       z     vdW  Elec       q    Type
REMARK                         _______ _______ _______ _____ _____    ______ ____
ROOT
ATOM      1  C   UNL     1       6.968   8.188   4.867  0.00  0.00    +0.000 C 
ATOM      2  H   UNL     1       7.238   8.620   3.896  0.00  0.00    +0.000 HD
ATOM      3  H   UNL     1       7.768   7.492   5.146  0.00  0.00    +0.000 HD
ENDROOT
BRANCH   1   4
ATOM      4  C   UNL     1       6.872   9.302   5.914  0.00  0.00    +0.000 C 
ATOM      5  H   UNL     1       6.355  10.169   5.486  0.00  0.00    +0.000 HD
ATOM      6  H   UNL     1       6.274   8.956   6.766  0.00  0.00    +0.000 HD
BRANCH   4   7
ATOM      7  C   UNL     1       8.259   9.722   6.403  0.00  0.00    +0.000 C 
ATOM      8  H   UNL     1       8.580  10.616   5.855  0.00  0.00    +0.000 HD
ATOM      9  H   UNL     1       8.981   8.930   6.169  0.00  0.00    +0.000 HD
BRANCH   7  10
ATOM     10  C   UNL     1       8.312  10.012   7.906  0.00  0.00    +0.000 C 
ATOM     11  H   UNL     1       9.188   9.512   8.339  0.00  0.00    +0.000 HD
ATOM     12  H   UNL     1       7.429   9.570   8.383  0.00  0.00    +0.000 HD
BRANCH  10  13
ATOM     13  C   UNL     1       8.373  11.504   8.236  0.00  0.00    +0.000 C 
ATOM     14  H   UNL     1       9.417  11.836   8.263  0.00  0.00    +0.000 HD
ATOM     15  H   UNL     1       7.869  12.079   7.449  0.00  0.00    +0.000 HD
BRANCH  13  16
ATOM     16  C   UNL     1       7.712  11.803   9.572  0.00  0.00    +0.000 C 
ATOM     17  H   UNL     1       8.395  11.602  10.403  0.00  0.00    +0.000 HD
ATOM     18  H   UNL     1       6.824  11.178   9.704  0.00  0.00    +0.000 HD
ATOM     19  H   UNL     1       7.401  12.852   9.629  0.00  0.00    +0.000 HD
ENDBRANCH  13  16
ENDBRANCH  10  13
ENDBRANCH   7  10
ENDBRANCH   4   7
ENDBRANCH   1   4
BRANCH   1  20
ATOM     20  C   UNL     1       5.648   7.426   4.744  0.00  0.00    +0.000 C 
ATOM     21  H   UNL     1       5.818   6.360   4.933  0.00  0.00    +0.000 HD
ATOM     22  H   UNL     1       4.947   7.782   5.509  0.00  0.00    +0.000 HD
BRANCH  20  23
ATOM     23  C   UNL     1       5.030   7.605   3.357  0.00  0.00    +0.000 C 
ATOM     24  H   UNL     1       4.392   6.744   3.123  0.00  0.00    +0.000 HD
ATOM     25  H   UNL     1       5.827   7.621   2.603  0.00  0.00    +0.000 HD
BRANCH  23  26
ATOM     26  C   UNL     1       4.216   8.892   3.274  0.00  0.00    +0.000 C 
ATOM     27  H   UNL     1       4.695   9.680   3.865  0.00  0.00    +0.000 HD
ATOM     28  H   UNL     1       3.204   8.717   3.657  0.00  0.00    +0.000 HD
BRANCH  26  30
ATOM     29  O   UNL     1       4.658   8.807   0.903  0.00  0.00    +0.000 OA
ATOM     30  C   UNL     1       4.114   9.366   1.847  0.00  0.00    +0.000 C 
BRANCH  30  31
ATOM     31  O   UNL     1       3.320  10.473   1.781  0.00  0.00    +0.000 OA
BRANCH  31  32
ATOM     32  C   UNL     1       3.564  11.339   0.668  0.00  0.00    +0.000 C 
ATOM     33  H   UNL     1       3.823  12.343   1.019  0.00  0.00    +0.000 HD
ATOM     34  H   UNL     1       2.687  11.373   0.015  0.00  0.00    +0.000 HD
ATOM     35  H   UNL     1       4.408  10.937   0.103  0.00  0.00    +0.000 HD
ENDBRANCH  31  32
ENDBRANCH  30  31
ENDBRANCH  26  30
ENDBRANCH  23  26
ENDBRANCH  20  23
ENDBRANCH   1  20
TORSDOF 11
ENDMDL
MODEL 9
REMARK VINA RESULT:    -4.397     13.714     15.703
REMARK INTER + INTRA:          -7.303
REMARK INTER:                  -6.521
REMARK INTRA:                  -0.782
REMARK UNBOUND:                -0.335
REMARK  Name = 8050
REMARK  11 active torsions:
REMARK  status: ('A' for Active; 'I' for Inactive)
REMARK    1  A    between atoms: O_1  and  C_12
REMARK    2  A    between atoms: O_1  and  C_13
REMARK    3  A    between atoms: C_3  and  C_4
REMARK    4  A    between atoms: C_3  and  C_5
REMARK    5  A    between atoms: C_4  and  C_6
REMARK    6  A    between atoms: C_5  and  C_7
REMARK    7  A    between atoms: C_6  and  C_8
REMARK    8  A    between atoms: C_7  and  C_9
REMARK    9  A    between atoms: C_8  and  C_10
REMARK   10  A    between atoms: C_9  and  C_11
REMARK   11  A    between atoms: C_10  and  C_12
REMARK                            x       y       z     vdW  Elec       q    Type
REMARK                         _______ _______ _______ _____ _____    ______ ____
ROOT
ATOM      1  C   UNL     1      -2.989   7.974  -9.138  0.00  0.00    +0.000 C 
ATOM      2  H   UNL     1      -3.641   7.862  -8.263  0.00  0.00    +0.000 HD
ATOM      3  H   UNL     1      -2.247   7.167  -9.094  0.00  0.00    +0.000 HD
ENDROOT
BRANCH   1   4
ATOM      4  C   UNL     1      -3.818   7.837 -10.417  0.00  0.00    +0.000 C 
ATOM      5  H   UNL     1      -4.883   7.766 -10.163  0.00  0.00    +0.000 HD
ATOM      6  H   UNL     1      -3.692   8.733 -11.036  0.00  0.00    +0.000 HD
BRANCH   4   7
ATOM      7  C   UNL     1      -3.400   6.602 -11.218  0.00  0.00    +0.000 C 
ATOM      8  H   UNL     1      -4.122   6.434 -12.027  0.00  0.00    +0.000 HD
ATOM      9  H   UNL     1      -3.441   5.719 -10.568  0.00  0.00    +0.000 HD
BRANCH   7  10
ATOM     10  C   UNL     1      -1.995   6.712 -11.816  0.00  0.00    +0.000 C 
ATOM     11  H   UNL     1      -1.381   5.880 -11.449  0.00  0.00    +0.000 HD
ATOM     12  H   UNL     1      -1.526   7.634 -11.452  0.00  0.00    +0.000 HD
BRANCH  10  13
ATOM     13  C   UNL     1      -1.983   6.707 -13.345  0.00  0.00    +0.000 C 
ATOM     14  H   UNL     1      -1.492   7.613 -13.716  0.00  0.00    +0.000 HD
ATOM     15  H   UNL     1      -1.403   5.850 -13.709  0.00  0.00    +0.000 HD
BRANCH  13  16
ATOM     16  C   UNL     1      -3.393   6.628 -13.910  0.00  0.00    +0.000 C 
ATOM     17  H   UNL     1      -4.095   6.246 -13.163  0.00  0.00    +0.000 HD
ATOM     18  H   UNL     1      -3.418   5.958 -14.774  0.00  0.00    +0.000 HD
ATOM     19  H   UNL     1      -3.740   7.615 -14.235  0.00  0.00    +0.000 HD
ENDBRANCH  13  16
ENDBRANCH  10  13
ENDBRANCH   7  10
ENDBRANCH   4   7
ENDBRANCH   1   4
BRANCH   1  20
ATOM     20  C   UNL     1      -2.276   9.326  -9.080  0.00  0.00    +0.000 C 
ATOM     21  H   UNL     1      -2.726   9.947  -8.297  0.00  0.00    +0.000 HD
ATOM     22  H   UNL     1      -1.225   9.173  -8.808  0.00  0.00    +0.000 HD
BRANCH  20  23
ATOM     23  C   UNL     1      -2.360  10.057 -10.421  0.00  0.00    +0.000 C 
ATOM     24  H   UNL     1      -2.840  11.032 -10.279  0.00  0.00    +0.000 HD
ATOM     25  H   UNL     1      -3.000   9.486 -11.106  0.00  0.00    +0.000 HD
BRANCH  23  26
ATOM     26  C   UNL     1      -0.979  10.243 -11.038  0.00  0.00    +0.000 C 
ATOM     27  H   UNL     1      -0.274   9.522 -10.610  0.00  0.00    +0.000 HD
ATOM     28  H   UNL     1      -0.619  11.259 -10.844  0.00  0.00    +0.000 HD
BRANCH  26  30
ATOM     29  O   UNL     1      -1.942  10.421 -13.244  0.00  0.00    +0.000 OA
ATOM     30  C   UNL     1      -1.029  10.028 -12.529  0.00  0.00    +0.000 C 
BRANCH  30  31
ATOM     31  O   UNL     1       0.088   9.363 -12.941  0.00  0.00    +0.000 OA
BRANCH  31  32
ATOM     32  C   UNL     1       0.437   9.539 -14.317  0.00  0.00    +0.000 C 
ATOM     33  H   UNL     1       1.492   9.814 -14.408  0.00  0.00    +0.000 HD
ATOM     34  H   UNL     1      -0.202  10.300 -14.776  0.00  0.00    +0.000 HD
ATOM     35  H   UNL     1       0.277   8.588 -14.832  0.00  0.00    +0.000 HD
ENDBRANCH  31  32
ENDBRANCH  30  31
ENDBRANCH  26  30
ENDBRANCH  23  26
ENDBRANCH  20  23
ENDBRANCH   1  20
TORSDOF 11
ENDMDL
MODEL 10
REMARK VINA RESULT:    -4.333     14.120     16.023
REMARK INTER + INTRA:          -7.200
REMARK INTER:                  -6.865
REMARK INTRA:                  -0.335
REMARK UNBOUND:                -0.335
REMARK  Name = 8050
REMARK  11 active torsions:
REMARK  status: ('A' for Active; 'I' for Inactive)
REMARK    1  A    between atoms: O_1  and  C_12
REMARK    2  A    between atoms: O_1  and  C_13
REMARK    3  A    between atoms: C_3  and  C_4
REMARK    4  A    between atoms: C_3  and  C_5
REMARK    5  A    between atoms: C_4  and  C_6
REMARK    6  A    between atoms: C_5  and  C_7
REMARK    7  A    between atoms: C_6  and  C_8
REMARK    8  A    between atoms: C_7  and  C_9
REMARK    9  A    between atoms: C_8  and  C_10
REMARK   10  A    between atoms: C_9  and  C_11
REMARK   11  A    between atoms: C_10  and  C_12
REMARK                            x       y       z     vdW  Elec       q    Type
REMARK                         _______ _______ _______ _____ _____    ______ ____
ROOT
ATOM      1  C   UNL     1      -6.750   5.870  -8.933  0.00  0.00    +0.000 C 
ATOM      2  H   UNL     1      -6.956   5.293  -9.843  0.00  0.00    +0.000 HD
ATOM      3  H   UNL     1      -7.198   6.862  -9.071  0.00  0.00    +0.000 HD
ENDROOT
BRANCH   1   4
ATOM      4  C   UNL     1      -7.398   5.180  -7.730  0.00  0.00    +0.000 C 
ATOM      5  H   UNL     1      -6.762   5.301  -6.846  0.00  0.00    +0.000 HD
ATOM      6  H   UNL     1      -8.360   5.658  -7.506  0.00  0.00    +0.000 HD
BRANCH   4   7
ATOM      7  C   UNL     1      -7.621   3.690  -8.001  0.00  0.00    +0.000 C 
ATOM      8  H   UNL     1      -6.650   3.189  -8.086  0.00  0.00    +0.000 HD
ATOM      9  H   UNL     1      -8.126   3.570  -8.967  0.00  0.00    +0.000 HD
BRANCH   7  10
ATOM     10  C   UNL     1      -8.451   2.993  -6.919  0.00  0.00    +0.000 C 
ATOM     11  H   UNL     1      -7.989   2.028  -6.676  0.00  0.00    +0.000 HD
ATOM     12  H   UNL     1      -9.447   2.774  -7.323  0.00  0.00    +0.000 HD
BRANCH  10  13
ATOM     13  C   UNL     1      -8.594   3.817  -5.638  0.00  0.00    +0.000 C 
ATOM     14  H   UNL     1      -7.886   3.456  -4.883  0.00  0.00    +0.000 HD
ATOM     15  H   UNL     1      -8.346   4.865  -5.841  0.00  0.00    +0.000 HD
BRANCH  13  16
ATOM     16  C   UNL     1     -10.008   3.738  -5.083  0.00  0.00    +0.000 C 
ATOM     17  H   UNL     1     -10.703   3.345  -5.832  0.00  0.00    +0.000 HD
ATOM     18  H   UNL     1     -10.354   4.733  -4.787  0.00  0.00    +0.000 HD
ATOM     19  H   UNL     1     -10.047   3.088  -4.203  0.00  0.00    +0.000 HD
ENDBRANCH  13  16
ENDBRANCH  10  13
ENDBRANCH   7  10
ENDBRANCH   4   7
ENDBRANCH   1   4
BRANCH   1  20
ATOM     20  C   UNL     1      -5.239   6.014  -8.744  0.00  0.00    +0.000 C 
ATOM     21  H   UNL     1      -5.034   6.603  -7.843  0.00  0.00    +0.000 HD
ATOM     22  H   UNL     1      -4.795   5.023  -8.591  0.00  0.00    +0.000 HD
BRANCH  20  23
ATOM     23  C   UNL     1      -4.590   6.688  -9.953  0.00  0.00    +0.000 C 
ATOM     24  H   UNL     1      -5.051   7.669 -10.120  0.00  0.00    +0.000 HD
ATOM     25  H   UNL     1      -4.786   6.090 -10.853  0.00  0.00    +0.000 HD
BRANCH  23  26
ATOM     26  C   UNL     1      -3.086   6.848  -9.757  0.00  0.00    +0.000 C 
ATOM     27  H   UNL     1      -2.551   6.496 -10.646  0.00  0.00    +0.000 HD
ATOM     28  H   UNL     1      -2.761   6.269  -8.886  0.00  0.00    +0.000 HD
BRANCH  26  30
ATOM     29  O   UNL     1      -2.955   8.898  -8.490  0.00  0.00    +0.000 OA
ATOM     30  C   UNL     1      -2.730   8.295  -9.532  0.00  0.00    +0.000 C 
BRANCH  30  31
ATOM     31  O   UNL     1      -2.115   8.801 -10.640  0.00  0.00    +0.000 OA
BRANCH  31  32
ATOM     32  C   UNL     1      -2.922   9.657 -11.454  0.00  0.00    +0.000 C 
ATOM     33  H   UNL     1      -3.661  10.179 -10.838  0.00  0.00    +0.000 HD
ATOM     34  H   UNL     1      -3.414   9.078 -12.242  0.00  0.00    +0.000 HD
ATOM     35  H   UNL     1      -2.267  10.398 -11.920  0.00  0.00    +0.000 HD
ENDBRANCH  31  32
ENDBRANCH  30  31
ENDBRANCH  26  30
ENDBRANCH  23  26
ENDBRANCH  20  23
ENDBRANCH   1  20
TORSDOF 11
ENDMDL
