MODEL 1
REMARK VINA RESULT:    -4.108      0.000      0.000
REMARK INTER + INTRA:          -5.685
REMARK INTER:                  -5.463
REMARK INTRA:                  -0.222
REMARK UNBOUND:                -0.136
REMARK  Name = 7824
REMARK  7 active torsions:
REMARK  status: ('A' for Active; 'I' for Inactive)
REMARK    1  A    between atoms: O_1  and  C_8
REMARK    2  A    between atoms: O_1  and  C_9
REMARK    3  A    between atoms: C_3  and  C_4
REMARK    4  A    between atoms: C_3  and  C_5
REMARK    5  A    between atoms: C_4  and  C_6
REMARK    6  A    between atoms: C_5  and  C_7
REMARK    7  A    between atoms: C_6  and  C_8
REMARK                            x       y       z     vdW  Elec       q    Type
REMARK                         _______ _______ _______ _____ _____    ______ ____
ROOT
ATOM      1  C   UNL     1       5.256   8.622   0.549  0.00  0.00    +0.000 C 
ATOM      2  H   UNL     1       5.355   8.325  -0.503  0.00  0.00    +0.000 HD
ATOM      3  H   UNL     1       4.411   8.051   0.955  0.00  0.00    +0.000 HD
ENDROOT
BRANCH   1   4
ATOM      4  C   UNL     1       6.534   8.253   1.309  0.00  0.00    +0.000 C 
ATOM      5  H   UNL     1       7.128   9.156   1.491  0.00  0.00    +0.000 HD
ATOM      6  H   UNL     1       7.143   7.582   0.693  0.00  0.00    +0.000 HD
BRANCH   4   7
ATOM      7  C   UNL     1       6.209   7.573   2.640  0.00  0.00    +0.000 C 
ATOM      8  H   UNL     1       5.128   7.607   2.822  0.00  0.00    +0.000 HD
ATOM      9  H   UNL     1       6.498   6.515   2.598  0.00  0.00    +0.000 HD
BRANCH   7  10
ATOM     10  C   UNL     1       6.934   8.239   3.798  0.00  0.00    +0.000 C 
ATOM     11  H   UNL     1       7.917   7.785   3.959  0.00  0.00    +0.000 HD
ATOM     12  H   UNL     1       7.076   9.308   3.610  0.00  0.00    +0.000 HD
ATOM     13  H   UNL     1       6.356   8.130   4.721  0.00  0.00    +0.000 HD
ENDBRANCH   7  10
ENDBRANCH   4   7
ENDBRANCH   1   4
BRANCH   1  14
ATOM     14  C   UNL     1       4.943  10.116   0.625  0.00  0.00    +0.000 C 
ATOM     15  H   UNL     1       5.783  10.644   1.090  0.00  0.00    +0.000 HD
ATOM     16  H   UNL     1       4.797  10.507  -0.389  0.00  0.00    +0.000 HD
BRANCH  14  18
ATOM     17  O   UNL     1       3.204   9.689   2.271  0.00  0.00    +0.000 OA
ATOM     18  C   UNL     1       3.699  10.425   1.428  0.00  0.00    +0.000 C 
BRANCH  18  19
ATOM     19  O   UNL     1       3.207  11.638   1.036  0.00  0.00    +0.000 OA
BRANCH  19  20
ATOM     20  C   UNL     1       3.213  11.879  -0.375  0.00  0.00    +0.000 C 
ATOM     21  H   UNL     1       3.088  10.919  -0.884  0.00  0.00    +0.000 HD
ATOM     22  H   UNL     1       4.169  12.316  -0.680  0.00  0.00    +0.000 HD
ATOM     23  H   UNL     1       2.382  12.534  -0.651  0.00  0.00    +0.000 HD
ENDBRANCH  19  20
ENDBRANCH  18  19
ENDBRANCH  14  18
ENDBRANCH   1  14
TORSDOF 7
ENDMDL
MODEL 2
REMARK VINA RESULT:    -3.997     13.499     14.526
REMARK INTER + INTRA:          -5.535
REMARK INTER:                  -5.313
REMARK INTRA:                  -0.222
REMARK UNBOUND:                -0.136
REMARK  Name = 7824
REMARK  7 active torsions:
REMARK  status: ('A' for Active; 'I' for Inactive)
REMARK    1  A    between atoms: O_1  and  C_8
REMARK    2  A    between atoms: O_1  and  C_9
REMARK    3  A    between atoms: C_3  and  C_4
REMARK    4  A    between atoms: C_3  and  C_5
REMARK    5  A    between atoms: C_4  and  C_6
REMARK    6  A    between atoms: C_5  and  C_7
REMARK    7  A    between atoms: C_6  and  C_8
REMARK                            x       y       z     vdW  Elec       q    Type
REMARK                         _______ _______ _______ _____ _____    ______ ____
ROOT
ATOM      1  C   UNL     1      -2.602   9.698 -10.167  0.00  0.00    +0.000 C 
ATOM      2  H   UNL     1      -3.057   9.158 -11.007  0.00  0.00    +0.000 HD
ATOM      3  H   UNL     1      -3.209  10.599 -10.011  0.00  0.00    +0.000 HD
ENDROOT
BRANCH   1   4
ATOM      4  C   UNL     1      -2.654   8.825  -8.909  0.00  0.00    +0.000 C 
ATOM      5  H   UNL     1      -3.154   9.372  -8.101  0.00  0.00    +0.000 HD
ATOM      6  H   UNL     1      -1.634   8.610  -8.572  0.00  0.00    +0.000 HD
BRANCH   4   7
ATOM      7  C   UNL     1      -3.392   7.512  -9.176  0.00  0.00    +0.000 C 
ATOM      8  H   UNL     1      -3.351   6.874  -8.286  0.00  0.00    +0.000 HD
ATOM      9  H   UNL     1      -4.450   7.715  -9.381  0.00  0.00    +0.000 HD
BRANCH   7  10
ATOM     10  C   UNL     1      -2.793   6.765 -10.356  0.00  0.00    +0.000 C 
ATOM     11  H   UNL     1      -2.492   7.459 -11.148  0.00  0.00    +0.000 HD
ATOM     12  H   UNL     1      -1.912   6.191 -10.051  0.00  0.00    +0.000 HD
ATOM     13  H   UNL     1      -3.525   6.069 -10.776  0.00  0.00    +0.000 HD
ENDBRANCH   7  10
ENDBRANCH   4   7
ENDBRANCH   1   4
BRANCH   1  14
ATOM     14  C   UNL     1      -1.176  10.102 -10.538  0.00  0.00    +0.000 C 
ATOM     15  H   UNL     1      -1.093  11.194 -10.543  0.00  0.00    +0.000 HD
ATOM     16  H   UNL     1      -0.480   9.697  -9.794  0.00  0.00    +0.000 HD
BRANCH  14  18
ATOM     17  O   UNL     1      -0.239   8.508 -12.119  0.00  0.00    +0.000 OA
ATOM     18  C   UNL     1      -0.749   9.599 -11.900  0.00  0.00    +0.000 C 
BRANCH  18  19
ATOM     19  O   UNL     1      -0.997  10.568 -12.830  0.00  0.00    +0.000 OA
BRANCH  19  20
ATOM     20  C   UNL     1      -1.866  10.186 -13.901  0.00  0.00    +0.000 C 
ATOM     21  H   UNL     1      -1.892  11.003 -14.626  0.00  0.00    +0.000 HD
ATOM     22  H   UNL     1      -2.880  10.019 -13.524  0.00  0.00    +0.000 HD
ATOM     23  H   UNL     1      -1.485   9.288 -14.397  0.00  0.00    +0.000 HD
ENDBRANCH  19  20
ENDBRANCH  18  19
ENDBRANCH  14  18
ENDBRANCH   1  14
TORSDOF 7
ENDMDL
MODEL 3
REMARK VINA RESULT:    -3.968     27.980     28.527
REMARK INTER + INTRA:          -5.495
REMARK INTER:                  -5.378
REMARK INTRA:                  -0.117
REMARK UNBOUND:                -0.136
REMARK  Name = 7824
REMARK  7 active torsions:
REMARK  status: ('A' for Active; 'I' for Inactive)
REMARK    1  A    between atoms: O_1  and  C_8
REMARK    2  A    between atoms: O_1  and  C_9
REMARK    3  A    between atoms: C_3  and  C_4
REMARK    4  A    between atoms: C_3  and  C_5
REMARK    5  A    between atoms: C_4  and  C_6
REMARK    6  A    between atoms: C_5  and  C_7
REMARK    7  A    between atoms: C_6  and  C_8
REMARK                            x       y       z     vdW  Elec       q    Type
REMARK                         _______ _______ _______ _____ _____    ______ ____
ROOT
ATOM      1  C   UNL     1     -20.506  -3.265   5.413  0.00  0.00    +0.000 C 
ATOM      2  H   UNL     1     -19.488  -3.177   5.814  0.00  0.00    +0.000 HD
ATOM      3  H   UNL     1     -21.169  -3.395   6.278  0.00  0.00    +0.000 HD
ENDROOT
BRANCH   1   4
ATOM      4  C   UNL     1     -20.878  -1.976   4.674  0.00  0.00    +0.000 C 
ATOM      5  H   UNL     1     -21.923  -2.029   4.345  0.00  0.00    +0.000 HD
ATOM      6  H   UNL     1     -20.259  -1.879   3.775  0.00  0.00    +0.000 HD
BRANCH   4   7
ATOM      7  C   UNL     1     -20.681  -0.749   5.567  0.00  0.00    +0.000 C 
ATOM      8  H   UNL     1     -19.915  -0.094   5.136  0.00  0.00    +0.000 HD
ATOM      9  H   UNL     1     -21.612  -0.171   5.617  0.00  0.00    +0.000 HD
BRANCH   7  10
ATOM     10  C   UNL     1     -20.268  -1.145   6.975  0.00  0.00    +0.000 C 
ATOM     11  H   UNL     1     -19.574  -1.992   6.957  0.00  0.00    +0.000 HD
ATOM     12  H   UNL     1     -19.778  -0.311   7.488  0.00  0.00    +0.000 HD
ATOM     13  H   UNL     1     -21.145  -1.436   7.560  0.00  0.00    +0.000 HD
ENDBRANCH   7  10
ENDBRANCH   4   7
ENDBRANCH   1   4
BRANCH   1  14
ATOM     14  C   UNL     1     -20.591  -4.498   4.515  0.00  0.00    +0.000 C 
ATOM     15  H   UNL     1     -21.219  -5.258   4.993  0.00  0.00    +0.000 HD
ATOM     16  H   UNL     1     -21.044  -4.216   3.557  0.00  0.00    +0.000 HD
BRANCH  14  18
ATOM     17  O   UNL     1     -18.486  -5.581   5.074  0.00  0.00    +0.000 OA
ATOM     18  C   UNL     1     -19.243  -5.122   4.229  0.00  0.00    +0.000 C 
BRANCH  18  19
ATOM     19  O   UNL     1     -19.001  -5.061   2.886  0.00  0.00    +0.000 OA
BRANCH  19  20
ATOM     20  C   UNL     1     -19.420  -6.203   2.132  0.00  0.00    +0.000 C 
ATOM     21  H   UNL     1     -19.087  -6.070   1.100  0.00  0.00    +0.000 HD
ATOM     22  H   UNL     1     -20.512  -6.282   2.141  0.00  0.00    +0.000 HD
ATOM     23  H   UNL     1     -18.963  -7.112   2.535  0.00  0.00    +0.000 HD
ENDBRANCH  19  20
ENDBRANCH  18  19
ENDBRANCH  14  18
ENDBRANCH   1  14
TORSDOF 7
ENDMDL
MODEL 4
REMARK VINA RESULT:    -3.877     13.342     14.330
REMARK INTER + INTRA:          -5.373
REMARK INTER:                  -5.154
REMARK INTRA:                  -0.219
REMARK UNBOUND:                -0.136
REMARK  Name = 7824
REMARK  7 active torsions:
REMARK  status: ('A' for Active; 'I' for Inactive)
REMARK    1  A    between atoms: O_1  and  C_8
REMARK    2  A    between atoms: O_1  and  C_9
REMARK    3  A    between atoms: C_3  and  C_4
REMARK    4  A    between atoms: C_3  and  C_5
REMARK    5  A    between atoms: C_4  and  C_6
REMARK    6  A    between atoms: C_5  and  C_7
REMARK    7  A    between atoms: C_6  and  C_8
REMARK                            x       y       z     vdW  Elec       q    Type
REMARK                         _______ _______ _______ _____ _____    ______ ____
ROOT
ATOM      1  C   UNL     1      -2.696   9.635 -10.108  0.00  0.00    +0.000 C 
ATOM      2  H   UNL     1      -3.251  10.539  -9.823  0.00  0.00    +0.000 HD
ATOM      3  H   UNL     1      -3.187   9.240 -11.006  0.00  0.00    +0.000 HD
ENDROOT
BRANCH   1   4
ATOM      4  C   UNL     1      -1.248  10.006 -10.440  0.00  0.00    +0.000 C 
ATOM      5  H   UNL     1      -0.564   9.319  -9.926  0.00  0.00    +0.000 HD
ATOM      6  H   UNL     1      -1.035  11.014 -10.068  0.00  0.00    +0.000 HD
BRANCH   4   7
ATOM      7  C   UNL     1      -0.994   9.952 -11.947  0.00  0.00    +0.000 C 
ATOM      8  H   UNL     1      -1.947  10.006 -12.488  0.00  0.00    +0.000 HD
ATOM      9  H   UNL     1      -0.397  10.819 -12.256  0.00  0.00    +0.000 HD
BRANCH   7  10
ATOM     10  C   UNL     1      -0.262   8.681 -12.345  0.00  0.00    +0.000 C 
ATOM     11  H   UNL     1      -0.866   8.080 -13.034  0.00  0.00    +0.000 HD
ATOM     12  H   UNL     1       0.688   8.913 -12.836  0.00  0.00    +0.000 HD
ATOM     13  H   UNL     1      -0.050   8.073 -11.461  0.00  0.00    +0.000 HD
ENDBRANCH   7  10
ENDBRANCH   4   7
ENDBRANCH   1   4
BRANCH   1  14
ATOM     14  C   UNL     1      -2.792   8.608  -8.982  0.00  0.00    +0.000 C 
ATOM     15  H   UNL     1      -1.848   8.581  -8.427  0.00  0.00    +0.000 HD
ATOM     16  H   UNL     1      -3.597   8.897  -8.295  0.00  0.00    +0.000 HD
BRANCH  14  18
ATOM     17  O   UNL     1      -2.620   6.710 -10.494  0.00  0.00    +0.000 OA
ATOM     18  C   UNL     1      -3.081   7.207  -9.475  0.00  0.00    +0.000 C 
BRANCH  18  19
ATOM     19  O   UNL     1      -3.957   6.606  -8.617  0.00  0.00    +0.000 OA
BRANCH  19  20
ATOM     20  C   UNL     1      -5.215   6.227  -9.186  0.00  0.00    +0.000 C 
ATOM     21  H   UNL     1      -5.325   5.145  -9.078  0.00  0.00    +0.000 HD
ATOM     22  H   UNL     1      -5.239   6.477 -10.251  0.00  0.00    +0.000 HD
ATOM     23  H   UNL     1      -6.035   6.719  -8.654  0.00  0.00    +0.000 HD
ENDBRANCH  19  20
ENDBRANCH  18  19
ENDBRANCH  14  18
ENDBRANCH   1  14
TORSDOF 7
ENDMDL
MODEL 5
REMARK VINA RESULT:    -3.872     13.769     15.095
REMARK INTER + INTRA:          -5.365
REMARK INTER:                  -5.287
REMARK INTRA:                  -0.078
REMARK UNBOUND:                -0.136
REMARK  Name = 7824
REMARK  7 active torsions:
REMARK  status: ('A' for Active; 'I' for Inactive)
REMARK    1  A    between atoms: O_1  and  C_8
REMARK    2  A    between atoms: O_1  and  C_9
REMARK    3  A    between atoms: C_3  and  C_4
REMARK    4  A    between atoms: C_3  and  C_5
REMARK    5  A    between atoms: C_4  and  C_6
REMARK    6  A    between atoms: C_5  and  C_7
REMARK    7  A    between atoms: C_6  and  C_8
REMARK                            x       y       z     vdW  Elec       q    Type
REMARK                         _______ _______ _______ _____ _____    ______ ____
ROOT
ATOM      1  C   UNL     1      -2.883   7.274 -11.091  0.00  0.00    +0.000 C 
ATOM      2  H   UNL     1      -3.709   6.886 -11.701  0.00  0.00    +0.000 HD
ATOM      3  H   UNL     1      -2.960   8.369 -11.125  0.00  0.00    +0.000 HD
ENDROOT
BRANCH   1   4
ATOM      4  C   UNL     1      -3.046   6.797  -9.645  0.00  0.00    +0.000 C 
ATOM      5  H   UNL     1      -2.175   6.197  -9.354  0.00  0.00    +0.000 HD
ATOM      6  H   UNL     1      -3.926   6.148  -9.572  0.00  0.00    +0.000 HD
BRANCH   4   7
ATOM      7  C   UNL     1      -3.201   7.978  -8.686  0.00  0.00    +0.000 C 
ATOM      8  H   UNL     1      -4.264   8.175  -8.504  0.00  0.00    +0.000 HD
ATOM      9  H   UNL     1      -2.746   7.734  -7.718  0.00  0.00    +0.000 HD
BRANCH   7  10
ATOM     10  C   UNL     1      -2.546   9.234  -9.238  0.00  0.00    +0.000 C 
ATOM     11  H   UNL     1      -1.508   9.040  -9.529  0.00  0.00    +0.000 HD
ATOM     12  H   UNL     1      -3.085   9.604 -10.116  0.00  0.00    +0.000 HD
ATOM     13  H   UNL     1      -2.544  10.025  -8.482  0.00  0.00    +0.000 HD
ENDBRANCH   7  10
ENDBRANCH   4   7
ENDBRANCH   1   4
BRANCH   1  14
ATOM     14  C   UNL     1      -1.553   6.838 -11.703  0.00  0.00    +0.000 C 
ATOM     15  H   UNL     1      -0.740   7.039 -10.998  0.00  0.00    +0.000 HD
ATOM     16  H   UNL     1      -1.585   5.760 -11.907  0.00  0.00    +0.000 HD
BRANCH  14  18
ATOM     17  O   UNL     1      -1.732   7.293 -14.086  0.00  0.00    +0.000 OA
ATOM     18  C   UNL     1      -1.231   7.549 -12.999  0.00  0.00    +0.000 C 
BRANCH  18  19
ATOM     19  O   UNL     1      -0.274   8.494 -12.762  0.00  0.00    +0.000 OA
BRANCH  19  20
ATOM     20  C   UNL     1       0.218   9.177 -13.919  0.00  0.00    +0.000 C 
ATOM     21  H   UNL     1      -0.547   9.121 -14.697  0.00  0.00    +0.000 HD
ATOM     22  H   UNL     1       1.128   8.693 -14.286  0.00  0.00    +0.000 HD
ATOM     23  H   UNL     1       0.406  10.230 -13.686  0.00  0.00    +0.000 HD
ENDBRANCH  19  20
ENDBRANCH  18  19
ENDBRANCH  14  18
ENDBRANCH   1  14
TORSDOF 7
ENDMDL
MODEL 6
REMARK VINA RESULT:    -3.813     28.171     28.997
REMARK INTER + INTRA:          -5.287
REMARK INTER:                  -5.111
REMARK INTRA:                  -0.176
REMARK UNBOUND:                -0.136
REMARK  Name = 7824
REMARK  7 active torsions:
REMARK  status: ('A' for Active; 'I' for Inactive)
REMARK    1  A    between atoms: O_1  and  C_8
REMARK    2  A    between atoms: O_1  and  C_9
REMARK    3  A    between atoms: C_3  and  C_4
REMARK    4  A    between atoms: C_3  and  C_5
REMARK    5  A    between atoms: C_4  and  C_6
REMARK    6  A    between atoms: C_5  and  C_7
REMARK    7  A    between atoms: C_6  and  C_8
REMARK                            x       y       z     vdW  Elec       q    Type
REMARK                         _______ _______ _______ _____ _____    ______ ____
ROOT
ATOM      1  C   UNL     1     -20.949  -1.555   4.793  0.00  0.00    +0.000 C 
ATOM      2  H   UNL     1     -22.041  -1.598   4.698  0.00  0.00    +0.000 HD
ATOM      3  H   UNL     1     -20.558  -1.343   3.790  0.00  0.00    +0.000 HD
ENDROOT
BRANCH   1   4
ATOM      4  C   UNL     1     -20.561  -0.416   5.742  0.00  0.00    +0.000 C 
ATOM      5  H   UNL     1     -21.354   0.341   5.753  0.00  0.00    +0.000 HD
ATOM      6  H   UNL     1     -19.652   0.072   5.373  0.00  0.00    +0.000 HD
BRANCH   4   7
ATOM      7  C   UNL     1     -20.324  -0.935   7.161  0.00  0.00    +0.000 C 
ATOM      8  H   UNL     1     -20.163  -2.020   7.140  0.00  0.00    +0.000 HD
ATOM      9  H   UNL     1     -19.416  -0.481   7.577  0.00  0.00    +0.000 HD
BRANCH   7  10
ATOM     10  C   UNL     1     -21.498  -0.620   8.073  0.00  0.00    +0.000 C 
ATOM     11  H   UNL     1     -21.527   0.446   8.321  0.00  0.00    +0.000 HD
ATOM     12  H   UNL     1     -22.447  -0.888   7.598  0.00  0.00    +0.000 HD
ATOM     13  H   UNL     1     -21.415  -1.184   9.007  0.00  0.00    +0.000 HD
ENDBRANCH   7  10
ENDBRANCH   4   7
ENDBRANCH   1   4
BRANCH   1  14
ATOM     14  C   UNL     1     -20.429  -2.911   5.266  0.00  0.00    +0.000 C 
ATOM     15  H   UNL     1     -19.466  -3.123   4.789  0.00  0.00    +0.000 HD
ATOM     16  H   UNL     1     -20.287  -2.885   6.353  0.00  0.00    +0.000 HD
BRANCH  14  18
ATOM     17  O   UNL     1     -22.529  -4.137   5.318  0.00  0.00    +0.000 OA
ATOM     18  C   UNL     1     -21.367  -4.055   4.946  0.00  0.00    +0.000 C 
BRANCH  18  19
ATOM     19  O   UNL     1     -20.696  -4.985   4.204  0.00  0.00    +0.000 OA
BRANCH  19  20
ATOM     20  C   UNL     1     -19.319  -5.170   4.548  0.00  0.00    +0.000 C 
ATOM     21  H   UNL     1     -18.914  -4.205   4.862  0.00  0.00    +0.000 HD
ATOM     22  H   UNL     1     -18.755  -5.520   3.677  0.00  0.00    +0.000 HD
ATOM     23  H   UNL     1     -19.227  -5.877   5.378  0.00  0.00    +0.000 HD
ENDBRANCH  19  20
ENDBRANCH  18  19
ENDBRANCH  14  18
ENDBRANCH   1  14
TORSDOF 7
ENDMDL
MODEL 7
REMARK VINA RESULT:    -3.746      1.763      2.606
REMARK INTER + INTRA:          -5.196
REMARK INTER:                  -4.848
REMARK INTRA:                  -0.349
REMARK UNBOUND:                -0.136
REMARK  Name = 7824
REMARK  7 active torsions:
REMARK  status: ('A' for Active; 'I' for Inactive)
REMARK    1  A    between atoms: O_1  and  C_8
REMARK    2  A    between atoms: O_1  and  C_9
REMARK    3  A    between atoms: C_3  and  C_4
REMARK    4  A    between atoms: C_3  and  C_5
REMARK    5  A    between atoms: C_4  and  C_6
REMARK    6  A    between atoms: C_5  and  C_7
REMARK    7  A    between atoms: C_6  and  C_8
REMARK                            x       y       z     vdW  Elec       q    Type
REMARK                         _______ _______ _______ _____ _____    ______ ____
ROOT
ATOM      1  C   UNL     1       7.306   8.671   1.828  0.00  0.00    +0.000 C 
ATOM      2  H   UNL     1       7.388   9.765   1.797  0.00  0.00    +0.000 HD
ATOM      3  H   UNL     1       8.323   8.279   1.701  0.00  0.00    +0.000 HD
ENDROOT
BRANCH   1   4
ATOM      4  C   UNL     1       6.758   8.236   3.191  0.00  0.00    +0.000 C 
ATOM      5  H   UNL     1       5.960   8.920   3.503  0.00  0.00    +0.000 HD
ATOM      6  H   UNL     1       7.554   8.302   3.941  0.00  0.00    +0.000 HD
BRANCH   4   7
ATOM      7  C   UNL     1       6.219   6.805   3.140  0.00  0.00    +0.000 C 
ATOM      8  H   UNL     1       6.168   6.463   2.099  0.00  0.00    +0.000 HD
ATOM      9  H   UNL     1       6.903   6.131   3.670  0.00  0.00    +0.000 HD
BRANCH   7  10
ATOM     10  C   UNL     1       4.839   6.706   3.769  0.00  0.00    +0.000 C 
ATOM     11  H   UNL     1       4.575   5.663   3.972  0.00  0.00    +0.000 HD
ATOM     12  H   UNL     1       4.797   7.261   4.712  0.00  0.00    +0.000 HD
ATOM     13  H   UNL     1       4.084   7.123   3.096  0.00  0.00    +0.000 HD
ENDBRANCH   7  10
ENDBRANCH   4   7
ENDBRANCH   1   4
BRANCH   1  14
ATOM     14  C   UNL     1       6.430   8.198   0.669  0.00  0.00    +0.000 C 
ATOM     15  H   UNL     1       7.059   7.965  -0.197  0.00  0.00    +0.000 HD
ATOM     16  H   UNL     1       5.891   7.290   0.970  0.00  0.00    +0.000 HD
BRANCH  14  18
ATOM     17  O   UNL     1       5.664  10.278  -0.333  0.00  0.00    +0.000 OA
ATOM     18  C   UNL     1       5.407   9.225   0.236  0.00  0.00    +0.000 C 
BRANCH  18  19
ATOM     19  O   UNL     1       4.164   8.800   0.610  0.00  0.00    +0.000 OA
BRANCH  19  20
ATOM     20  C   UNL     1       3.576   9.504   1.708  0.00  0.00    +0.000 C 
ATOM     21  H   UNL     1       4.342  10.146   2.150  0.00  0.00    +0.000 HD
ATOM     22  H   UNL     1       3.228   8.798   2.468  0.00  0.00    +0.000 HD
ATOM     23  H   UNL     1       2.751  10.133   1.357  0.00  0.00    +0.000 HD
ENDBRANCH  19  20
ENDBRANCH  18  19
ENDBRANCH  14  18
ENDBRANCH   1  14
TORSDOF 7
ENDMDL
MODEL 8
REMARK VINA RESULT:    -3.677     14.092     15.511
REMARK INTER + INTRA:          -5.103
REMARK INTER:                  -4.956
REMARK INTRA:                  -0.147
REMARK UNBOUND:                -0.136
REMARK  Name = 7824
REMARK  7 active torsions:
REMARK  status: ('A' for Active; 'I' for Inactive)
REMARK    1  A    between atoms: O_1  and  C_8
REMARK    2  A    between atoms: O_1  and  C_9
REMARK    3  A    between atoms: C_3  and  C_4
REMARK    4  A    between atoms: C_3  and  C_5
REMARK    5  A    between atoms: C_4  and  C_6
REMARK    6  A    between atoms: C_5  and  C_7
REMARK    7  A    between atoms: C_6  and  C_8
REMARK                            x       y       z     vdW  Elec       q    Type
REMARK                         _______ _______ _______ _____ _____    ______ ____
ROOT
ATOM      1  C   UNL     1      -8.394  11.022   6.920  0.00  0.00    +0.000 C 
ATOM      2  H   UNL     1      -7.334  11.178   7.156  0.00  0.00    +0.000 HD
ATOM      3  H   UNL     1      -8.952  11.791   7.469  0.00  0.00    +0.000 HD
ENDROOT
BRANCH   1   4
ATOM      4  C   UNL     1      -8.617  11.208   5.415  0.00  0.00    +0.000 C 
ATOM      5  H   UNL     1      -9.334  12.020   5.247  0.00  0.00    +0.000 HD
ATOM      6  H   UNL     1      -9.055  10.295   4.996  0.00  0.00    +0.000 HD
BRANCH   4   7
ATOM      7  C   UNL     1      -7.304  11.523   4.696  0.00  0.00    +0.000 C 
ATOM      8  H   UNL     1      -6.552  10.765   4.945  0.00  0.00    +0.000 HD
ATOM      9  H   UNL     1      -7.456  11.485   3.611  0.00  0.00    +0.000 HD
BRANCH   7  10
ATOM     10  C   UNL     1      -6.776  12.897   5.075  0.00  0.00    +0.000 C 
ATOM     11  H   UNL     1      -5.757  13.042   4.702  0.00  0.00    +0.000 HD
ATOM     12  H   UNL     1      -7.409  13.688   4.661  0.00  0.00    +0.000 HD
ATOM     13  H   UNL     1      -6.759  13.010   6.163  0.00  0.00    +0.000 HD
ENDBRANCH   7  10
ENDBRANCH   4   7
ENDBRANCH   1   4
BRANCH   1  14
ATOM     14  C   UNL     1      -8.821   9.638   7.406  0.00  0.00    +0.000 C 
ATOM     15  H   UNL     1      -8.683   8.907   6.602  0.00  0.00    +0.000 HD
ATOM     16  H   UNL     1      -8.198   9.347   8.261  0.00  0.00    +0.000 HD
BRANCH  14  18
ATOM     17  O   UNL     1     -11.221   9.384   7.099  0.00  0.00    +0.000 OA
ATOM     18  C   UNL     1     -10.269   9.580   7.842  0.00  0.00    +0.000 C 
BRANCH  18  19
ATOM     19  O   UNL     1     -10.338   9.810   9.187  0.00  0.00    +0.000 OA
BRANCH  19  20
ATOM     20  C   UNL     1     -11.157  10.915   9.582  0.00  0.00    +0.000 C 
ATOM     21  H   UNL     1     -10.504  11.701   9.968  0.00  0.00    +0.000 HD
ATOM     22  H   UNL     1     -11.847  10.610  10.375  0.00  0.00    +0.000 HD
ATOM     23  H   UNL     1     -11.707  11.306   8.720  0.00  0.00    +0.000 HD
ENDBRANCH  19  20
ENDBRANCH  18  19
ENDBRANCH  14  18
ENDBRANCH   1  14
TORSDOF 7
ENDMDL
MODEL 9
REMARK VINA RESULT:    -3.579     14.081     15.069
REMARK INTER + INTRA:          -4.970
REMARK INTER:                  -4.737
REMARK INTRA:                  -0.233
REMARK UNBOUND:                -0.136
REMARK  Name = 7824
REMARK  7 active torsions:
REMARK  status: ('A' for Active; 'I' for Inactive)
REMARK    1  A    between atoms: O_1  and  C_8
REMARK    2  A    between atoms: O_1  and  C_9
REMARK    3  A    between atoms: C_3  and  C_4
REMARK    4  A    between atoms: C_3  and  C_5
REMARK    5  A    between atoms: C_4  and  C_6
REMARK    6  A    between atoms: C_5  and  C_7
REMARK    7  A    between atoms: C_6  and  C_8
REMARK                            x       y       z     vdW  Elec       q    Type
REMARK                         _______ _______ _______ _____ _____    ______ ____
ROOT
ATOM      1  C   UNL     1      -1.348   6.952 -11.703  0.00  0.00    +0.000 C 
ATOM      2  H   UNL     1      -0.721   7.060 -10.809  0.00  0.00    +0.000 HD
ATOM      3  H   UNL     1      -1.019   6.032 -12.204  0.00  0.00    +0.000 HD
ENDROOT
BRANCH   1   4
ATOM      4  C   UNL     1      -2.815   6.808 -11.286  0.00  0.00    +0.000 C 
ATOM      5  H   UNL     1      -3.213   5.857 -11.659  0.00  0.00    +0.000 HD
ATOM      6  H   UNL     1      -3.405   7.609 -11.747  0.00  0.00    +0.000 HD
BRANCH   4   7
ATOM      7  C   UNL     1      -2.967   6.870  -9.766  0.00  0.00    +0.000 C 
ATOM      8  H   UNL     1      -2.313   6.125  -9.296  0.00  0.00    +0.000 HD
ATOM      9  H   UNL     1      -2.653   7.855  -9.400  0.00  0.00    +0.000 HD
BRANCH   7  10
ATOM     10  C   UNL     1      -4.403   6.617  -9.338  0.00  0.00    +0.000 C 
ATOM     11  H   UNL     1      -4.441   6.145  -8.350  0.00  0.00    +0.000 HD
ATOM     12  H   UNL     1      -4.969   7.553  -9.292  0.00  0.00    +0.000 HD
ATOM     13  H   UNL     1      -4.901   5.953 -10.051  0.00  0.00    +0.000 HD
ENDBRANCH   7  10
ENDBRANCH   4   7
ENDBRANCH   1   4
BRANCH   1  14
ATOM     14  C   UNL     1      -1.119   8.145 -12.629  0.00  0.00    +0.000 C 
ATOM     15  H   UNL     1      -0.082   8.143 -12.983  0.00  0.00    +0.000 HD
ATOM     16  H   UNL     1      -1.788   8.066 -13.494  0.00  0.00    +0.000 HD
BRANCH  14  18
ATOM     17  O   UNL     1      -0.766   9.909 -10.991  0.00  0.00    +0.000 OA
ATOM     18  C   UNL     1      -1.377   9.478 -11.960  0.00  0.00    +0.000 C 
BRANCH  18  19
ATOM     19  O   UNL     1      -2.416  10.099 -12.593  0.00  0.00    +0.000 OA
BRANCH  19  20
ATOM     20  C   UNL     1      -2.624   9.716 -13.956  0.00  0.00    +0.000 C 
ATOM     21  H   UNL     1      -2.395  10.577 -14.590  0.00  0.00    +0.000 HD
ATOM     22  H   UNL     1      -3.669   9.432 -14.114  0.00  0.00    +0.000 HD
ATOM     23  H   UNL     1      -1.954   8.894 -14.226  0.00  0.00    +0.000 HD
ENDBRANCH  19  20
ENDBRANCH  18  19
ENDBRANCH  14  18
ENDBRANCH   1  14
TORSDOF 7
ENDMDL
MODEL 10
REMARK VINA RESULT:    -3.516      5.144      6.736
REMARK INTER + INTRA:          -4.885
REMARK INTER:                  -4.749
REMARK INTRA:                  -0.136
REMARK UNBOUND:                -0.136
REMARK  Name = 7824
REMARK  7 active torsions:
REMARK  status: ('A' for Active; 'I' for Inactive)
REMARK    1  A    between atoms: O_1  and  C_8
REMARK    2  A    between atoms: O_1  and  C_9
REMARK    3  A    between atoms: C_3  and  C_4
REMARK    4  A    between atoms: C_3  and  C_5
REMARK    5  A    between atoms: C_4  and  C_6
REMARK    6  A    between atoms: C_5  and  C_7
REMARK    7  A    between atoms: C_6  and  C_8
REMARK                            x       y       z     vdW  Elec       q    Type
REMARK                         _______ _______ _______ _____ _____    ______ ____
ROOT
ATOM      1  C   UNL     1       8.762   9.953   5.294  0.00  0.00    +0.000 C 
ATOM      2  H   UNL     1       9.607   9.437   4.820  0.00  0.00    +0.000 HD
ATOM      3  H   UNL     1       8.380  10.669   4.555  0.00  0.00    +0.000 HD
ENDROOT
BRANCH   1   4
ATOM      4  C   UNL     1       7.667   8.937   5.634  0.00  0.00    +0.000 C 
ATOM      5  H   UNL     1       6.904   9.413   6.263  0.00  0.00    +0.000 HD
ATOM      6  H   UNL     1       8.099   8.115   6.216  0.00  0.00    +0.000 HD
BRANCH   4   7
ATOM      7  C   UNL     1       7.016   8.381   4.367  0.00  0.00    +0.000 C 
ATOM      8  H   UNL     1       6.266   9.088   3.992  0.00  0.00    +0.000 HD
ATOM      9  H   UNL     1       7.772   8.262   3.581  0.00  0.00    +0.000 HD
BRANCH   7  10
ATOM     10  C   UNL     1       6.353   7.037   4.624  0.00  0.00    +0.000 C 
ATOM     11  H   UNL     1       6.672   6.619   5.584  0.00  0.00    +0.000 HD
ATOM     12  H   UNL     1       5.263   7.134   4.637  0.00  0.00    +0.000 HD
ATOM     13  H   UNL     1       6.622   6.325   3.838  0.00  0.00    +0.000 HD
ENDBRANCH   7  10
ENDBRANCH   4   7
ENDBRANCH   1   4
BRANCH   1  14
ATOM     14  C   UNL     1       9.259  10.709   6.526  0.00  0.00    +0.000 C 
ATOM     15  H   UNL     1       9.300  10.028   7.383  0.00  0.00    +0.000 HD
ATOM     16  H   UNL     1      10.267  11.094   6.331  0.00  0.00    +0.000 HD
BRANCH  14  18
ATOM     17  O   UNL     1       8.406  12.982   6.375  0.00  0.00    +0.000 OA
ATOM     18  C   UNL     1       8.377  11.879   6.904  0.00  0.00    +0.000 C 
BRANCH  18  19
ATOM     19  O   UNL     1       7.572  11.511   7.944  0.00  0.00    +0.000 OA
BRANCH  19  20
ATOM     20  C   UNL     1       8.243  10.929   9.067  0.00  0.00    +0.000 C 
ATOM     21  H   UNL     1       9.279  10.732   8.778  0.00  0.00    +0.000 HD
ATOM     22  H   UNL     1       7.769   9.982   9.342  0.00  0.00    +0.000 HD
ATOM     23  H   UNL     1       8.240  11.624   9.912  0.00  0.00    +0.000 HD
ENDBRANCH  19  20
ENDBRANCH  18  19
ENDBRANCH  14  18
ENDBRANCH   1  14
TORSDOF 7
ENDMDL
