MODEL 1
REMARK VINA RESULT:    -4.603      0.000      0.000
REMARK INTER + INTRA:          -7.039
REMARK INTER:                  -6.572
REMARK INTRA:                  -0.467
REMARK UNBOUND:                -0.284
REMARK  Name = 8091
REMARK  9 active torsions:
REMARK  status: ('A' for Active; 'I' for Inactive)
REMARK    1  A    between atoms: O_1  and  C_10
REMARK    2  A    between atoms: O_1  and  C_11
REMARK    3  A    between atoms: C_3  and  C_4
REMARK    4  A    between atoms: C_3  and  C_5
REMARK    5  A    between atoms: C_4  and  C_6
REMARK    6  A    between atoms: C_5  and  C_7
REMARK    7  A    between atoms: C_6  and  C_8
REMARK    8  A    between atoms: C_7  and  C_9
REMARK    9  A    between atoms: C_8  and  C_10
REMARK                            x       y       z     vdW  Elec       q    Type
REMARK                         _______ _______ _______ _____ _____    ______ ____
ROOT
ATOM      1  C   UNL     1       6.348  11.755   0.004  0.00  0.00    +0.000 C 
ATOM      2  H   UNL     1       6.752  11.192   0.854  0.00  0.00    +0.000 HD
ATOM      3  H   UNL     1       6.862  12.724  -0.017  0.00  0.00    +0.000 HD
ENDROOT
BRANCH   1   4
ATOM      4  C   UNL     1       6.629  10.997  -1.296  0.00  0.00    +0.000 C 
ATOM      5  H   UNL     1       5.946  10.143  -1.380  0.00  0.00    +0.000 HD
ATOM      6  H   UNL     1       6.433  11.655  -2.152  0.00  0.00    +0.000 HD
BRANCH   4   7
ATOM      7  C   UNL     1       8.077  10.506  -1.350  0.00  0.00    +0.000 C 
ATOM      8  H   UNL     1       8.591  10.768  -0.418  0.00  0.00    +0.000 HD
ATOM      9  H   UNL     1       8.607  11.013  -2.166  0.00  0.00    +0.000 HD
BRANCH   7  10
ATOM     10  C   UNL     1       8.142   8.993  -1.564  0.00  0.00    +0.000 C 
ATOM     11  H   UNL     1       9.141   8.622  -1.305  0.00  0.00    +0.000 HD
ATOM     12  H   UNL     1       7.974   8.759  -2.622  0.00  0.00    +0.000 HD
BRANCH  10  13
ATOM     13  C   UNL     1       7.108   8.266  -0.720  0.00  0.00    +0.000 C 
ATOM     14  H   UNL     1       7.103   8.644   0.307  0.00  0.00    +0.000 HD
ATOM     15  H   UNL     1       7.314   7.190  -0.690  0.00  0.00    +0.000 HD
ATOM     16  H   UNL     1       6.108   8.408  -1.141  0.00  0.00    +0.000 HD
ENDBRANCH  10  13
ENDBRANCH   7  10
ENDBRANCH   4   7
ENDBRANCH   1   4
BRANCH   1  17
ATOM     17  C   UNL     1       4.846  11.980   0.202  0.00  0.00    +0.000 C 
ATOM     18  H   UNL     1       4.605  11.952   1.272  0.00  0.00    +0.000 HD
ATOM     19  H   UNL     1       4.580  12.984  -0.151  0.00  0.00    +0.000 HD
BRANCH  17  20
ATOM     20  C   UNL     1       3.998  10.942  -0.533  0.00  0.00    +0.000 C 
ATOM     21  H   UNL     1       3.078  11.414  -0.894  0.00  0.00    +0.000 HD
ATOM     22  H   UNL     1       4.558  10.556  -1.393  0.00  0.00    +0.000 HD
BRANCH  20  24
ATOM     23  O   UNL     1       3.640   8.593  -0.006  0.00  0.00    +0.000 OA
ATOM     24  C   UNL     1       3.607   9.768   0.338  0.00  0.00    +0.000 C 
BRANCH  24  25
ATOM     25  O   UNL     1       3.244  10.231   1.570  0.00  0.00    +0.000 OA
BRANCH  25  26
ATOM     26  C   UNL     1       3.539   9.359   2.667  0.00  0.00    +0.000 C 
ATOM     27  H   UNL     1       4.507   9.653   3.083  0.00  0.00    +0.000 HD
ATOM     28  H   UNL     1       3.606   8.324   2.320  0.00  0.00    +0.000 HD
ATOM     29  H   UNL     1       2.777   9.459   3.445  0.00  0.00    +0.000 HD
ENDBRANCH  25  26
ENDBRANCH  24  25
ENDBRANCH  20  24
ENDBRANCH  17  20
ENDBRANCH   1  17
TORSDOF 9
ENDMDL
MODEL 2
REMARK VINA RESULT:    -4.556      2.613      4.824
REMARK INTER + INTRA:          -6.971
REMARK INTER:                  -6.677
REMARK INTRA:                  -0.293
REMARK UNBOUND:                -0.284
REMARK  Name = 8091
REMARK  9 active torsions:
REMARK  status: ('A' for Active; 'I' for Inactive)
REMARK    1  A    between atoms: O_1  and  C_10
REMARK    2  A    between atoms: O_1  and  C_11
REMARK    3  A    between atoms: C_3  and  C_4
REMARK    4  A    between atoms: C_3  and  C_5
REMARK    5  A    between atoms: C_4  and  C_6
REMARK    6  A    between atoms: C_5  and  C_7
REMARK    7  A    between atoms: C_6  and  C_8
REMARK    8  A    between atoms: C_7  and  C_9
REMARK    9  A    between atoms: C_8  and  C_10
REMARK                            x       y       z     vdW  Elec       q    Type
REMARK                         _______ _______ _______ _____ _____    ______ ____
ROOT
ATOM      1  C   UNL     1       4.673   8.632   3.072  0.00  0.00    +0.000 C 
ATOM      2  H   UNL     1       4.365   9.168   3.977  0.00  0.00    +0.000 HD
ATOM      3  H   UNL     1       5.533   9.170   2.653  0.00  0.00    +0.000 HD
ENDROOT
BRANCH   1   4
ATOM      4  C   UNL     1       5.089   7.205   3.435  0.00  0.00    +0.000 C 
ATOM      5  H   UNL     1       4.198   6.605   3.655  0.00  0.00    +0.000 HD
ATOM      6  H   UNL     1       5.588   6.740   2.576  0.00  0.00    +0.000 HD
BRANCH   4   7
ATOM      7  C   UNL     1       6.030   7.190   4.641  0.00  0.00    +0.000 C 
ATOM      8  H   UNL     1       6.983   6.728   4.359  0.00  0.00    +0.000 HD
ATOM      9  H   UNL     1       5.595   6.574   5.438  0.00  0.00    +0.000 HD
BRANCH   7  10
ATOM     10  C   UNL     1       6.280   8.603   5.168  0.00  0.00    +0.000 C 
ATOM     11  H   UNL     1       5.760   8.743   6.123  0.00  0.00    +0.000 HD
ATOM     12  H   UNL     1       5.871   9.340   4.466  0.00  0.00    +0.000 HD
BRANCH  10  13
ATOM     13  C   UNL     1       7.763   8.870   5.366  0.00  0.00    +0.000 C 
ATOM     14  H   UNL     1       8.194   9.361   4.487  0.00  0.00    +0.000 HD
ATOM     15  H   UNL     1       8.310   7.937   5.540  0.00  0.00    +0.000 HD
ATOM     16  H   UNL     1       7.920   9.522   6.231  0.00  0.00    +0.000 HD
ENDBRANCH  10  13
ENDBRANCH   7  10
ENDBRANCH   4   7
ENDBRANCH   1   4
BRANCH   1  17
ATOM     17  C   UNL     1       3.527   8.635   2.056  0.00  0.00    +0.000 C 
ATOM     18  H   UNL     1       3.126   7.619   1.947  0.00  0.00    +0.000 HD
ATOM     19  H   UNL     1       2.705   9.254   2.439  0.00  0.00    +0.000 HD
BRANCH  17  20
ATOM     20  C   UNL     1       3.962   9.155   0.686  0.00  0.00    +0.000 C 
ATOM     21  H   UNL     1       4.992   8.840   0.489  0.00  0.00    +0.000 HD
ATOM     22  H   UNL     1       3.310   8.733  -0.088  0.00  0.00    +0.000 HD
BRANCH  20  24
ATOM     23  O   UNL     1       3.252  11.399   1.301  0.00  0.00    +0.000 OA
ATOM     24  C   UNL     1       3.908  10.663   0.576  0.00  0.00    +0.000 C 
BRANCH  24  25
ATOM     25  O   UNL     1       4.731  11.063  -0.437  0.00  0.00    +0.000 OA
BRANCH  25  26
ATOM     26  C   UNL     1       5.994  11.599  -0.029  0.00  0.00    +0.000 C 
ATOM     27  H   UNL     1       5.810  12.356   0.738  0.00  0.00    +0.000 HD
ATOM     28  H   UNL     1       6.495  12.074  -0.878  0.00  0.00    +0.000 HD
ATOM     29  H   UNL     1       6.620  10.810   0.397  0.00  0.00    +0.000 HD
ENDBRANCH  25  26
ENDBRANCH  24  25
ENDBRANCH  20  24
ENDBRANCH  17  20
ENDBRANCH   1  17
TORSDOF 9
ENDMDL
MODEL 3
REMARK VINA RESULT:    -4.467     13.028     14.323
REMARK INTER + INTRA:          -6.839
REMARK INTER:                  -6.427
REMARK INTRA:                  -0.412
REMARK UNBOUND:                -0.284
REMARK  Name = 8091
REMARK  9 active torsions:
REMARK  status: ('A' for Active; 'I' for Inactive)
REMARK    1  A    between atoms: O_1  and  C_10
REMARK    2  A    between atoms: O_1  and  C_11
REMARK    3  A    between atoms: C_3  and  C_4
REMARK    4  A    between atoms: C_3  and  C_5
REMARK    5  A    between atoms: C_4  and  C_6
REMARK    6  A    between atoms: C_5  and  C_7
REMARK    7  A    between atoms: C_6  and  C_8
REMARK    8  A    between atoms: C_7  and  C_9
REMARK    9  A    between atoms: C_8  and  C_10
REMARK                            x       y       z     vdW  Elec       q    Type
REMARK                         _______ _______ _______ _____ _____    ______ ____
ROOT
ATOM      1  C   UNL     1      -1.234  10.029 -10.244  0.00  0.00    +0.000 C 
ATOM      2  H   UNL     1      -1.021  10.983  -9.746  0.00  0.00    +0.000 HD
ATOM      3  H   UNL     1      -0.557   9.281  -9.812  0.00  0.00    +0.000 HD
ENDROOT
BRANCH   1   4
ATOM      4  C   UNL     1      -2.685   9.623  -9.979  0.00  0.00    +0.000 C 
ATOM      5  H   UNL     1      -3.295  10.519  -9.809  0.00  0.00    +0.000 HD
ATOM      6  H   UNL     1      -3.091   9.118 -10.864  0.00  0.00    +0.000 HD
BRANCH   4   7
ATOM      7  C   UNL     1      -2.790   8.694  -8.768  0.00  0.00    +0.000 C 
ATOM      8  H   UNL     1      -3.374   9.181  -7.979  0.00  0.00    +0.000 HD
ATOM      9  H   UNL     1      -1.789   8.506  -8.362  0.00  0.00    +0.000 HD
BRANCH   7  10
ATOM     10  C   UNL     1      -3.445   7.364  -9.144  0.00  0.00    +0.000 C 
ATOM     11  H   UNL     1      -4.510   7.517  -9.351  0.00  0.00    +0.000 HD
ATOM     12  H   UNL     1      -3.377   6.665  -8.301  0.00  0.00    +0.000 HD
BRANCH  10  13
ATOM     13  C   UNL     1      -2.785   6.743 -10.364  0.00  0.00    +0.000 C 
ATOM     14  H   UNL     1      -1.700   6.675 -10.232  0.00  0.00    +0.000 HD
ATOM     15  H   UNL     1      -2.985   7.337 -11.262  0.00  0.00    +0.000 HD
ATOM     16  H   UNL     1      -3.172   5.733 -10.532  0.00  0.00    +0.000 HD
ENDBRANCH  10  13
ENDBRANCH   7  10
ENDBRANCH   4   7
ENDBRANCH   1   4
BRANCH   1  17
ATOM     17  C   UNL     1      -0.959  10.158 -11.745  0.00  0.00    +0.000 C 
ATOM     18  H   UNL     1      -1.887  10.411 -12.271  0.00  0.00    +0.000 HD
ATOM     19  H   UNL     1      -0.267  10.993 -11.916  0.00  0.00    +0.000 HD
BRANCH  17  20
ATOM     20  C   UNL     1      -0.373   8.880 -12.343  0.00  0.00    +0.000 C 
ATOM     21  H   UNL     1       0.592   8.667 -11.870  0.00  0.00    +0.000 HD
ATOM     22  H   UNL     1      -1.053   8.042 -12.151  0.00  0.00    +0.000 HD
BRANCH  20  24
ATOM     23  O   UNL     1       0.875   9.377 -14.372  0.00  0.00    +0.000 OA
ATOM     24  C   UNL     1      -0.147   8.968 -13.836  0.00  0.00    +0.000 C 
BRANCH  24  25
ATOM     25  O   UNL     1      -1.251   8.490 -14.481  0.00  0.00    +0.000 OA
BRANCH  25  26
ATOM     26  C   UNL     1      -1.780   7.261 -13.969  0.00  0.00    +0.000 C 
ATOM     27  H   UNL     1      -1.260   7.031 -13.035  0.00  0.00    +0.000 HD
ATOM     28  H   UNL     1      -1.602   6.448 -14.679  0.00  0.00    +0.000 HD
ATOM     29  H   UNL     1      -2.848   7.367 -13.760  0.00  0.00    +0.000 HD
ENDBRANCH  25  26
ENDBRANCH  24  25
ENDBRANCH  20  24
ENDBRANCH  17  20
ENDBRANCH   1  17
TORSDOF 9
ENDMDL
MODEL 4
REMARK VINA RESULT:    -4.449      1.527      2.689
REMARK INTER + INTRA:          -6.813
REMARK INTER:                  -6.452
REMARK INTRA:                  -0.362
REMARK UNBOUND:                -0.284
REMARK  Name = 8091
REMARK  9 active torsions:
REMARK  status: ('A' for Active; 'I' for Inactive)
REMARK    1  A    between atoms: O_1  and  C_10
REMARK    2  A    between atoms: O_1  and  C_11
REMARK    3  A    between atoms: C_3  and  C_4
REMARK    4  A    between atoms: C_3  and  C_5
REMARK    5  A    between atoms: C_4  and  C_6
REMARK    6  A    between atoms: C_5  and  C_7
REMARK    7  A    between atoms: C_6  and  C_8
REMARK    8  A    between atoms: C_7  and  C_9
REMARK    9  A    between atoms: C_8  and  C_10
REMARK                            x       y       z     vdW  Elec       q    Type
REMARK                         _______ _______ _______ _____ _____    ______ ____
ROOT
ATOM      1  C   UNL     1       7.057   8.608   1.993  0.00  0.00    +0.000 C 
ATOM      2  H   UNL     1       7.634   7.791   2.442  0.00  0.00    +0.000 HD
ATOM      3  H   UNL     1       7.310   9.524   2.543  0.00  0.00    +0.000 HD
ENDROOT
BRANCH   1   4
ATOM      4  C   UNL     1       7.447   8.769   0.522  0.00  0.00    +0.000 C 
ATOM      5  H   UNL     1       7.895   7.837   0.156  0.00  0.00    +0.000 HD
ATOM      6  H   UNL     1       6.546   8.953  -0.076  0.00  0.00    +0.000 HD
BRANCH   4   7
ATOM      7  C   UNL     1       8.432   9.924   0.331  0.00  0.00    +0.000 C 
ATOM      8  H   UNL     1       9.370   9.698   0.851  0.00  0.00    +0.000 HD
ATOM      9  H   UNL     1       8.022  10.834   0.784  0.00  0.00    +0.000 HD
BRANCH   7  10
ATOM     10  C   UNL     1       8.714  10.174  -1.150  0.00  0.00    +0.000 C 
ATOM     11  H   UNL     1       9.794  10.139  -1.336  0.00  0.00    +0.000 HD
ATOM     12  H   UNL     1       8.370  11.177  -1.430  0.00  0.00    +0.000 HD
BRANCH  10  13
ATOM     13  C   UNL     1       8.024   9.145  -2.031  0.00  0.00    +0.000 C 
ATOM     14  H   UNL     1       8.005   9.471  -3.076  0.00  0.00    +0.000 HD
ATOM     15  H   UNL     1       6.992   8.979  -1.704  0.00  0.00    +0.000 HD
ATOM     16  H   UNL     1       8.553   8.188  -1.982  0.00  0.00    +0.000 HD
ENDBRANCH  10  13
ENDBRANCH   7  10
ENDBRANCH   4   7
ENDBRANCH   1   4
BRANCH   1  17
ATOM     17  C   UNL     1       5.559   8.324   2.143  0.00  0.00    +0.000 C 
ATOM     18  H   UNL     1       5.371   7.251   2.011  0.00  0.00    +0.000 HD
ATOM     19  H   UNL     1       5.244   8.571   3.165  0.00  0.00    +0.000 HD
BRANCH  17  20
ATOM     20  C   UNL     1       4.712   9.111   1.144  0.00  0.00    +0.000 C 
ATOM     21  H   UNL     1       5.345   9.841   0.628  0.00  0.00    +0.000 HD
ATOM     22  H   UNL     1       4.290   8.423   0.402  0.00  0.00    +0.000 HD
BRANCH  20  24
ATOM     23  O   UNL     1       3.062   9.580   2.869  0.00  0.00    +0.000 OA
ATOM     24  C   UNL     1       3.570   9.863   1.792  0.00  0.00    +0.000 C 
BRANCH  24  25
ATOM     25  O   UNL     1       3.228  10.919   0.998  0.00  0.00    +0.000 OA
BRANCH  25  26
ATOM     26  C   UNL     1       4.318  11.579   0.346  0.00  0.00    +0.000 C 
ATOM     27  H   UNL     1       4.361  11.225  -0.688  0.00  0.00    +0.000 HD
ATOM     28  H   UNL     1       5.261  11.331   0.841  0.00  0.00    +0.000 HD
ATOM     29  H   UNL     1       4.156  12.661   0.340  0.00  0.00    +0.000 HD
ENDBRANCH  25  26
ENDBRANCH  24  25
ENDBRANCH  20  24
ENDBRANCH  17  20
ENDBRANCH   1  17
TORSDOF 9
ENDMDL
MODEL 5
REMARK VINA RESULT:    -4.384     12.994     14.422
REMARK INTER + INTRA:          -6.719
REMARK INTER:                  -6.255
REMARK INTRA:                  -0.463
REMARK UNBOUND:                -0.284
REMARK  Name = 8091
REMARK  9 active torsions:
REMARK  status: ('A' for Active; 'I' for Inactive)
REMARK    1  A    between atoms: O_1  and  C_10
REMARK    2  A    between atoms: O_1  and  C_11
REMARK    3  A    between atoms: C_3  and  C_4
REMARK    4  A    between atoms: C_3  and  C_5
REMARK    5  A    between atoms: C_4  and  C_6
REMARK    6  A    between atoms: C_5  and  C_7
REMARK    7  A    between atoms: C_6  and  C_8
REMARK    8  A    between atoms: C_7  and  C_9
REMARK    9  A    between atoms: C_8  and  C_10
REMARK                            x       y       z     vdW  Elec       q    Type
REMARK                         _______ _______ _______ _____ _____    ______ ____
ROOT
ATOM      1  C   UNL     1      -3.706   6.863 -11.565  0.00  0.00    +0.000 C 
ATOM      2  H   UNL     1      -4.076   6.012 -12.149  0.00  0.00    +0.000 HD
ATOM      3  H   UNL     1      -4.038   7.776 -12.075  0.00  0.00    +0.000 HD
ENDROOT
BRANCH   1   4
ATOM      4  C   UNL     1      -4.299   6.817 -10.155  0.00  0.00    +0.000 C 
ATOM      5  H   UNL     1      -5.017   7.637 -10.030  0.00  0.00    +0.000 HD
ATOM      6  H   UNL     1      -4.853   5.879 -10.022  0.00  0.00    +0.000 HD
BRANCH   4   7
ATOM      7  C   UNL     1      -3.207   6.921  -9.089  0.00  0.00    +0.000 C 
ATOM      8  H   UNL     1      -2.222   6.900  -9.568  0.00  0.00    +0.000 HD
ATOM      9  H   UNL     1      -3.262   6.053  -8.421  0.00  0.00    +0.000 HD
BRANCH   7  10
ATOM     10  C   UNL     1      -3.352   8.204  -8.269  0.00  0.00    +0.000 C 
ATOM     11  H   UNL     1      -2.897   8.069  -7.281  0.00  0.00    +0.000 HD
ATOM     12  H   UNL     1      -4.414   8.425  -8.109  0.00  0.00    +0.000 HD
BRANCH  10  13
ATOM     13  C   UNL     1      -2.693   9.385  -8.962  0.00  0.00    +0.000 C 
ATOM     14  H   UNL     1      -1.647   9.169  -9.199  0.00  0.00    +0.000 HD
ATOM     15  H   UNL     1      -2.724  10.278  -8.328  0.00  0.00    +0.000 HD
ATOM     16  H   UNL     1      -3.214   9.615  -9.897  0.00  0.00    +0.000 HD
ENDBRANCH  10  13
ENDBRANCH   7  10
ENDBRANCH   4   7
ENDBRANCH   1   4
BRANCH   1  17
ATOM     17  C   UNL     1      -2.175   6.832 -11.524  0.00  0.00    +0.000 C 
ATOM     18  H   UNL     1      -1.804   7.663 -10.910  0.00  0.00    +0.000 HD
ATOM     19  H   UNL     1      -1.844   5.910 -11.031  0.00  0.00    +0.000 HD
BRANCH  17  20
ATOM     20  C   UNL     1      -1.552   6.917 -12.917  0.00  0.00    +0.000 C 
ATOM     21  H   UNL     1      -0.866   6.075 -13.060  0.00  0.00    +0.000 HD
ATOM     22  H   UNL     1      -2.342   6.862 -13.674  0.00  0.00    +0.000 HD
BRANCH  20  24
ATOM     23  O   UNL     1      -0.349   8.577 -14.227  0.00  0.00    +0.000 OA
ATOM     24  C   UNL     1      -0.772   8.194 -13.145  0.00  0.00    +0.000 C 
BRANCH  24  25
ATOM     25  O   UNL     1      -0.648   8.855 -11.957  0.00  0.00    +0.000 OA
BRANCH  25  26
ATOM     26  C   UNL     1      -0.778  10.279 -12.028  0.00  0.00    +0.000 C 
ATOM     27  H   UNL     1       0.089  10.674 -12.566  0.00  0.00    +0.000 HD
ATOM     28  H   UNL     1      -0.793  10.709 -11.022  0.00  0.00    +0.000 HD
ATOM     29  H   UNL     1      -1.684  10.549 -12.578  0.00  0.00    +0.000 HD
ENDBRANCH  25  26
ENDBRANCH  24  25
ENDBRANCH  20  24
ENDBRANCH  17  20
ENDBRANCH   1  17
TORSDOF 9
ENDMDL
MODEL 6
REMARK VINA RESULT:    -4.285     28.496     29.883
REMARK INTER + INTRA:          -6.573
REMARK INTER:                  -6.049
REMARK INTRA:                  -0.524
REMARK UNBOUND:                -0.284
REMARK  Name = 8091
REMARK  9 active torsions:
REMARK  status: ('A' for Active; 'I' for Inactive)
REMARK    1  A    between atoms: O_1  and  C_10
REMARK    2  A    between atoms: O_1  and  C_11
REMARK    3  A    between atoms: C_3  and  C_4
REMARK    4  A    between atoms: C_3  and  C_5
REMARK    5  A    between atoms: C_4  and  C_6
REMARK    6  A    between atoms: C_5  and  C_7
REMARK    7  A    between atoms: C_6  and  C_8
REMARK    8  A    between atoms: C_7  and  C_9
REMARK    9  A    between atoms: C_8  and  C_10
REMARK                            x       y       z     vdW  Elec       q    Type
REMARK                         _______ _______ _______ _____ _____    ______ ____
ROOT
ATOM      1  C   UNL     1     -22.215  -3.321   5.878  0.00  0.00    +0.000 C 
ATOM      2  H   UNL     1     -22.952  -3.933   6.412  0.00  0.00    +0.000 HD
ATOM      3  H   UNL     1     -22.751  -2.461   5.458  0.00  0.00    +0.000 HD
ENDROOT
BRANCH   1   4
ATOM      4  C   UNL     1     -21.146  -2.832   6.858  0.00  0.00    +0.000 C 
ATOM      5  H   UNL     1     -21.192  -3.423   7.780  0.00  0.00    +0.000 HD
ATOM      6  H   UNL     1     -20.151  -2.988   6.421  0.00  0.00    +0.000 HD
BRANCH   4   7
ATOM      7  C   UNL     1     -21.331  -1.349   7.188  0.00  0.00    +0.000 C 
ATOM      8  H   UNL     1     -21.402  -1.220   8.274  0.00  0.00    +0.000 HD
ATOM      9  H   UNL     1     -22.275  -0.993   6.758  0.00  0.00    +0.000 HD
BRANCH   7  10
ATOM     10  C   UNL     1     -20.175  -0.510   6.645  0.00  0.00    +0.000 C 
ATOM     11  H   UNL     1     -19.239  -1.079   6.706  0.00  0.00    +0.000 HD
ATOM     12  H   UNL     1     -20.047   0.390   7.259  0.00  0.00    +0.000 HD
BRANCH  10  13
ATOM     13  C   UNL     1     -20.413  -0.101   5.201  0.00  0.00    +0.000 C 
ATOM     14  H   UNL     1     -20.200  -0.929   4.517  0.00  0.00    +0.000 HD
ATOM     15  H   UNL     1     -19.776   0.746   4.923  0.00  0.00    +0.000 HD
ATOM     16  H   UNL     1     -21.456   0.199   5.058  0.00  0.00    +0.000 HD
ENDBRANCH  10  13
ENDBRANCH   7  10
ENDBRANCH   4   7
ENDBRANCH   1   4
BRANCH   1  17
ATOM     17  C   UNL     1     -21.594  -4.138   4.740  0.00  0.00    +0.000 C 
ATOM     18  H   UNL     1     -21.799  -5.204   4.895  0.00  0.00    +0.000 HD
ATOM     19  H   UNL     1     -22.074  -3.862   3.793  0.00  0.00    +0.000 HD
BRANCH  17  20
ATOM     20  C   UNL     1     -20.085  -3.926   4.627  0.00  0.00    +0.000 C 
ATOM     21  H   UNL     1     -19.873  -3.275   3.771  0.00  0.00    +0.000 HD
ATOM     22  H   UNL     1     -19.714  -3.443   5.538  0.00  0.00    +0.000 HD
BRANCH  20  24
ATOM     23  O   UNL     1     -18.438  -5.630   5.177  0.00  0.00    +0.000 OA
ATOM     24  C   UNL     1     -19.315  -5.214   4.431  0.00  0.00    +0.000 C 
BRANCH  24  25
ATOM     25  O   UNL     1     -19.781  -5.844   3.314  0.00  0.00    +0.000 OA
BRANCH  25  26
ATOM     26  C   UNL     1     -19.068  -5.560   2.104  0.00  0.00    +0.000 C 
ATOM     27  H   UNL     1     -18.347  -4.765   2.313  0.00  0.00    +0.000 HD
ATOM     28  H   UNL     1     -19.759  -5.213   1.331  0.00  0.00    +0.000 HD
ATOM     29  H   UNL     1     -18.525  -6.448   1.768  0.00  0.00    +0.000 HD
ENDBRANCH  25  26
ENDBRANCH  24  25
ENDBRANCH  20  24
ENDBRANCH  17  20
ENDBRANCH   1  17
TORSDOF 9
ENDMDL
MODEL 7
REMARK VINA RESULT:    -4.263     28.835     30.188
REMARK INTER + INTRA:          -6.540
REMARK INTER:                  -6.031
REMARK INTRA:                  -0.509
REMARK UNBOUND:                -0.284
REMARK  Name = 8091
REMARK  9 active torsions:
REMARK  status: ('A' for Active; 'I' for Inactive)
REMARK    1  A    between atoms: O_1  and  C_10
REMARK    2  A    between atoms: O_1  and  C_11
REMARK    3  A    between atoms: C_3  and  C_4
REMARK    4  A    between atoms: C_3  and  C_5
REMARK    5  A    between atoms: C_4  and  C_6
REMARK    6  A    between atoms: C_5  and  C_7
REMARK    7  A    between atoms: C_6  and  C_8
REMARK    8  A    between atoms: C_7  and  C_9
REMARK    9  A    between atoms: C_8  and  C_10
REMARK                            x       y       z     vdW  Elec       q    Type
REMARK                         _______ _______ _______ _____ _____    ______ ____
ROOT
ATOM      1  C   UNL     1     -20.592  -0.681   5.778  0.00  0.00    +0.000 C 
ATOM      2  H   UNL     1     -21.416   0.040   5.717  0.00  0.00    +0.000 HD
ATOM      3  H   UNL     1     -19.696  -0.183   5.388  0.00  0.00    +0.000 HD
ENDROOT
BRANCH   1   4
ATOM      4  C   UNL     1     -20.364  -1.081   7.237  0.00  0.00    +0.000 C 
ATOM      5  H   UNL     1     -20.369  -2.174   7.326  0.00  0.00    +0.000 HD
ATOM      6  H   UNL     1     -19.374  -0.735   7.561  0.00  0.00    +0.000 HD
BRANCH   4   7
ATOM      7  C   UNL     1     -21.436  -0.486   8.151  0.00  0.00    +0.000 C 
ATOM      8  H   UNL     1     -21.935   0.346   7.640  0.00  0.00    +0.000 HD
ATOM      9  H   UNL     1     -20.965  -0.076   9.052  0.00  0.00    +0.000 HD
BRANCH   7  10
ATOM     10  C   UNL     1     -22.471  -1.537   8.552  0.00  0.00    +0.000 C 
ATOM     11  H   UNL     1     -22.682  -1.464   9.625  0.00  0.00    +0.000 HD
ATOM     12  H   UNL     1     -22.071  -2.542   8.369  0.00  0.00    +0.000 HD
BRANCH  10  13
ATOM     13  C   UNL     1     -23.768  -1.367   7.777  0.00  0.00    +0.000 C 
ATOM     14  H   UNL     1     -23.910  -0.325   7.473  0.00  0.00    +0.000 HD
ATOM     15  H   UNL     1     -24.629  -1.667   8.384  0.00  0.00    +0.000 HD
ATOM     16  H   UNL     1     -23.756  -1.986   6.875  0.00  0.00    +0.000 HD
ENDBRANCH  10  13
ENDBRANCH   7  10
ENDBRANCH   4   7
ENDBRANCH   1   4
BRANCH   1  17
ATOM     17  C   UNL     1     -20.912  -1.903   4.911  0.00  0.00    +0.000 C 
ATOM     18  H   UNL     1     -21.948  -1.843   4.554  0.00  0.00    +0.000 HD
ATOM     19  H   UNL     1     -20.274  -1.891   4.018  0.00  0.00    +0.000 HD
BRANCH  17  20
ATOM     20  C   UNL     1     -20.713  -3.220   5.661  0.00  0.00    +0.000 C 
ATOM     21  H   UNL     1     -19.803  -3.158   6.268  0.00  0.00    +0.000 HD
ATOM     22  H   UNL     1     -21.568  -3.395   6.324  0.00  0.00    +0.000 HD
BRANCH  20  24
ATOM     23  O   UNL     1     -21.459  -4.843   4.009  0.00  0.00    +0.000 OA
ATOM     24  C   UNL     1     -20.577  -4.415   4.743  0.00  0.00    +0.000 C 
BRANCH  24  25
ATOM     25  O   UNL     1     -19.310  -4.911   4.845  0.00  0.00    +0.000 OA
BRANCH  25  26
ATOM     26  C   UNL     1     -18.646  -5.166   3.603  0.00  0.00    +0.000 C 
ATOM     27  H   UNL     1     -18.337  -4.207   3.179  0.00  0.00    +0.000 HD
ATOM     28  H   UNL     1     -19.329  -5.655   2.902  0.00  0.00    +0.000 HD
ATOM     29  H   UNL     1     -17.756  -5.780   3.769  0.00  0.00    +0.000 HD
ENDBRANCH  25  26
ENDBRANCH  24  25
ENDBRANCH  20  24
ENDBRANCH  17  20
ENDBRANCH   1  17
TORSDOF 9
ENDMDL
MODEL 8
REMARK VINA RESULT:    -4.253      2.436      4.728
REMARK INTER + INTRA:          -6.525
REMARK INTER:                  -5.963
REMARK INTRA:                  -0.562
REMARK UNBOUND:                -0.284
REMARK  Name = 8091
REMARK  9 active torsions:
REMARK  status: ('A' for Active; 'I' for Inactive)
REMARK    1  A    between atoms: O_1  and  C_10
REMARK    2  A    between atoms: O_1  and  C_11
REMARK    3  A    between atoms: C_3  and  C_4
REMARK    4  A    between atoms: C_3  and  C_5
REMARK    5  A    between atoms: C_4  and  C_6
REMARK    6  A    between atoms: C_5  and  C_7
REMARK    7  A    between atoms: C_6  and  C_8
REMARK    8  A    between atoms: C_7  and  C_9
REMARK    9  A    between atoms: C_8  and  C_10
REMARK                            x       y       z     vdW  Elec       q    Type
REMARK                         _______ _______ _______ _____ _____    ______ ____
ROOT
ATOM      1  C   UNL     1       5.103   8.392   0.485  0.00  0.00    +0.000 C 
ATOM      2  H   UNL     1       4.935   7.311   0.556  0.00  0.00    +0.000 HD
ATOM      3  H   UNL     1       5.746   8.563  -0.388  0.00  0.00    +0.000 HD
ENDROOT
BRANCH   1   4
ATOM      4  C   UNL     1       3.766   9.110   0.287  0.00  0.00    +0.000 C 
ATOM      5  H   UNL     1       3.619   9.327  -0.778  0.00  0.00    +0.000 HD
ATOM      6  H   UNL     1       2.948   8.450   0.599  0.00  0.00    +0.000 HD
BRANCH   4   7
ATOM      7  C   UNL     1       3.709  10.410   1.091  0.00  0.00    +0.000 C 
ATOM      8  H   UNL     1       4.554  10.450   1.788  0.00  0.00    +0.000 HD
ATOM      9  H   UNL     1       2.792  10.430   1.692  0.00  0.00    +0.000 HD
BRANCH   7  10
ATOM     10  C   UNL     1       3.743  11.632   0.173  0.00  0.00    +0.000 C 
ATOM     11  H   UNL     1       4.741  12.086   0.191  0.00  0.00    +0.000 HD
ATOM     12  H   UNL     1       3.037  12.390   0.536  0.00  0.00    +0.000 HD
BRANCH  10  13
ATOM     13  C   UNL     1       3.390  11.264  -1.259  0.00  0.00    +0.000 C 
ATOM     14  H   UNL     1       2.473  10.667  -1.296  0.00  0.00    +0.000 HD
ATOM     15  H   UNL     1       4.195  10.686  -1.725  0.00  0.00    +0.000 HD
ATOM     16  H   UNL     1       3.232  12.168  -1.855  0.00  0.00    +0.000 HD
ENDBRANCH  10  13
ENDBRANCH   7  10
ENDBRANCH   4   7
ENDBRANCH   1   4
BRANCH   1  17
ATOM     17  C   UNL     1       5.818   8.887   1.747  0.00  0.00    +0.000 C 
ATOM     18  H   UNL     1       5.367   9.830   2.082  0.00  0.00    +0.000 HD
ATOM     19  H   UNL     1       5.664   8.163   2.557  0.00  0.00    +0.000 HD
BRANCH  17  20
ATOM     20  C   UNL     1       7.316   9.094   1.527  0.00  0.00    +0.000 C 
ATOM     21  H   UNL     1       7.730   9.666   2.364  0.00  0.00    +0.000 HD
ATOM     22  H   UNL     1       7.816   8.120   1.483  0.00  0.00    +0.000 HD
BRANCH  20  24
ATOM     23  O   UNL     1       7.230  10.965  -0.026  0.00  0.00    +0.000 OA
ATOM     24  C   UNL     1       7.633   9.843   0.251  0.00  0.00    +0.000 C 
BRANCH  24  25
ATOM     25  O   UNL     1       8.462   9.078  -0.517  0.00  0.00    +0.000 OA
BRANCH  25  26
ATOM     26  C   UNL     1       8.104   8.978  -1.900  0.00  0.00    +0.000 C 
ATOM     27  H   UNL     1       8.905   8.446  -2.421  0.00  0.00    +0.000 HD
ATOM     28  H   UNL     1       8.004   9.976  -2.338  0.00  0.00    +0.000 HD
ATOM     29  H   UNL     1       7.175   8.412  -2.011  0.00  0.00    +0.000 HD
ENDBRANCH  25  26
ENDBRANCH  24  25
ENDBRANCH  20  24
ENDBRANCH  17  20
ENDBRANCH   1  17
TORSDOF 9
ENDMDL
MODEL 9
REMARK VINA RESULT:    -4.097     14.554     16.623
REMARK INTER + INTRA:          -6.296
REMARK INTER:                  -6.013
REMARK INTRA:                  -0.284
REMARK UNBOUND:                -0.284
REMARK  Name = 8091
REMARK  9 active torsions:
REMARK  status: ('A' for Active; 'I' for Inactive)
REMARK    1  A    between atoms: O_1  and  C_10
REMARK    2  A    between atoms: O_1  and  C_11
REMARK    3  A    between atoms: C_3  and  C_4
REMARK    4  A    between atoms: C_3  and  C_5
REMARK    5  A    between atoms: C_4  and  C_6
REMARK    6  A    between atoms: C_5  and  C_7
REMARK    7  A    between atoms: C_6  and  C_8
REMARK    8  A    between atoms: C_7  and  C_9
REMARK    9  A    between atoms: C_8  and  C_10
REMARK                            x       y       z     vdW  Elec       q    Type
REMARK                         _______ _______ _______ _____ _____    ______ ____
ROOT
ATOM      1  C   UNL     1      -8.937   9.391   7.469  0.00  0.00    +0.000 C 
ATOM      2  H   UNL     1      -9.962   9.465   7.853  0.00  0.00    +0.000 HD
ATOM      3  H   UNL     1      -8.974   8.769   6.566  0.00  0.00    +0.000 HD
ENDROOT
BRANCH   1   4
ATOM      4  C   UNL     1      -8.418  10.785   7.112  0.00  0.00    +0.000 C 
ATOM      5  H   UNL     1      -8.790  11.516   7.840  0.00  0.00    +0.000 HD
ATOM      6  H   UNL     1      -7.323  10.794   7.173  0.00  0.00    +0.000 HD
BRANCH   4   7
ATOM      7  C   UNL     1      -8.853  11.196   5.704  0.00  0.00    +0.000 C 
ATOM      8  H   UNL     1      -9.368  12.163   5.744  0.00  0.00    +0.000 HD
ATOM      9  H   UNL     1      -9.570  10.464   5.313  0.00  0.00    +0.000 HD
BRANCH   7  10
ATOM     10  C   UNL     1      -7.656  11.291   4.758  0.00  0.00    +0.000 C 
ATOM     11  H   UNL     1      -7.993  11.207   3.718  0.00  0.00    +0.000 HD
ATOM     12  H   UNL     1      -6.967  10.458   4.943  0.00  0.00    +0.000 HD
BRANCH  10  13
ATOM     13  C   UNL     1      -6.910  12.604   4.933  0.00  0.00    +0.000 C 
ATOM     14  H   UNL     1      -7.522  13.451   4.604  0.00  0.00    +0.000 HD
ATOM     15  H   UNL     1      -5.980  12.607   4.354  0.00  0.00    +0.000 HD
ATOM     16  H   UNL     1      -6.655  12.758   5.986  0.00  0.00    +0.000 HD
ENDBRANCH  10  13
ENDBRANCH   7  10
ENDBRANCH   4   7
ENDBRANCH   1   4
BRANCH   1  17
ATOM     17  C   UNL     1      -8.043   8.717   8.515  0.00  0.00    +0.000 C 
ATOM     18  H   UNL     1      -8.541   7.820   8.904  0.00  0.00    +0.000 HD
ATOM     19  H   UNL     1      -7.118   8.375   8.034  0.00  0.00    +0.000 HD
BRANCH  17  20
ATOM     20  C   UNL     1      -7.699   9.648   9.677  0.00  0.00    +0.000 C 
ATOM     21  H   UNL     1      -6.727   9.364  10.094  0.00  0.00    +0.000 HD
ATOM     22  H   UNL     1      -7.640  10.680   9.312  0.00  0.00    +0.000 HD
BRANCH  20  24
ATOM     23  O   UNL     1      -9.058  10.563  11.476  0.00  0.00    +0.000 OA
ATOM     24  C   UNL     1      -8.715   9.603  10.797  0.00  0.00    +0.000 C 
BRANCH  24  25
ATOM     25  O   UNL     1      -9.204   8.334  10.902  0.00  0.00    +0.000 OA
BRANCH  25  26
ATOM     26  C   UNL     1     -10.227   8.146  11.887  0.00  0.00    +0.000 C 
ATOM     27  H   UNL     1     -11.141   8.624  11.522  0.00  0.00    +0.000 HD
ATOM     28  H   UNL     1      -9.936   8.619  12.829  0.00  0.00    +0.000 HD
ATOM     29  H   UNL     1     -10.422   7.080  12.032  0.00  0.00    +0.000 HD
ENDBRANCH  25  26
ENDBRANCH  24  25
ENDBRANCH  20  24
ENDBRANCH  17  20
ENDBRANCH   1  17
TORSDOF 9
ENDMDL
MODEL 10
REMARK VINA RESULT:    -4.092      4.939      6.753
REMARK INTER + INTRA:          -6.289
REMARK INTER:                  -6.029
REMARK INTRA:                  -0.260
REMARK UNBOUND:                -0.284
REMARK  Name = 8091
REMARK  9 active torsions:
REMARK  status: ('A' for Active; 'I' for Inactive)
REMARK    1  A    between atoms: O_1  and  C_10
REMARK    2  A    between atoms: O_1  and  C_11
REMARK    3  A    between atoms: C_3  and  C_4
REMARK    4  A    between atoms: C_3  and  C_5
REMARK    5  A    between atoms: C_4  and  C_6
REMARK    6  A    between atoms: C_5  and  C_7
REMARK    7  A    between atoms: C_6  and  C_8
REMARK    8  A    between atoms: C_7  and  C_9
REMARK    9  A    between atoms: C_8  and  C_10
REMARK                            x       y       z     vdW  Elec       q    Type
REMARK                         _______ _______ _______ _____ _____    ______ ____
ROOT
ATOM      1  C   UNL     1       6.101   7.113   4.727  0.00  0.00    +0.000 C 
ATOM      2  H   UNL     1       5.787   6.473   5.559  0.00  0.00    +0.000 HD
ATOM      3  H   UNL     1       7.058   6.720   4.359  0.00  0.00    +0.000 HD
ENDROOT
BRANCH   1   4
ATOM      4  C   UNL     1       5.058   7.055   3.609  0.00  0.00    +0.000 C 
ATOM      5  H   UNL     1       5.466   6.506   2.751  0.00  0.00    +0.000 HD
ATOM      6  H   UNL     1       4.178   6.502   3.958  0.00  0.00    +0.000 HD
BRANCH   4   7
ATOM      7  C   UNL     1       4.638   8.458   3.168  0.00  0.00    +0.000 C 
ATOM      8  H   UNL     1       5.496   8.979   2.728  0.00  0.00    +0.000 HD
ATOM      9  H   UNL     1       4.321   9.038   4.043  0.00  0.00    +0.000 HD
BRANCH   7  10
ATOM     10  C   UNL     1       3.496   8.403   2.152  0.00  0.00    +0.000 C 
ATOM     11  H   UNL     1       2.573   8.781   2.607  0.00  0.00    +0.000 HD
ATOM     12  H   UNL     1       3.309   7.362   1.859  0.00  0.00    +0.000 HD
BRANCH  10  13
ATOM     13  C   UNL     1       3.812   9.223   0.912  0.00  0.00    +0.000 C 
ATOM     14  H   UNL     1       4.679   8.815   0.383  0.00  0.00    +0.000 HD
ATOM     15  H   UNL     1       4.028  10.264   1.176  0.00  0.00    +0.000 HD
ATOM     16  H   UNL     1       2.960   9.216   0.226  0.00  0.00    +0.000 HD
ENDBRANCH  10  13
ENDBRANCH   7  10
ENDBRANCH   4   7
ENDBRANCH   1   4
BRANCH   1  17
ATOM     17  C   UNL     1       6.300   8.548   5.227  0.00  0.00    +0.000 C 
ATOM     18  H   UNL     1       5.731   9.242   4.596  0.00  0.00    +0.000 HD
ATOM     19  H   UNL     1       5.887   8.638   6.240  0.00  0.00    +0.000 HD
BRANCH  17  20
ATOM     20  C   UNL     1       7.770   8.964   5.236  0.00  0.00    +0.000 C 
ATOM     21  H   UNL     1       8.396   8.092   5.016  0.00  0.00    +0.000 HD
ATOM     22  H   UNL     1       7.939   9.724   4.464  0.00  0.00    +0.000 HD
BRANCH  20  24
ATOM     23  O   UNL     1       8.767   8.899   7.455  0.00  0.00    +0.000 OA
ATOM     24  C   UNL     1       8.220   9.535   6.564  0.00  0.00    +0.000 C 
BRANCH  24  25
ATOM     25  O   UNL     1       7.945  10.872   6.587  0.00  0.00    +0.000 OA
BRANCH  25  26
ATOM     26  C   UNL     1       7.677  11.423   7.881  0.00  0.00    +0.000 C 
ATOM     27  H   UNL     1       7.588  10.596   8.591  0.00  0.00    +0.000 HD
ATOM     28  H   UNL     1       6.734  11.977   7.868  0.00  0.00    +0.000 HD
ATOM     29  H   UNL     1       8.502  12.069   8.196  0.00  0.00    +0.000 HD
ENDBRANCH  25  26
ENDBRANCH  24  25
ENDBRANCH  20  24
ENDBRANCH  17  20
ENDBRANCH   1  17
TORSDOF 9
ENDMDL
