MODEL 1
REMARK VINA RESULT:    -4.906      0.000      0.000
REMARK INTER + INTRA:          -7.480
REMARK INTER:                  -6.873
REMARK INTRA:                  -0.607
REMARK UNBOUND:                -0.280
REMARK  Name = 8158
REMARK  9 active torsions:
REMARK  status: ('A' for Active; 'I' for Inactive)
REMARK    1  A    between atoms: O_1  and  C_11
REMARK    2  A    between atoms: C_3  and  C_4
REMARK    3  A    between atoms: C_3  and  C_5
REMARK    4  A    between atoms: C_4  and  C_6
REMARK    5  A    between atoms: C_5  and  C_7
REMARK    6  A    between atoms: C_6  and  C_8
REMARK    7  A    between atoms: C_7  and  C_9
REMARK    8  A    between atoms: C_8  and  C_10
REMARK    9  A    between atoms: C_9  and  C_11
REMARK                            x       y       z     vdW  Elec       q    Type
REMARK                         _______ _______ _______ _____ _____    ______ ____
ROOT
ATOM      1  C   UNL     1       7.480  10.482  -1.085  0.00  0.00    +0.000 C 
ATOM      2  H   UNL     1       8.273  11.168  -1.407  0.00  0.00    +0.000 HD
ATOM      3  H   UNL     1       7.036  10.062  -1.996  0.00  0.00    +0.000 HD
ENDROOT
BRANCH   1   4
ATOM      4  C   UNL     1       8.100   9.348  -0.261  0.00  0.00    +0.000 C 
ATOM      5  H   UNL     1       7.770   8.385  -0.671  0.00  0.00    +0.000 HD
ATOM      6  H   UNL     1       9.192   9.380  -0.371  0.00  0.00    +0.000 HD
BRANCH   4   7
ATOM      7  C   UNL     1       7.745   9.412   1.226  0.00  0.00    +0.000 C 
ATOM      8  H   UNL     1       8.668   9.464   1.817  0.00  0.00    +0.000 HD
ATOM      9  H   UNL     1       7.191  10.337   1.424  0.00  0.00    +0.000 HD
BRANCH   7  10
ATOM     10  C   UNL     1       6.913   8.217   1.700  0.00  0.00    +0.000 C 
ATOM     11  H   UNL     1       7.400   7.287   1.383  0.00  0.00    +0.000 HD
ATOM     12  H   UNL     1       5.931   8.243   1.214  0.00  0.00    +0.000 HD
BRANCH  10  13
ATOM     13  C   UNL     1       6.711   8.175   3.208  0.00  0.00    +0.000 C 
ATOM     14  H   UNL     1       6.717   9.184   3.630  0.00  0.00    +0.000 HD
ATOM     15  H   UNL     1       7.512   7.600   3.683  0.00  0.00    +0.000 HD
ATOM     16  H   UNL     1       5.757   7.703   3.460  0.00  0.00    +0.000 HD
ENDBRANCH  10  13
ENDBRANCH   7  10
ENDBRANCH   4   7
ENDBRANCH   1   4
BRANCH   1  17
ATOM     17  C   UNL     1       6.410  11.272  -0.326  0.00  0.00    +0.000 C 
ATOM     18  H   UNL     1       6.481  11.043   0.744  0.00  0.00    +0.000 HD
ATOM     19  H   UNL     1       6.611  12.345  -0.434  0.00  0.00    +0.000 HD
BRANCH  17  20
ATOM     20  C   UNL     1       4.982  10.981  -0.805  0.00  0.00    +0.000 C 
ATOM     21  H   UNL     1       5.016  10.688  -1.863  0.00  0.00    +0.000 HD
ATOM     22  H   UNL     1       4.405  11.915  -0.769  0.00  0.00    +0.000 HD
BRANCH  20  23
ATOM     23  C   UNL     1       4.238   9.908  -0.015  0.00  0.00    +0.000 C 
ATOM     24  H   UNL     1       4.945   9.144   0.323  0.00  0.00    +0.000 HD
ATOM     25  H   UNL     1       3.486   9.437  -0.656  0.00  0.00    +0.000 HD
BRANCH  23  27
ATOM     26  O   UNL     1       3.291   9.810   2.205  0.00  0.00    +0.000 OA
ATOM     27  C   UNL     1       3.539  10.464   1.200  0.00  0.00    +0.000 C 
BRANCH  27  28
ATOM     28  O   UNL     1       3.206  11.772   1.059  0.00  0.00    +0.000 OA
ATOM     29  H   UNL     1       3.942  12.298   0.679  0.00  0.00    +0.000 HD
ENDBRANCH  27  28
ENDBRANCH  23  27
ENDBRANCH  20  23
ENDBRANCH  17  20
ENDBRANCH   1  17
TORSDOF 9
ENDMDL
MODEL 2
REMARK VINA RESULT:    -4.820      3.230      4.985
REMARK INTER + INTRA:          -7.355
REMARK INTER:                  -6.776
REMARK INTRA:                  -0.578
REMARK UNBOUND:                -0.280
REMARK  Name = 8158
REMARK  9 active torsions:
REMARK  status: ('A' for Active; 'I' for Inactive)
REMARK    1  A    between atoms: O_1  and  C_11
REMARK    2  A    between atoms: C_3  and  C_4
REMARK    3  A    between atoms: C_3  and  C_5
REMARK    4  A    between atoms: C_4  and  C_6
REMARK    5  A    between atoms: C_5  and  C_7
REMARK    6  A    between atoms: C_6  and  C_8
REMARK    7  A    between atoms: C_7  and  C_9
REMARK    8  A    between atoms: C_8  and  C_10
REMARK    9  A    between atoms: C_9  and  C_11
REMARK                            x       y       z     vdW  Elec       q    Type
REMARK                         _______ _______ _______ _____ _____    ______ ____
ROOT
ATOM      1  C   UNL     1       6.371   8.351   1.352  0.00  0.00    +0.000 C 
ATOM      2  H   UNL     1       5.854   8.422   2.317  0.00  0.00    +0.000 HD
ATOM      3  H   UNL     1       6.640   7.297   1.214  0.00  0.00    +0.000 HD
ENDROOT
BRANCH   1   4
ATOM      4  C   UNL     1       5.410   8.774   0.235  0.00  0.00    +0.000 C 
ATOM      5  H   UNL     1       5.875   9.575  -0.353  0.00  0.00    +0.000 HD
ATOM      6  H   UNL     1       5.258   7.928  -0.448  0.00  0.00    +0.000 HD
BRANCH   4   7
ATOM      7  C   UNL     1       4.050   9.251   0.751  0.00  0.00    +0.000 C 
ATOM      8  H   UNL     1       3.254   8.710   0.225  0.00  0.00    +0.000 HD
ATOM      9  H   UNL     1       3.959   8.996   1.813  0.00  0.00    +0.000 HD
BRANCH   7  10
ATOM     10  C   UNL     1       3.833  10.757   0.576  0.00  0.00    +0.000 C 
ATOM     11  H   UNL     1       4.697  11.298   0.981  0.00  0.00    +0.000 HD
ATOM     12  H   UNL     1       2.961  11.068   1.162  0.00  0.00    +0.000 HD
BRANCH  10  13
ATOM     13  C   UNL     1       3.625  11.179  -0.871  0.00  0.00    +0.000 C 
ATOM     14  H   UNL     1       2.909  10.519  -1.370  0.00  0.00    +0.000 HD
ATOM     15  H   UNL     1       4.571  11.135  -1.420  0.00  0.00    +0.000 HD
ATOM     16  H   UNL     1       3.245  12.203  -0.928  0.00  0.00    +0.000 HD
ENDBRANCH  10  13
ENDBRANCH   7  10
ENDBRANCH   4   7
ENDBRANCH   1   4
BRANCH   1  17
ATOM     17  C   UNL     1       7.651   9.190   1.404  0.00  0.00    +0.000 C 
ATOM     18  H   UNL     1       7.698   9.722   2.363  0.00  0.00    +0.000 HD
ATOM     19  H   UNL     1       8.520   8.523   1.370  0.00  0.00    +0.000 HD
BRANCH  17  20
ATOM     20  C   UNL     1       7.760  10.210   0.263  0.00  0.00    +0.000 C 
ATOM     21  H   UNL     1       7.763  11.222   0.692  0.00  0.00    +0.000 HD
ATOM     22  H   UNL     1       6.852  10.146  -0.350  0.00  0.00    +0.000 HD
BRANCH  20  23
ATOM     23  C   UNL     1       8.981  10.048  -0.638  0.00  0.00    +0.000 C 
ATOM     24  H   UNL     1       9.861   9.822  -0.027  0.00  0.00    +0.000 HD
ATOM     25  H   UNL     1       9.158  10.980  -1.185  0.00  0.00    +0.000 HD
BRANCH  23  27
ATOM     26  O   UNL     1       7.853   8.830  -2.392  0.00  0.00    +0.000 OA
ATOM     27  C   UNL     1       8.815   8.937  -1.643  0.00  0.00    +0.000 C 
BRANCH  27  28
ATOM     28  O   UNL     1       9.849   8.058  -1.626  0.00  0.00    +0.000 OA
ATOM     29  H   UNL     1       9.543   7.136  -1.491  0.00  0.00    +0.000 HD
ENDBRANCH  27  28
ENDBRANCH  23  27
ENDBRANCH  20  23
ENDBRANCH  17  20
ENDBRANCH   1  17
TORSDOF 9
ENDMDL
MODEL 3
REMARK VINA RESULT:    -4.662     28.439     29.777
REMARK INTER + INTRA:          -7.122
REMARK INTER:                  -6.772
REMARK INTRA:                  -0.350
REMARK UNBOUND:                -0.280
REMARK  Name = 8158
REMARK  9 active torsions:
REMARK  status: ('A' for Active; 'I' for Inactive)
REMARK    1  A    between atoms: O_1  and  C_11
REMARK    2  A    between atoms: C_3  and  C_4
REMARK    3  A    between atoms: C_3  and  C_5
REMARK    4  A    between atoms: C_4  and  C_6
REMARK    5  A    between atoms: C_5  and  C_7
REMARK    6  A    between atoms: C_6  and  C_8
REMARK    7  A    between atoms: C_7  and  C_9
REMARK    8  A    between atoms: C_8  and  C_10
REMARK    9  A    between atoms: C_9  and  C_11
REMARK                            x       y       z     vdW  Elec       q    Type
REMARK                         _______ _______ _______ _____ _____    ______ ____
ROOT
ATOM      1  C   UNL     1     -20.732  -3.054   4.379  0.00  0.00    +0.000 C 
ATOM      2  H   UNL     1     -20.041  -2.897   3.541  0.00  0.00    +0.000 HD
ATOM      3  H   UNL     1     -21.696  -3.346   3.943  0.00  0.00    +0.000 HD
ENDROOT
BRANCH   1   4
ATOM      4  C   UNL     1     -20.210  -4.201   5.251  0.00  0.00    +0.000 C 
ATOM      5  H   UNL     1     -19.744  -3.781   6.153  0.00  0.00    +0.000 HD
ATOM      6  H   UNL     1     -21.058  -4.811   5.589  0.00  0.00    +0.000 HD
BRANCH   4   7
ATOM      7  C   UNL     1     -19.200  -5.100   4.535  0.00  0.00    +0.000 C 
ATOM      8  H   UNL     1     -18.201  -4.930   4.955  0.00  0.00    +0.000 HD
ATOM      9  H   UNL     1     -19.451  -6.150   4.731  0.00  0.00    +0.000 HD
BRANCH   7  10
ATOM     10  C   UNL     1     -19.154  -4.870   3.021  0.00  0.00    +0.000 C 
ATOM     11  H   UNL     1     -19.573  -3.882   2.792  0.00  0.00    +0.000 HD
ATOM     12  H   UNL     1     -19.790  -5.609   2.522  0.00  0.00    +0.000 HD
BRANCH  10  13
ATOM     13  C   UNL     1     -17.752  -4.957   2.435  0.00  0.00    +0.000 C 
ATOM     14  H   UNL     1     -17.778  -5.370   1.422  0.00  0.00    +0.000 HD
ATOM     15  H   UNL     1     -17.121  -5.603   3.053  0.00  0.00    +0.000 HD
ATOM     16  H   UNL     1     -17.286  -3.968   2.390  0.00  0.00    +0.000 HD
ENDBRANCH  10  13
ENDBRANCH   7  10
ENDBRANCH   4   7
ENDBRANCH   1   4
BRANCH   1  17
ATOM     17  C   UNL     1     -20.906  -1.738   5.142  0.00  0.00    +0.000 C 
ATOM     18  H   UNL     1     -20.342  -0.947   4.633  0.00  0.00    +0.000 HD
ATOM     19  H   UNL     1     -21.962  -1.443   5.114  0.00  0.00    +0.000 HD
BRANCH  17  20
ATOM     20  C   UNL     1     -20.449  -1.815   6.605  0.00  0.00    +0.000 C 
ATOM     21  H   UNL     1     -19.351  -1.857   6.630  0.00  0.00    +0.000 HD
ATOM     22  H   UNL     1     -20.797  -2.766   7.029  0.00  0.00    +0.000 HD
BRANCH  20  23
ATOM     23  C   UNL     1     -20.925  -0.670   7.494  0.00  0.00    +0.000 C 
ATOM     24  H   UNL     1     -21.374   0.113   6.876  0.00  0.00    +0.000 HD
ATOM     25  H   UNL     1     -20.071  -0.248   8.035  0.00  0.00    +0.000 HD
BRANCH  23  27
ATOM     26  O   UNL     1     -22.276  -2.277   8.687  0.00  0.00    +0.000 OA
ATOM     27  C   UNL     1     -21.952  -1.111   8.506  0.00  0.00    +0.000 C 
BRANCH  27  28
ATOM     28  O   UNL     1     -22.487  -0.071   9.194  0.00  0.00    +0.000 OA
ATOM     29  H   UNL     1     -23.467  -0.078   9.164  0.00  0.00    +0.000 HD
ENDBRANCH  27  28
ENDBRANCH  23  27
ENDBRANCH  20  23
ENDBRANCH  17  20
ENDBRANCH   1  17
TORSDOF 9
ENDMDL
MODEL 4
REMARK VINA RESULT:    -4.656     13.538     14.891
REMARK INTER + INTRA:          -7.113
REMARK INTER:                  -6.540
REMARK INTRA:                  -0.573
REMARK UNBOUND:                -0.280
REMARK  Name = 8158
REMARK  9 active torsions:
REMARK  status: ('A' for Active; 'I' for Inactive)
REMARK    1  A    between atoms: O_1  and  C_11
REMARK    2  A    between atoms: C_3  and  C_4
REMARK    3  A    between atoms: C_3  and  C_5
REMARK    4  A    between atoms: C_4  and  C_6
REMARK    5  A    between atoms: C_5  and  C_7
REMARK    6  A    between atoms: C_6  and  C_8
REMARK    7  A    between atoms: C_7  and  C_9
REMARK    8  A    between atoms: C_8  and  C_10
REMARK    9  A    between atoms: C_9  and  C_11
REMARK                            x       y       z     vdW  Elec       q    Type
REMARK                         _______ _______ _______ _____ _____    ______ ____
ROOT
ATOM      1  C   UNL     1      -2.661   8.751  -8.996  0.00  0.00    +0.000 C 
ATOM      2  H   UNL     1      -3.293   8.871  -8.108  0.00  0.00    +0.000 HD
ATOM      3  H   UNL     1      -1.620   8.808  -8.654  0.00  0.00    +0.000 HD
ENDROOT
BRANCH   1   4
ATOM      4  C   UNL     1      -2.912   7.369  -9.609  0.00  0.00    +0.000 C 
ATOM      5  H   UNL     1      -3.112   7.483 -10.682  0.00  0.00    +0.000 HD
ATOM      6  H   UNL     1      -1.999   6.765  -9.520  0.00  0.00    +0.000 HD
BRANCH   4   7
ATOM      7  C   UNL     1      -4.075   6.616  -8.957  0.00  0.00    +0.000 C 
ATOM      8  H   UNL     1      -3.712   5.656  -8.569  0.00  0.00    +0.000 HD
ATOM      9  H   UNL     1      -4.435   7.190  -8.094  0.00  0.00    +0.000 HD
BRANCH   7  10
ATOM     10  C   UNL     1      -5.243   6.362  -9.914  0.00  0.00    +0.000 C 
ATOM     11  H   UNL     1      -6.126   6.907  -9.561  0.00  0.00    +0.000 HD
ATOM     12  H   UNL     1      -5.500   5.297  -9.898  0.00  0.00    +0.000 HD
BRANCH  10  13
ATOM     13  C   UNL     1      -4.954   6.773 -11.350  0.00  0.00    +0.000 C 
ATOM     14  H   UNL     1      -4.586   5.923 -11.933  0.00  0.00    +0.000 HD
ATOM     15  H   UNL     1      -4.193   7.560 -11.374  0.00  0.00    +0.000 HD
ATOM     16  H   UNL     1      -5.856   7.157 -11.835  0.00  0.00    +0.000 HD
ENDBRANCH  10  13
ENDBRANCH   7  10
ENDBRANCH   4   7
ENDBRANCH   1   4
BRANCH   1  17
ATOM     17  C   UNL     1      -2.932   9.905  -9.965  0.00  0.00    +0.000 C 
ATOM     18  H   UNL     1      -3.999  10.156  -9.942  0.00  0.00    +0.000 HD
ATOM     19  H   UNL     1      -2.390  10.796  -9.625  0.00  0.00    +0.000 HD
BRANCH  17  20
ATOM     20  C   UNL     1      -2.524   9.597 -11.412  0.00  0.00    +0.000 C 
ATOM     21  H   UNL     1      -3.138  10.206 -12.090  0.00  0.00    +0.000 HD
ATOM     22  H   UNL     1      -2.779   8.552 -11.631  0.00  0.00    +0.000 HD
BRANCH  20  23
ATOM     23  C   UNL     1      -1.050   9.826 -11.734  0.00  0.00    +0.000 C 
ATOM     24  H   UNL     1      -0.500  10.035 -10.811  0.00  0.00    +0.000 HD
ATOM     25  H   UNL     1      -0.952  10.684 -12.407  0.00  0.00    +0.000 HD
BRANCH  23  27
ATOM     26  O   UNL     1      -0.611   7.473 -12.059  0.00  0.00    +0.000 OA
ATOM     27  C   UNL     1      -0.410   8.633 -12.396  0.00  0.00    +0.000 C 
BRANCH  27  28
ATOM     28  O   UNL     1       0.424   8.981 -13.409  0.00  0.00    +0.000 OA
ATOM     29  H   UNL     1       0.577   8.237 -14.030  0.00  0.00    +0.000 HD
ENDBRANCH  27  28
ENDBRANCH  23  27
ENDBRANCH  20  23
ENDBRANCH  17  20
ENDBRANCH   1  17
TORSDOF 9
ENDMDL
MODEL 5
REMARK VINA RESULT:    -4.567      1.322      2.090
REMARK INTER + INTRA:          -6.983
REMARK INTER:                  -6.646
REMARK INTRA:                  -0.337
REMARK UNBOUND:                -0.280
REMARK  Name = 8158
REMARK  9 active torsions:
REMARK  status: ('A' for Active; 'I' for Inactive)
REMARK    1  A    between atoms: O_1  and  C_11
REMARK    2  A    between atoms: C_3  and  C_4
REMARK    3  A    between atoms: C_3  and  C_5
REMARK    4  A    between atoms: C_4  and  C_6
REMARK    5  A    between atoms: C_5  and  C_7
REMARK    6  A    between atoms: C_6  and  C_8
REMARK    7  A    between atoms: C_7  and  C_9
REMARK    8  A    between atoms: C_8  and  C_10
REMARK    9  A    between atoms: C_9  and  C_11
REMARK                            x       y       z     vdW  Elec       q    Type
REMARK                         _______ _______ _______ _____ _____    ______ ____
ROOT
ATOM      1  C   UNL     1       6.687   8.804  -0.116  0.00  0.00    +0.000 C 
ATOM      2  H   UNL     1       7.413   8.462  -0.863  0.00  0.00    +0.000 HD
ATOM      3  H   UNL     1       5.715   8.860  -0.622  0.00  0.00    +0.000 HD
ENDROOT
BRANCH   1   4
ATOM      4  C   UNL     1       6.604   7.770   1.013  0.00  0.00    +0.000 C 
ATOM      5  H   UNL     1       5.630   7.266   0.967  0.00  0.00    +0.000 HD
ATOM      6  H   UNL     1       7.367   6.998   0.850  0.00  0.00    +0.000 HD
BRANCH   4   7
ATOM      7  C   UNL     1       6.793   8.374   2.407  0.00  0.00    +0.000 C 
ATOM      8  H   UNL     1       7.855   8.605   2.560  0.00  0.00    +0.000 HD
ATOM      9  H   UNL     1       6.252   9.326   2.463  0.00  0.00    +0.000 HD
BRANCH   7  10
ATOM     10  C   UNL     1       6.312   7.456   3.534  0.00  0.00    +0.000 C 
ATOM     11  H   UNL     1       6.682   6.439   3.356  0.00  0.00    +0.000 HD
ATOM     12  H   UNL     1       5.218   7.404   3.518  0.00  0.00    +0.000 HD
BRANCH  10  13
ATOM     13  C   UNL     1       6.759   7.905   4.918  0.00  0.00    +0.000 C 
ATOM     14  H   UNL     1       7.850   7.973   4.972  0.00  0.00    +0.000 HD
ATOM     15  H   UNL     1       6.423   7.190   5.676  0.00  0.00    +0.000 HD
ATOM     16  H   UNL     1       6.341   8.885   5.164  0.00  0.00    +0.000 HD
ENDBRANCH  10  13
ENDBRANCH   7  10
ENDBRANCH   4   7
ENDBRANCH   1   4
BRANCH   1  17
ATOM     17  C   UNL     1       7.081  10.202   0.366  0.00  0.00    +0.000 C 
ATOM     18  H   UNL     1       6.775  10.325   1.413  0.00  0.00    +0.000 HD
ATOM     19  H   UNL     1       8.173  10.296   0.343  0.00  0.00    +0.000 HD
BRANCH  17  20
ATOM     20  C   UNL     1       6.466  11.333  -0.469  0.00  0.00    +0.000 C 
ATOM     21  H   UNL     1       6.022  10.900  -1.376  0.00  0.00    +0.000 HD
ATOM     22  H   UNL     1       7.274  11.991  -0.814  0.00  0.00    +0.000 HD
BRANCH  20  23
ATOM     23  C   UNL     1       5.414  12.173   0.249  0.00  0.00    +0.000 C 
ATOM     24  H   UNL     1       5.425  13.193  -0.148  0.00  0.00    +0.000 HD
ATOM     25  H   UNL     1       5.641  12.206   1.320  0.00  0.00    +0.000 HD
BRANCH  23  27
ATOM     26  O   UNL     1       3.533  11.314  -0.999  0.00  0.00    +0.000 OA
ATOM     27  C   UNL     1       4.020  11.623   0.081  0.00  0.00    +0.000 C 
BRANCH  27  28
ATOM     28  O   UNL     1       3.357  11.511   1.259  0.00  0.00    +0.000 OA
ATOM     29  H   UNL     1       3.971  11.402   2.016  0.00  0.00    +0.000 HD
ENDBRANCH  27  28
ENDBRANCH  23  27
ENDBRANCH  20  23
ENDBRANCH  17  20
ENDBRANCH   1  17
TORSDOF 9
ENDMDL
MODEL 6
REMARK VINA RESULT:    -4.468     14.113     15.790
REMARK INTER + INTRA:          -6.838
REMARK INTER:                  -6.447
REMARK INTRA:                  -0.391
REMARK UNBOUND:                -0.280
REMARK  Name = 8158
REMARK  9 active torsions:
REMARK  status: ('A' for Active; 'I' for Inactive)
REMARK    1  A    between atoms: O_1  and  C_11
REMARK    2  A    between atoms: C_3  and  C_4
REMARK    3  A    between atoms: C_3  and  C_5
REMARK    4  A    between atoms: C_4  and  C_6
REMARK    5  A    between atoms: C_5  and  C_7
REMARK    6  A    between atoms: C_6  and  C_8
REMARK    7  A    between atoms: C_7  and  C_9
REMARK    8  A    between atoms: C_8  and  C_10
REMARK    9  A    between atoms: C_9  and  C_11
REMARK                            x       y       z     vdW  Elec       q    Type
REMARK                         _______ _______ _______ _____ _____    ______ ____
ROOT
ATOM      1  C   UNL     1      -9.383  11.203   6.030  0.00  0.00    +0.000 C 
ATOM      2  H   UNL     1      -9.915  11.973   6.603  0.00  0.00    +0.000 HD
ATOM      3  H   UNL     1     -10.136  10.479   5.697  0.00  0.00    +0.000 HD
ENDROOT
BRANCH   1   4
ATOM      4  C   UNL     1      -8.734  11.851   4.802  0.00  0.00    +0.000 C 
ATOM      5  H   UNL     1      -9.072  11.326   3.899  0.00  0.00    +0.000 HD
ATOM      6  H   UNL     1      -9.085  12.887   4.715  0.00  0.00    +0.000 HD
BRANCH   4   7
ATOM      7  C   UNL     1      -7.204  11.842   4.846  0.00  0.00    +0.000 C 
ATOM      8  H   UNL     1      -6.869  11.205   5.674  0.00  0.00    +0.000 HD
ATOM      9  H   UNL     1      -6.820  11.390   3.924  0.00  0.00    +0.000 HD
BRANCH   7  10
ATOM     10  C   UNL     1      -6.597  13.239   5.011  0.00  0.00    +0.000 C 
ATOM     11  H   UNL     1      -7.242  13.975   4.517  0.00  0.00    +0.000 HD
ATOM     12  H   UNL     1      -5.627  13.275   4.503  0.00  0.00    +0.000 HD
BRANCH  10  13
ATOM     13  C   UNL     1      -6.403  13.651   6.463  0.00  0.00    +0.000 C 
ATOM     14  H   UNL     1      -6.926  14.588   6.676  0.00  0.00    +0.000 HD
ATOM     15  H   UNL     1      -5.339  13.797   6.678  0.00  0.00    +0.000 HD
ATOM     16  H   UNL     1      -6.785  12.882   7.141  0.00  0.00    +0.000 HD
ENDBRANCH  10  13
ENDBRANCH   7  10
ENDBRANCH   4   7
ENDBRANCH   1   4
BRANCH   1  17
ATOM     17  C   UNL     1      -8.381  10.497   6.947  0.00  0.00    +0.000 C 
ATOM     18  H   UNL     1      -7.618   9.999   6.336  0.00  0.00    +0.000 HD
ATOM     19  H   UNL     1      -7.861  11.246   7.556  0.00  0.00    +0.000 HD
BRANCH  17  20
ATOM     20  C   UNL     1      -9.028   9.461   7.877  0.00  0.00    +0.000 C 
ATOM     21  H   UNL     1      -9.730   8.851   7.292  0.00  0.00    +0.000 HD
ATOM     22  H   UNL     1      -9.636   9.992   8.621  0.00  0.00    +0.000 HD
BRANCH  20  23
ATOM     23  C   UNL     1      -8.051   8.539   8.601  0.00  0.00    +0.000 C 
ATOM     24  H   UNL     1      -7.031   8.742   8.258  0.00  0.00    +0.000 HD
ATOM     25  H   UNL     1      -8.299   7.496   8.377  0.00  0.00    +0.000 HD
BRANCH  23  27
ATOM     26  O   UNL     1      -8.973   8.289  10.819  0.00  0.00    +0.000 OA
ATOM     27  C   UNL     1      -8.084   8.720  10.097  0.00  0.00    +0.000 C 
BRANCH  27  28
ATOM     28  O   UNL     1      -7.019   9.422  10.561  0.00  0.00    +0.000 OA
ATOM     29  H   UNL     1      -7.206   9.840  11.428  0.00  0.00    +0.000 HD
ENDBRANCH  27  28
ENDBRANCH  23  27
ENDBRANCH  20  23
ENDBRANCH  17  20
ENDBRANCH   1  17
TORSDOF 9
ENDMDL
MODEL 7
REMARK VINA RESULT:    -4.327     13.504     15.113
REMARK INTER + INTRA:          -6.631
REMARK INTER:                  -5.825
REMARK INTRA:                  -0.806
REMARK UNBOUND:                -0.280
REMARK  Name = 8158
REMARK  9 active torsions:
REMARK  status: ('A' for Active; 'I' for Inactive)
REMARK    1  A    between atoms: O_1  and  C_11
REMARK    2  A    between atoms: C_3  and  C_4
REMARK    3  A    between atoms: C_3  and  C_5
REMARK    4  A    between atoms: C_4  and  C_6
REMARK    5  A    between atoms: C_5  and  C_7
REMARK    6  A    between atoms: C_6  and  C_8
REMARK    7  A    between atoms: C_7  and  C_9
REMARK    8  A    between atoms: C_8  and  C_10
REMARK    9  A    between atoms: C_9  and  C_11
REMARK                            x       y       z     vdW  Elec       q    Type
REMARK                         _______ _______ _______ _____ _____    ______ ____
ROOT
ATOM      1  C   UNL     1      -1.497   9.841  -9.906  0.00  0.00    +0.000 C 
ATOM      2  H   UNL     1      -0.846   9.188  -9.312  0.00  0.00    +0.000 HD
ATOM      3  H   UNL     1      -1.560  10.796  -9.370  0.00  0.00    +0.000 HD
ENDROOT
BRANCH   1   4
ATOM      4  C   UNL     1      -0.853  10.077 -11.277  0.00  0.00    +0.000 C 
ATOM      5  H   UNL     1      -0.265  11.003 -11.242  0.00  0.00    +0.000 HD
ATOM      6  H   UNL     1      -0.147   9.263 -11.488  0.00  0.00    +0.000 HD
BRANCH   4   7
ATOM      7  C   UNL     1      -1.868  10.167 -12.419  0.00  0.00    +0.000 C 
ATOM      8  H   UNL     1      -2.672   9.441 -12.247  0.00  0.00    +0.000 HD
ATOM      9  H   UNL     1      -2.332  11.161 -12.410  0.00  0.00    +0.000 HD
BRANCH   7  10
ATOM     10  C   UNL     1      -1.251   9.914 -13.798  0.00  0.00    +0.000 C 
ATOM     11  H   UNL     1      -1.020  10.875 -14.274  0.00  0.00    +0.000 HD
ATOM     12  H   UNL     1      -1.985   9.411 -14.437  0.00  0.00    +0.000 HD
BRANCH  10  13
ATOM     13  C   UNL     1       0.015   9.071 -13.752  0.00  0.00    +0.000 C 
ATOM     14  H   UNL     1       0.899   9.686 -13.945  0.00  0.00    +0.000 HD
ATOM     15  H   UNL     1      -0.025   8.283 -14.511  0.00  0.00    +0.000 HD
ATOM     16  H   UNL     1       0.133   8.597 -12.773  0.00  0.00    +0.000 HD
ENDBRANCH  10  13
ENDBRANCH   7  10
ENDBRANCH   4   7
ENDBRANCH   1   4
BRANCH   1  17
ATOM     17  C   UNL     1      -2.894   9.220  -9.988  0.00  0.00    +0.000 C 
ATOM     18  H   UNL     1      -3.558   9.726  -9.277  0.00  0.00    +0.000 HD
ATOM     19  H   UNL     1      -3.308   9.396 -10.988  0.00  0.00    +0.000 HD
BRANCH  17  20
ATOM     20  C   UNL     1      -2.911   7.713  -9.700  0.00  0.00    +0.000 C 
ATOM     21  H   UNL     1      -3.529   7.530  -8.811  0.00  0.00    +0.000 HD
ATOM     22  H   UNL     1      -1.894   7.398  -9.432  0.00  0.00    +0.000 HD
BRANCH  20  23
ATOM     23  C   UNL     1      -3.416   6.839 -10.845  0.00  0.00    +0.000 C 
ATOM     24  H   UNL     1      -4.331   7.272 -11.261  0.00  0.00    +0.000 HD
ATOM     25  H   UNL     1      -3.638   5.835 -10.468  0.00  0.00    +0.000 HD
BRANCH  23  27
ATOM     26  O   UNL     1      -2.704   6.743 -13.151  0.00  0.00    +0.000 OA
ATOM     27  C   UNL     1      -2.412   6.711 -11.962  0.00  0.00    +0.000 C 
BRANCH  27  28
ATOM     28  O   UNL     1      -1.143   6.550 -11.509  0.00  0.00    +0.000 OA
ATOM     29  H   UNL     1      -0.613   5.976 -12.101  0.00  0.00    +0.000 HD
ENDBRANCH  27  28
ENDBRANCH  23  27
ENDBRANCH  20  23
ENDBRANCH  17  20
ENDBRANCH   1  17
TORSDOF 9
ENDMDL
MODEL 8
REMARK VINA RESULT:    -4.229     14.014     15.091
REMARK INTER + INTRA:          -6.487
REMARK INTER:                  -6.023
REMARK INTRA:                  -0.464
REMARK UNBOUND:                -0.280
REMARK  Name = 8158
REMARK  9 active torsions:
REMARK  status: ('A' for Active; 'I' for Inactive)
REMARK    1  A    between atoms: O_1  and  C_11
REMARK    2  A    between atoms: C_3  and  C_4
REMARK    3  A    between atoms: C_3  and  C_5
REMARK    4  A    between atoms: C_4  and  C_6
REMARK    5  A    between atoms: C_5  and  C_7
REMARK    6  A    between atoms: C_6  and  C_8
REMARK    7  A    between atoms: C_7  and  C_9
REMARK    8  A    between atoms: C_8  and  C_10
REMARK    9  A    between atoms: C_9  and  C_11
REMARK                            x       y       z     vdW  Elec       q    Type
REMARK                         _______ _______ _______ _____ _____    ______ ____
ROOT
ATOM      1  C   UNL     1      -6.598  14.283   6.840  0.00  0.00    +0.000 C 
ATOM      2  H   UNL     1      -6.237  15.319   6.811  0.00  0.00    +0.000 HD
ATOM      3  H   UNL     1      -7.663  14.327   7.103  0.00  0.00    +0.000 HD
ENDROOT
BRANCH   1   4
ATOM      4  C   UNL     1      -6.453  13.663   5.446  0.00  0.00    +0.000 C 
ATOM      5  H   UNL     1      -5.642  14.173   4.910  0.00  0.00    +0.000 HD
ATOM      6  H   UNL     1      -6.150  12.612   5.550  0.00  0.00    +0.000 HD
BRANCH   4   7
ATOM      7  C   UNL     1      -7.733  13.734   4.611  0.00  0.00    +0.000 C 
ATOM      8  H   UNL     1      -8.446  14.410   5.099  0.00  0.00    +0.000 HD
ATOM      9  H   UNL     1      -7.500  14.172   3.633  0.00  0.00    +0.000 HD
BRANCH   7  10
ATOM     10  C   UNL     1      -8.397  12.369   4.404  0.00  0.00    +0.000 C 
ATOM     11  H   UNL     1      -8.777  12.302   3.377  0.00  0.00    +0.000 HD
ATOM     12  H   UNL     1      -9.263  12.282   5.070  0.00  0.00    +0.000 HD
BRANCH  10  13
ATOM     13  C   UNL     1      -7.464  11.194   4.659  0.00  0.00    +0.000 C 
ATOM     14  H   UNL     1      -7.202  11.127   5.719  0.00  0.00    +0.000 HD
ATOM     15  H   UNL     1      -6.540  11.310   4.085  0.00  0.00    +0.000 HD
ATOM     16  H   UNL     1      -7.934  10.252   4.362  0.00  0.00    +0.000 HD
ENDBRANCH  10  13
ENDBRANCH   7  10
ENDBRANCH   4   7
ENDBRANCH   1   4
BRANCH   1  17
ATOM     17  C   UNL     1      -5.845  13.517   7.930  0.00  0.00    +0.000 C 
ATOM     18  H   UNL     1      -5.354  12.643   7.485  0.00  0.00    +0.000 HD
ATOM     19  H   UNL     1      -5.050  14.155   8.334  0.00  0.00    +0.000 HD
BRANCH  17  20
ATOM     20  C   UNL     1      -6.744  13.051   9.083  0.00  0.00    +0.000 C 
ATOM     21  H   UNL     1      -7.576  13.760   9.190  0.00  0.00    +0.000 HD
ATOM     22  H   UNL     1      -6.172  13.112  10.018  0.00  0.00    +0.000 HD
BRANCH  20  23
ATOM     23  C   UNL     1      -7.308  11.640   8.937  0.00  0.00    +0.000 C 
ATOM     24  H   UNL     1      -6.936  11.190   8.011  0.00  0.00    +0.000 HD
ATOM     25  H   UNL     1      -8.401  11.686   8.894  0.00  0.00    +0.000 HD
BRANCH  23  27
ATOM     26  O   UNL     1      -7.691   9.975  10.643  0.00  0.00    +0.000 OA
ATOM     27  C   UNL     1      -6.918  10.740  10.081  0.00  0.00    +0.000 C 
BRANCH  27  28
ATOM     28  O   UNL     1      -5.613  10.872  10.428  0.00  0.00    +0.000 OA
ATOM     29  H   UNL     1      -5.438  10.531  11.332  0.00  0.00    +0.000 HD
ENDBRANCH  27  28
ENDBRANCH  23  27
ENDBRANCH  20  23
ENDBRANCH  17  20
ENDBRANCH   1  17
TORSDOF 9
ENDMDL
MODEL 9
REMARK VINA RESULT:    -4.210     14.868     15.843
REMARK INTER + INTRA:          -6.459
REMARK INTER:                  -5.988
REMARK INTRA:                  -0.471
REMARK UNBOUND:                -0.280
REMARK  Name = 8158
REMARK  9 active torsions:
REMARK  status: ('A' for Active; 'I' for Inactive)
REMARK    1  A    between atoms: O_1  and  C_11
REMARK    2  A    between atoms: C_3  and  C_4
REMARK    3  A    between atoms: C_3  and  C_5
REMARK    4  A    between atoms: C_4  and  C_6
REMARK    5  A    between atoms: C_5  and  C_7
REMARK    6  A    between atoms: C_6  and  C_8
REMARK    7  A    between atoms: C_7  and  C_9
REMARK    8  A    between atoms: C_8  and  C_10
REMARK    9  A    between atoms: C_9  and  C_11
REMARK                            x       y       z     vdW  Elec       q    Type
REMARK                         _______ _______ _______ _____ _____    ______ ____
ROOT
ATOM      1  C   UNL     1      -0.701   7.939 -12.316  0.00  0.00    +0.000 C 
ATOM      2  H   UNL     1       0.312   7.842 -11.908  0.00  0.00    +0.000 HD
ATOM      3  H   UNL     1      -0.619   7.809 -13.402  0.00  0.00    +0.000 HD
ENDROOT
BRANCH   1   4
ATOM      4  C   UNL     1      -1.581   6.821 -11.744  0.00  0.00    +0.000 C 
ATOM      5  H   UNL     1      -1.204   5.853 -12.097  0.00  0.00    +0.000 HD
ATOM      6  H   UNL     1      -1.490   6.817 -10.650  0.00  0.00    +0.000 HD
BRANCH   4   7
ATOM      7  C   UNL     1      -3.058   6.956 -12.122  0.00  0.00    +0.000 C 
ATOM      8  H   UNL     1      -3.202   7.879 -12.697  0.00  0.00    +0.000 HD
ATOM      9  H   UNL     1      -3.337   6.125 -12.782  0.00  0.00    +0.000 HD
BRANCH   7  10
ATOM     10  C   UNL     1      -3.994   6.969 -10.909  0.00  0.00    +0.000 C 
ATOM     11  H   UNL     1      -4.730   6.162 -11.011  0.00  0.00    +0.000 HD
ATOM     12  H   UNL     1      -4.554   7.910 -10.894  0.00  0.00    +0.000 HD
BRANCH  10  13
ATOM     13  C   UNL     1      -3.270   6.809  -9.581  0.00  0.00    +0.000 C 
ATOM     14  H   UNL     1      -2.255   6.429  -9.732  0.00  0.00    +0.000 HD
ATOM     15  H   UNL     1      -3.807   6.105  -8.938  0.00  0.00    +0.000 HD
ATOM     16  H   UNL     1      -3.203   7.767  -9.056  0.00  0.00    +0.000 HD
ENDBRANCH  10  13
ENDBRANCH   7  10
ENDBRANCH   4   7
ENDBRANCH   1   4
BRANCH   1  17
ATOM     17  C   UNL     1      -1.231   9.344 -12.019  0.00  0.00    +0.000 C 
ATOM     18  H   UNL     1      -2.328   9.334 -12.060  0.00  0.00    +0.000 HD
ATOM     19  H   UNL     1      -0.955   9.623 -10.995  0.00  0.00    +0.000 HD
BRANCH  17  20
ATOM     20  C   UNL     1      -0.706  10.413 -12.986  0.00  0.00    +0.000 C 
ATOM     21  H   UNL     1       0.329  10.659 -12.712  0.00  0.00    +0.000 HD
ATOM     22  H   UNL     1      -1.284  11.334 -12.836  0.00  0.00    +0.000 HD
BRANCH  20  23
ATOM     23  C   UNL     1      -0.753  10.032 -14.463  0.00  0.00    +0.000 C 
ATOM     24  H   UNL     1      -1.316  10.788 -15.020  0.00  0.00    +0.000 HD
ATOM     25  H   UNL     1      -1.252   9.064 -14.575  0.00  0.00    +0.000 HD
BRANCH  23  27
ATOM     26  O   UNL     1       1.397  10.869 -15.179  0.00  0.00    +0.000 OA
ATOM     27  C   UNL     1       0.620   9.928 -15.078  0.00  0.00    +0.000 C 
BRANCH  27  28
ATOM     28  O   UNL     1       0.903   8.675 -15.516  0.00  0.00    +0.000 OA
ATOM     29  H   UNL     1       1.214   8.095 -14.788  0.00  0.00    +0.000 HD
ENDBRANCH  27  28
ENDBRANCH  23  27
ENDBRANCH  20  23
ENDBRANCH  17  20
ENDBRANCH   1  17
TORSDOF 9
ENDMDL
MODEL 10
REMARK VINA RESULT:    -4.201      5.347      6.872
REMARK INTER + INTRA:          -6.446
REMARK INTER:                  -6.166
REMARK INTRA:                  -0.280
REMARK UNBOUND:                -0.280
REMARK  Name = 8158
REMARK  9 active torsions:
REMARK  status: ('A' for Active; 'I' for Inactive)
REMARK    1  A    between atoms: O_1  and  C_11
REMARK    2  A    between atoms: C_3  and  C_4
REMARK    3  A    between atoms: C_3  and  C_5
REMARK    4  A    between atoms: C_4  and  C_6
REMARK    5  A    between atoms: C_5  and  C_7
REMARK    6  A    between atoms: C_6  and  C_8
REMARK    7  A    between atoms: C_7  and  C_9
REMARK    8  A    between atoms: C_8  and  C_10
REMARK    9  A    between atoms: C_9  and  C_11
REMARK                            x       y       z     vdW  Elec       q    Type
REMARK                         _______ _______ _______ _____ _____    ______ ____
ROOT
ATOM      1  C   UNL     1       7.277   9.632   6.281  0.00  0.00    +0.000 C 
ATOM      2  H   UNL     1       7.180  10.675   5.958  0.00  0.00    +0.000 HD
ATOM      3  H   UNL     1       6.309   9.342   6.710  0.00  0.00    +0.000 HD
ENDROOT
BRANCH   1   4
ATOM      4  C   UNL     1       7.567   8.753   5.059  0.00  0.00    +0.000 C 
ATOM      5  H   UNL     1       7.333   9.318   4.148  0.00  0.00    +0.000 HD
ATOM      6  H   UNL     1       8.641   8.529   5.025  0.00  0.00    +0.000 HD
BRANCH   4   7
ATOM      7  C   UNL     1       6.781   7.439   5.054  0.00  0.00    +0.000 C 
ATOM      8  H   UNL     1       7.421   6.633   5.434  0.00  0.00    +0.000 HD
ATOM      9  H   UNL     1       5.934   7.524   5.745  0.00  0.00    +0.000 HD
BRANCH   7  10
ATOM     10  C   UNL     1       6.260   7.053   3.667  0.00  0.00    +0.000 C 
ATOM     11  H   UNL     1       6.863   6.228   3.269  0.00  0.00    +0.000 HD
ATOM     12  H   UNL     1       6.389   7.899   2.982  0.00  0.00    +0.000 HD
BRANCH  10  13
ATOM     13  C   UNL     1       4.796   6.638   3.660  0.00  0.00    +0.000 C 
ATOM     14  H   UNL     1       4.675   5.642   3.223  0.00  0.00    +0.000 HD
ATOM     15  H   UNL     1       4.203   7.345   3.071  0.00  0.00    +0.000 HD
ATOM     16  H   UNL     1       4.392   6.618   4.677  0.00  0.00    +0.000 HD
ENDBRANCH  10  13
ENDBRANCH   7  10
ENDBRANCH   4   7
ENDBRANCH   1   4
BRANCH   1  17
ATOM     17  C   UNL     1       8.352   9.539   7.367  0.00  0.00    +0.000 C 
ATOM     18  H   UNL     1       7.874   9.350   8.336  0.00  0.00    +0.000 HD
ATOM     19  H   UNL     1       8.999   8.677   7.160  0.00  0.00    +0.000 HD
BRANCH  17  20
ATOM     20  C   UNL     1       9.221  10.799   7.476  0.00  0.00    +0.000 C 
ATOM     21  H   UNL     1      10.027  10.738   6.732  0.00  0.00    +0.000 HD
ATOM     22  H   UNL     1       9.715  10.798   8.457  0.00  0.00    +0.000 HD
BRANCH  20  23
ATOM     23  C   UNL     1       8.476  12.119   7.297  0.00  0.00    +0.000 C 
ATOM     24  H   UNL     1       8.617  12.744   8.185  0.00  0.00    +0.000 HD
ATOM     25  H   UNL     1       7.407  11.920   7.168  0.00  0.00    +0.000 HD
BRANCH  23  27
ATOM     26  O   UNL     1       9.709  12.444   5.245  0.00  0.00    +0.000 OA
ATOM     27  C   UNL     1       8.959  12.897   6.100  0.00  0.00    +0.000 C 
BRANCH  27  28
ATOM     28  O   UNL     1       8.474  14.165   6.071  0.00  0.00    +0.000 OA
ATOM     29  H   UNL     1       8.223  14.481   6.965  0.00  0.00    +0.000 HD
ENDBRANCH  27  28
ENDBRANCH  23  27
ENDBRANCH  20  23
ENDBRANCH  17  20
ENDBRANCH   1  17
TORSDOF 9
ENDMDL
