MODEL 1
REMARK VINA RESULT:    -4.320      0.000      0.000
REMARK INTER + INTRA:          -6.161
REMARK INTER:                  -5.681
REMARK INTRA:                  -0.480
REMARK UNBOUND:                -0.199
REMARK  Name = 454
REMARK  7 active torsions:
REMARK  status: ('A' for Active; 'I' for Inactive)
REMARK    1  A    between atoms: C_2  and  C_3
REMARK    2  A    between atoms: C_2  and  C_4
REMARK    3  A    between atoms: C_3  and  C_5
REMARK    4  A    between atoms: C_4  and  C_6
REMARK    5  A    between atoms: C_5  and  C_7
REMARK    6  A    between atoms: C_6  and  C_8
REMARK    7  A    between atoms: C_7  and  C_9
REMARK                            x       y       z     vdW  Elec       q    Type
REMARK                         _______ _______ _______ _____ _____    ______ ____
ROOT
ATOM      1  C   UNL     1      -3.016   6.731  -9.729  0.00  0.00    +0.000 C 
ATOM      2  H   UNL     1      -3.234   5.787  -9.215  0.00  0.00    +0.000 HD
ATOM      3  H   UNL     1      -1.946   6.729  -9.970  0.00  0.00    +0.000 HD
ENDROOT
BRANCH   1   4
ATOM      4  C   UNL     1      -3.828   6.810 -11.024  0.00  0.00    +0.000 C 
ATOM      5  H   UNL     1      -4.562   7.622 -10.946  0.00  0.00    +0.000 HD
ATOM      6  H   UNL     1      -4.396   5.880 -11.148  0.00  0.00    +0.000 HD
BRANCH   4   7
ATOM      7  C   UNL     1      -2.966   7.039 -12.268  0.00  0.00    +0.000 C 
ATOM      8  H   UNL     1      -3.278   6.346 -13.059  0.00  0.00    +0.000 HD
ATOM      9  H   UNL     1      -3.155   8.049 -12.650  0.00  0.00    +0.000 HD
BRANCH   7  10
ATOM     10  C   UNL     1      -1.471   6.872 -12.008  0.00  0.00    +0.000 C 
ATOM     11  H   UNL     1      -1.290   6.631 -10.955  0.00  0.00    +0.000 HD
ATOM     12  H   UNL     1      -1.067   6.058 -12.620  0.00  0.00    +0.000 HD
BRANCH  10  14
ATOM     13  O   UNL     1      -0.862   8.826 -13.317  0.00  0.00    +0.000 OA
ATOM     14  C   UNL     1      -0.685   8.121 -12.327  0.00  0.00    +0.000 C 
ATOM     15  H   UNL     1       0.090   8.383 -11.588  0.00  0.00    +0.000 HD
ENDBRANCH  10  14
ENDBRANCH   7  10
ENDBRANCH   4   7
ENDBRANCH   1   4
BRANCH   1  16
ATOM     16  C   UNL     1      -3.333   7.907  -8.803  0.00  0.00    +0.000 C 
ATOM     17  H   UNL     1      -3.268   7.582  -7.758  0.00  0.00    +0.000 HD
ATOM     18  H   UNL     1      -4.365   8.239  -8.974  0.00  0.00    +0.000 HD
BRANCH  16  19
ATOM     19  C   UNL     1      -2.377   9.076  -9.039  0.00  0.00    +0.000 C 
ATOM     20  H   UNL     1      -2.189   9.598  -8.094  0.00  0.00    +0.000 HD
ATOM     21  H   UNL     1      -1.412   8.700  -9.400  0.00  0.00    +0.000 HD
BRANCH  19  22
ATOM     22  C   UNL     1      -2.937  10.060 -10.052  0.00  0.00    +0.000 C 
ATOM     23  H   UNL     1      -2.186  10.317 -10.805  0.00  0.00    +0.000 HD
ATOM     24  H   UNL     1      -3.247  10.984  -9.553  0.00  0.00    +0.000 HD
ATOM     25  H   UNL     1      -3.809   9.642 -10.565  0.00  0.00    +0.000 HD
ENDBRANCH  19  22
ENDBRANCH  16  19
ENDBRANCH   1  16
TORSDOF 7
ENDMDL
MODEL 2
REMARK VINA RESULT:    -4.208     14.154     15.528
REMARK INTER + INTRA:          -6.006
REMARK INTER:                  -5.532
REMARK INTRA:                  -0.475
REMARK UNBOUND:                -0.199
REMARK  Name = 454
REMARK  7 active torsions:
REMARK  status: ('A' for Active; 'I' for Inactive)
REMARK    1  A    between atoms: C_2  and  C_3
REMARK    2  A    between atoms: C_2  and  C_4
REMARK    3  A    between atoms: C_3  and  C_5
REMARK    4  A    between atoms: C_4  and  C_6
REMARK    5  A    between atoms: C_5  and  C_7
REMARK    6  A    between atoms: C_6  and  C_8
REMARK    7  A    between atoms: C_7  and  C_9
REMARK                            x       y       z     vdW  Elec       q    Type
REMARK                         _______ _______ _______ _____ _____    ______ ____
ROOT
ATOM      1  C   UNL     1       6.545   7.803   1.825  0.00  0.00    +0.000 C 
ATOM      2  H   UNL     1       5.468   7.599   1.784  0.00  0.00    +0.000 HD
ATOM      3  H   UNL     1       7.062   6.854   1.637  0.00  0.00    +0.000 HD
ENDROOT
BRANCH   1   4
ATOM      4  C   UNL     1       6.918   8.809   0.734  0.00  0.00    +0.000 C 
ATOM      5  H   UNL     1       7.413   8.284  -0.093  0.00  0.00    +0.000 HD
ATOM      6  H   UNL     1       7.648   9.521   1.138  0.00  0.00    +0.000 HD
BRANCH   4   7
ATOM      7  C   UNL     1       5.717   9.581   0.183  0.00  0.00    +0.000 C 
ATOM      8  H   UNL     1       5.782  10.629   0.501  0.00  0.00    +0.000 HD
ATOM      9  H   UNL     1       5.772   9.588  -0.913  0.00  0.00    +0.000 HD
BRANCH   7  10
ATOM     10  C   UNL     1       4.374   9.001   0.616  0.00  0.00    +0.000 C 
ATOM     11  H   UNL     1       3.755   8.772  -0.259  0.00  0.00    +0.000 HD
ATOM     12  H   UNL     1       4.523   8.075   1.181  0.00  0.00    +0.000 HD
BRANCH  10  14
ATOM     13  O   UNL     1       3.201   9.698   2.626  0.00  0.00    +0.000 OA
ATOM     14  C   UNL     1       3.588   9.950   1.489  0.00  0.00    +0.000 C 
ATOM     15  H   UNL     1       3.372  10.931   1.032  0.00  0.00    +0.000 HD
ENDBRANCH  10  14
ENDBRANCH   7  10
ENDBRANCH   4   7
ENDBRANCH   1   4
BRANCH   1  16
ATOM     16  C   UNL     1       6.918   8.326   3.213  0.00  0.00    +0.000 C 
ATOM     17  H   UNL     1       6.722   9.404   3.266  0.00  0.00    +0.000 HD
ATOM     18  H   UNL     1       7.994   8.186   3.381  0.00  0.00    +0.000 HD
BRANCH  16  19
ATOM     19  C   UNL     1       6.134   7.607   4.310  0.00  0.00    +0.000 C 
ATOM     20  H   UNL     1       6.817   7.002   4.919  0.00  0.00    +0.000 HD
ATOM     21  H   UNL     1       5.668   8.341   4.978  0.00  0.00    +0.000 HD
BRANCH  19  22
ATOM     22  C   UNL     1       5.055   6.709   3.727  0.00  0.00    +0.000 C 
ATOM     23  H   UNL     1       4.074   6.952   4.148  0.00  0.00    +0.000 HD
ATOM     24  H   UNL     1       5.271   5.660   3.954  0.00  0.00    +0.000 HD
ATOM     25  H   UNL     1       4.999   6.818   2.640  0.00  0.00    +0.000 HD
ENDBRANCH  19  22
ENDBRANCH  16  19
ENDBRANCH   1  16
TORSDOF 7
ENDMDL
MODEL 3
REMARK VINA RESULT:    -4.176      1.867      3.439
REMARK INTER + INTRA:          -5.962
REMARK INTER:                  -5.521
REMARK INTRA:                  -0.441
REMARK UNBOUND:                -0.199
REMARK  Name = 454
REMARK  7 active torsions:
REMARK  status: ('A' for Active; 'I' for Inactive)
REMARK    1  A    between atoms: C_2  and  C_3
REMARK    2  A    between atoms: C_2  and  C_4
REMARK    3  A    between atoms: C_3  and  C_5
REMARK    4  A    between atoms: C_4  and  C_6
REMARK    5  A    between atoms: C_5  and  C_7
REMARK    6  A    between atoms: C_6  and  C_8
REMARK    7  A    between atoms: C_7  and  C_9
REMARK                            x       y       z     vdW  Elec       q    Type
REMARK                         _______ _______ _______ _____ _____    ______ ____
ROOT
ATOM      1  C   UNL     1      -2.645   9.860  -9.984  0.00  0.00    +0.000 C 
ATOM      2  H   UNL     1      -3.305   9.517 -10.789  0.00  0.00    +0.000 HD
ATOM      3  H   UNL     1      -3.055  10.806  -9.610  0.00  0.00    +0.000 HD
ENDROOT
BRANCH   1   4
ATOM      4  C   UNL     1      -2.637   8.829  -8.852  0.00  0.00    +0.000 C 
ATOM      5  H   UNL     1      -3.073   9.275  -7.949  0.00  0.00    +0.000 HD
ATOM      6  H   UNL     1      -1.599   8.572  -8.609  0.00  0.00    +0.000 HD
BRANCH   4   7
ATOM      7  C   UNL     1      -3.403   7.548  -9.193  0.00  0.00    +0.000 C 
ATOM      8  H   UNL     1      -3.451   6.906  -8.304  0.00  0.00    +0.000 HD
ATOM      9  H   UNL     1      -4.439   7.809  -9.440  0.00  0.00    +0.000 HD
BRANCH   7  10
ATOM     10  C   UNL     1      -2.792   6.766 -10.351  0.00  0.00    +0.000 C 
ATOM     11  H   UNL     1      -1.808   7.174 -10.612  0.00  0.00    +0.000 HD
ATOM     12  H   UNL     1      -2.663   5.714 -10.075  0.00  0.00    +0.000 HD
BRANCH  10  14
ATOM     13  O   UNL     1      -4.872   6.823 -11.603  0.00  0.00    +0.000 OA
ATOM     14  C   UNL     1      -3.645   6.814 -11.596  0.00  0.00    +0.000 C 
ATOM     15  H   UNL     1      -3.082   6.846 -12.544  0.00  0.00    +0.000 HD
ENDBRANCH  10  14
ENDBRANCH   7  10
ENDBRANCH   4   7
ENDBRANCH   1   4
BRANCH   1  16
ATOM     16  C   UNL     1      -1.236  10.091 -10.533  0.00  0.00    +0.000 C 
ATOM     17  H   UNL     1      -0.528   9.430 -10.020  0.00  0.00    +0.000 HD
ATOM     18  H   UNL     1      -0.926  11.122 -10.324  0.00  0.00    +0.000 HD
BRANCH  16  19
ATOM     19  C   UNL     1      -1.177   9.837 -12.039  0.00  0.00    +0.000 C 
ATOM     20  H   UNL     1      -2.176   9.582 -12.412  0.00  0.00    +0.000 HD
ATOM     21  H   UNL     1      -0.860  10.749 -12.558  0.00  0.00    +0.000 HD
BRANCH  19  22
ATOM     22  C   UNL     1      -0.214   8.711 -12.378  0.00  0.00    +0.000 C 
ATOM     23  H   UNL     1      -0.463   8.261 -13.345  0.00  0.00    +0.000 HD
ATOM     24  H   UNL     1      -0.264   7.926 -11.616  0.00  0.00    +0.000 HD
ATOM     25  H   UNL     1       0.816   9.076 -12.424  0.00  0.00    +0.000 HD
ENDBRANCH  19  22
ENDBRANCH  16  19
ENDBRANCH   1  16
TORSDOF 7
ENDMDL
MODEL 4
REMARK VINA RESULT:    -4.135      1.304      2.698
REMARK INTER + INTRA:          -5.906
REMARK INTER:                  -5.356
REMARK INTRA:                  -0.550
REMARK UNBOUND:                -0.199
REMARK  Name = 454
REMARK  7 active torsions:
REMARK  status: ('A' for Active; 'I' for Inactive)
REMARK    1  A    between atoms: C_2  and  C_3
REMARK    2  A    between atoms: C_2  and  C_4
REMARK    3  A    between atoms: C_3  and  C_5
REMARK    4  A    between atoms: C_4  and  C_6
REMARK    5  A    between atoms: C_5  and  C_7
REMARK    6  A    between atoms: C_6  and  C_8
REMARK    7  A    between atoms: C_7  and  C_9
REMARK                            x       y       z     vdW  Elec       q    Type
REMARK                         _______ _______ _______ _____ _____    ______ ____
ROOT
ATOM      1  C   UNL     1      -2.844   9.372  -9.869  0.00  0.00    +0.000 C 
ATOM      2  H   UNL     1      -3.457  10.222  -9.544  0.00  0.00    +0.000 HD
ATOM      3  H   UNL     1      -3.206   9.072 -10.860  0.00  0.00    +0.000 HD
ENDROOT
BRANCH   1   4
ATOM      4  C   UNL     1      -1.380   9.805  -9.972  0.00  0.00    +0.000 C 
ATOM      5  H   UNL     1      -0.750   9.098  -9.418  0.00  0.00    +0.000 HD
ATOM      6  H   UNL     1      -1.261  10.782  -9.488  0.00  0.00    +0.000 HD
BRANCH   4   7
ATOM      7  C   UNL     1      -0.874   9.896 -11.414  0.00  0.00    +0.000 C 
ATOM      8  H   UNL     1      -0.773  10.952 -11.698  0.00  0.00    +0.000 HD
ATOM      9  H   UNL     1       0.133   9.466 -11.464  0.00  0.00    +0.000 HD
BRANCH   7  10
ATOM     10  C   UNL     1      -1.776   9.185 -12.419  0.00  0.00    +0.000 C 
ATOM     11  H   UNL     1      -2.711   8.872 -11.940  0.00  0.00    +0.000 HD
ATOM     12  H   UNL     1      -2.024   9.855 -13.248  0.00  0.00    +0.000 HD
BRANCH  10  14
ATOM     13  O   UNL     1      -1.316   6.806 -12.595  0.00  0.00    +0.000 OA
ATOM     14  C   UNL     1      -1.132   7.950 -13.001  0.00  0.00    +0.000 C 
ATOM     15  H   UNL     1      -0.459   8.136 -13.855  0.00  0.00    +0.000 HD
ENDBRANCH  10  14
ENDBRANCH   7  10
ENDBRANCH   4   7
ENDBRANCH   1   4
BRANCH   1  16
ATOM     16  C   UNL     1      -3.011   8.210  -8.887  0.00  0.00    +0.000 C 
ATOM     17  H   UNL     1      -3.907   8.370  -8.276  0.00  0.00    +0.000 HD
ATOM     18  H   UNL     1      -2.154   8.183  -8.203  0.00  0.00    +0.000 HD
BRANCH  16  19
ATOM     19  C   UNL     1      -3.120   6.873  -9.620  0.00  0.00    +0.000 C 
ATOM     20  H   UNL     1      -2.171   6.645 -10.119  0.00  0.00    +0.000 HD
ATOM     21  H   UNL     1      -3.309   6.069  -8.900  0.00  0.00    +0.000 HD
BRANCH  19  22
ATOM     22  C   UNL     1      -4.237   6.891 -10.651  0.00  0.00    +0.000 C 
ATOM     23  H   UNL     1      -5.062   6.240 -10.345  0.00  0.00    +0.000 HD
ATOM     24  H   UNL     1      -3.866   6.538 -11.618  0.00  0.00    +0.000 HD
ATOM     25  H   UNL     1      -4.629   7.904 -10.786  0.00  0.00    +0.000 HD
ENDBRANCH  19  22
ENDBRANCH  16  19
ENDBRANCH   1  16
TORSDOF 7
ENDMDL
MODEL 5
REMARK VINA RESULT:    -4.080      1.578      2.482
REMARK INTER + INTRA:          -5.829
REMARK INTER:                  -5.467
REMARK INTRA:                  -0.362
REMARK UNBOUND:                -0.199
REMARK  Name = 454
REMARK  7 active torsions:
REMARK  status: ('A' for Active; 'I' for Inactive)
REMARK    1  A    between atoms: C_2  and  C_3
REMARK    2  A    between atoms: C_2  and  C_4
REMARK    3  A    between atoms: C_3  and  C_5
REMARK    4  A    between atoms: C_4  and  C_6
REMARK    5  A    between atoms: C_5  and  C_7
REMARK    6  A    between atoms: C_6  and  C_8
REMARK    7  A    between atoms: C_7  and  C_9
REMARK                            x       y       z     vdW  Elec       q    Type
REMARK                         _______ _______ _______ _____ _____    ______ ____
ROOT
ATOM      1  C   UNL     1      -3.742   6.982 -11.231  0.00  0.00    +0.000 C 
ATOM      2  H   UNL     1      -4.565   7.645 -11.523  0.00  0.00    +0.000 HD
ATOM      3  H   UNL     1      -4.152   5.966 -11.167  0.00  0.00    +0.000 HD
ENDROOT
BRANCH   1   4
ATOM      4  C   UNL     1      -2.649   7.020 -12.302  0.00  0.00    +0.000 C 
ATOM      5  H   UNL     1      -2.865   7.824 -13.016  0.00  0.00    +0.000 HD
ATOM      6  H   UNL     1      -2.669   6.080 -12.867  0.00  0.00    +0.000 HD
BRANCH   4   7
ATOM      7  C   UNL     1      -1.246   7.229 -11.729  0.00  0.00    +0.000 C 
ATOM      8  H   UNL     1      -1.317   7.409 -10.649  0.00  0.00    +0.000 HD
ATOM      9  H   UNL     1      -0.671   6.303 -11.849  0.00  0.00    +0.000 HD
BRANCH   7  10
ATOM     10  C   UNL     1      -0.488   8.379 -12.386  0.00  0.00    +0.000 C 
ATOM     11  H   UNL     1       0.592   8.256 -12.248  0.00  0.00    +0.000 HD
ATOM     12  H   UNL     1      -0.695   8.406 -13.461  0.00  0.00    +0.000 HD
BRANCH  10  14
ATOM     13  O   UNL     1      -0.939   9.978 -10.614  0.00  0.00    +0.000 OA
ATOM     14  C   UNL     1      -0.866   9.724 -11.812  0.00  0.00    +0.000 C 
ATOM     15  H   UNL     1      -1.079  10.506 -12.561  0.00  0.00    +0.000 HD
ENDBRANCH  10  14
ENDBRANCH   7  10
ENDBRANCH   4   7
ENDBRANCH   1   4
BRANCH   1  16
ATOM     16  C   UNL     1      -3.197   7.404  -9.866  0.00  0.00    +0.000 C 
ATOM     17  H   UNL     1      -3.528   8.424  -9.636  0.00  0.00    +0.000 HD
ATOM     18  H   UNL     1      -2.100   7.421  -9.899  0.00  0.00    +0.000 HD
BRANCH  16  19
ATOM     19  C   UNL     1      -3.658   6.453  -8.763  0.00  0.00    +0.000 C 
ATOM     20  H   UNL     1      -3.120   5.501  -8.845  0.00  0.00    +0.000 HD
ATOM     21  H   UNL     1      -3.419   6.877  -7.780  0.00  0.00    +0.000 HD
BRANCH  19  22
ATOM     22  C   UNL     1      -5.153   6.191  -8.840  0.00  0.00    +0.000 C 
ATOM     23  H   UNL     1      -5.576   6.039  -7.842  0.00  0.00    +0.000 HD
ATOM     24  H   UNL     1      -5.351   5.292  -9.433  0.00  0.00    +0.000 HD
ATOM     25  H   UNL     1      -5.674   7.030  -9.311  0.00  0.00    +0.000 HD
ENDBRANCH  19  22
ENDBRANCH  16  19
ENDBRANCH   1  16
TORSDOF 7
ENDMDL
MODEL 6
REMARK VINA RESULT:    -4.061     13.053     14.503
REMARK INTER + INTRA:          -5.803
REMARK INTER:                  -5.469
REMARK INTRA:                  -0.335
REMARK UNBOUND:                -0.199
REMARK  Name = 454
REMARK  7 active torsions:
REMARK  status: ('A' for Active; 'I' for Inactive)
REMARK    1  A    between atoms: C_2  and  C_3
REMARK    2  A    between atoms: C_2  and  C_4
REMARK    3  A    between atoms: C_3  and  C_5
REMARK    4  A    between atoms: C_4  and  C_6
REMARK    5  A    between atoms: C_5  and  C_7
REMARK    6  A    between atoms: C_6  and  C_8
REMARK    7  A    between atoms: C_7  and  C_9
REMARK                            x       y       z     vdW  Elec       q    Type
REMARK                         _______ _______ _______ _____ _____    ______ ____
ROOT
ATOM      1  C   UNL     1       3.947   9.493   0.322  0.00  0.00    +0.000 C 
ATOM      2  H   UNL     1       4.938   9.165  -0.013  0.00  0.00    +0.000 HD
ATOM      3  H   UNL     1       3.264   9.382  -0.529  0.00  0.00    +0.000 HD
ENDROOT
BRANCH   1   4
ATOM      4  C   UNL     1       3.472   8.602   1.473  0.00  0.00    +0.000 C 
ATOM      5  H   UNL     1       3.707   7.555   1.244  0.00  0.00    +0.000 HD
ATOM      6  H   UNL     1       2.380   8.672   1.552  0.00  0.00    +0.000 HD
BRANCH   4   7
ATOM      7  C   UNL     1       4.096   8.968   2.821  0.00  0.00    +0.000 C 
ATOM      8  H   UNL     1       4.720   9.863   2.702  0.00  0.00    +0.000 HD
ATOM      9  H   UNL     1       3.296   9.241   3.520  0.00  0.00    +0.000 HD
BRANCH   7  10
ATOM     10  C   UNL     1       4.932   7.844   3.427  0.00  0.00    +0.000 C 
ATOM     11  H   UNL     1       5.102   8.025   4.494  0.00  0.00    +0.000 HD
ATOM     12  H   UNL     1       4.414   6.885   3.321  0.00  0.00    +0.000 HD
BRANCH  10  14
ATOM     13  O   UNL     1       6.923   8.639   2.285  0.00  0.00    +0.000 OA
ATOM     14  C   UNL     1       6.285   7.710   2.770  0.00  0.00    +0.000 C 
ATOM     15  H   UNL     1       6.693   6.685   2.752  0.00  0.00    +0.000 HD
ENDBRANCH  10  14
ENDBRANCH   7  10
ENDBRANCH   4   7
ENDBRANCH   1   4
BRANCH   1  16
ATOM     16  C   UNL     1       4.006  10.962   0.746  0.00  0.00    +0.000 C 
ATOM     17  H   UNL     1       5.052  11.279   0.831  0.00  0.00    +0.000 HD
ATOM     18  H   UNL     1       3.553  11.075   1.739  0.00  0.00    +0.000 HD
BRANCH  16  19
ATOM     19  C   UNL     1       3.276  11.860  -0.252  0.00  0.00    +0.000 C 
ATOM     20  H   UNL     1       2.271  12.089   0.121  0.00  0.00    +0.000 HD
ATOM     21  H   UNL     1       3.809  12.813  -0.355  0.00  0.00    +0.000 HD
BRANCH  19  22
ATOM     22  C   UNL     1       3.165  11.202  -1.618  0.00  0.00    +0.000 C 
ATOM     23  H   UNL     1       3.943  10.444  -1.751  0.00  0.00    +0.000 HD
ATOM     24  H   UNL     1       3.281  11.949  -2.409  0.00  0.00    +0.000 HD
ATOM     25  H   UNL     1       2.191  10.721  -1.743  0.00  0.00    +0.000 HD
ENDBRANCH  19  22
ENDBRANCH  16  19
ENDBRANCH   1  16
TORSDOF 7
ENDMDL
MODEL 7
REMARK VINA RESULT:    -4.039      1.759      3.255
REMARK INTER + INTRA:          -5.772
REMARK INTER:                  -5.317
REMARK INTRA:                  -0.455
REMARK UNBOUND:                -0.199
REMARK  Name = 454
REMARK  7 active torsions:
REMARK  status: ('A' for Active; 'I' for Inactive)
REMARK    1  A    between atoms: C_2  and  C_3
REMARK    2  A    between atoms: C_2  and  C_4
REMARK    3  A    between atoms: C_3  and  C_5
REMARK    4  A    between atoms: C_4  and  C_6
REMARK    5  A    between atoms: C_5  and  C_7
REMARK    6  A    between atoms: C_6  and  C_8
REMARK    7  A    between atoms: C_7  and  C_9
REMARK                            x       y       z     vdW  Elec       q    Type
REMARK                         _______ _______ _______ _____ _____    ______ ____
ROOT
ATOM      1  C   UNL     1      -4.353   6.830 -10.006  0.00  0.00    +0.000 C 
ATOM      2  H   UNL     1      -4.780   5.869  -9.694  0.00  0.00    +0.000 HD
ATOM      3  H   UNL     1      -5.098   7.604  -9.781  0.00  0.00    +0.000 HD
ENDROOT
BRANCH   1   4
ATOM      4  C   UNL     1      -3.077   7.108  -9.208  0.00  0.00    +0.000 C 
ATOM      5  H   UNL     1      -2.211   7.077  -9.881  0.00  0.00    +0.000 HD
ATOM      6  H   UNL     1      -2.934   6.308  -8.471  0.00  0.00    +0.000 HD
BRANCH   4   7
ATOM      7  C   UNL     1      -3.094   8.457  -8.485  0.00  0.00    +0.000 C 
ATOM      8  H   UNL     1      -4.044   8.568  -7.945  0.00  0.00    +0.000 HD
ATOM      9  H   UNL     1      -2.305   8.462  -7.723  0.00  0.00    +0.000 HD
BRANCH   7  10
ATOM     10  C   UNL     1      -2.899   9.648  -9.419  0.00  0.00    +0.000 C 
ATOM     11  H   UNL     1      -3.790   9.799 -10.039  0.00  0.00    +0.000 HD
ATOM     12  H   UNL     1      -2.726  10.561  -8.840  0.00  0.00    +0.000 HD
BRANCH  10  14
ATOM     13  O   UNL     1      -0.880  10.324 -10.589  0.00  0.00    +0.000 OA
ATOM     14  C   UNL     1      -1.725   9.466 -10.351  0.00  0.00    +0.000 C 
ATOM     15  H   UNL     1      -1.660   8.473 -10.828  0.00  0.00    +0.000 HD
ENDBRANCH  10  14
ENDBRANCH   7  10
ENDBRANCH   4   7
ENDBRANCH   1   4
BRANCH   1  16
ATOM     16  C   UNL     1      -4.073   6.807 -11.510  0.00  0.00    +0.000 C 
ATOM     17  H   UNL     1      -4.085   5.771 -11.871  0.00  0.00    +0.000 HD
ATOM     18  H   UNL     1      -3.068   7.204 -11.701  0.00  0.00    +0.000 HD
BRANCH  16  19
ATOM     19  C   UNL     1      -5.102   7.632 -12.281  0.00  0.00    +0.000 C 
ATOM     20  H   UNL     1      -5.474   7.056 -13.137  0.00  0.00    +0.000 HD
ATOM     21  H   UNL     1      -5.963   7.850 -11.638  0.00  0.00    +0.000 HD
BRANCH  19  22
ATOM     22  C   UNL     1      -4.509   8.940 -12.779  0.00  0.00    +0.000 C 
ATOM     23  H   UNL     1      -4.115   8.830 -13.794  0.00  0.00    +0.000 HD
ATOM     24  H   UNL     1      -3.688   9.257 -12.128  0.00  0.00    +0.000 HD
ATOM     25  H   UNL     1      -5.262   9.734 -12.787  0.00  0.00    +0.000 HD
ENDBRANCH  19  22
ENDBRANCH  16  19
ENDBRANCH   1  16
TORSDOF 7
ENDMDL
MODEL 8
REMARK VINA RESULT:    -3.951     13.031     14.524
REMARK INTER + INTRA:          -5.651
REMARK INTER:                  -5.521
REMARK INTRA:                  -0.130
REMARK UNBOUND:                -0.199
REMARK  Name = 454
REMARK  7 active torsions:
REMARK  status: ('A' for Active; 'I' for Inactive)
REMARK    1  A    between atoms: C_2  and  C_3
REMARK    2  A    between atoms: C_2  and  C_4
REMARK    3  A    between atoms: C_3  and  C_5
REMARK    4  A    between atoms: C_4  and  C_6
REMARK    5  A    between atoms: C_5  and  C_7
REMARK    6  A    between atoms: C_6  and  C_8
REMARK    7  A    between atoms: C_7  and  C_9
REMARK                            x       y       z     vdW  Elec       q    Type
REMARK                         _______ _______ _______ _____ _____    ______ ____
ROOT
ATOM      1  C   UNL     1       7.442   9.899  -1.088  0.00  0.00    +0.000 C 
ATOM      2  H   UNL     1       7.070   8.898  -1.339  0.00  0.00    +0.000 HD
ATOM      3  H   UNL     1       8.184  10.169  -1.850  0.00  0.00    +0.000 HD
ENDROOT
BRANCH   1   4
ATOM      4  C   UNL     1       6.287  10.902  -1.128  0.00  0.00    +0.000 C 
ATOM      5  H   UNL     1       6.193  11.311  -2.142  0.00  0.00    +0.000 HD
ATOM      6  H   UNL     1       6.522  11.745  -0.467  0.00  0.00    +0.000 HD
BRANCH   4   7
ATOM      7  C   UNL     1       4.944  10.298  -0.711  0.00  0.00    +0.000 C 
ATOM      8  H   UNL     1       4.837   9.303  -1.163  0.00  0.00    +0.000 HD
ATOM      9  H   UNL     1       4.946  10.144   0.375  0.00  0.00    +0.000 HD
BRANCH   7  10
ATOM     10  C   UNL     1       3.746  11.162  -1.094  0.00  0.00    +0.000 C 
ATOM     11  H   UNL     1       4.030  11.895  -1.857  0.00  0.00    +0.000 HD
ATOM     12  H   UNL     1       2.942  10.539  -1.501  0.00  0.00    +0.000 HD
BRANCH  10  14
ATOM     13  O   UNL     1       3.179  11.524   1.240  0.00  0.00    +0.000 OA
ATOM     14  C   UNL     1       3.184  11.927   0.081  0.00  0.00    +0.000 C 
ATOM     15  H   UNL     1       2.764  12.916  -0.168  0.00  0.00    +0.000 HD
ENDBRANCH  10  14
ENDBRANCH   7  10
ENDBRANCH   4   7
ENDBRANCH   1   4
BRANCH   1  16
ATOM     16  C   UNL     1       8.107   9.873   0.289  0.00  0.00    +0.000 C 
ATOM     17  H   UNL     1       8.032  10.863   0.754  0.00  0.00    +0.000 HD
ATOM     18  H   UNL     1       9.175   9.649   0.177  0.00  0.00    +0.000 HD
BRANCH  16  19
ATOM     19  C   UNL     1       7.461   8.828   1.200  0.00  0.00    +0.000 C 
ATOM     20  H   UNL     1       6.372   8.853   1.079  0.00  0.00    +0.000 HD
ATOM     21  H   UNL     1       7.797   7.825   0.911  0.00  0.00    +0.000 HD
BRANCH  19  22
ATOM     22  C   UNL     1       7.809   9.068   2.659  0.00  0.00    +0.000 C 
ATOM     23  H   UNL     1       7.753  10.134   2.905  0.00  0.00    +0.000 HD
ATOM     24  H   UNL     1       8.827   8.724   2.869  0.00  0.00    +0.000 HD
ATOM     25  H   UNL     1       7.125   8.527   3.320  0.00  0.00    +0.000 HD
ENDBRANCH  19  22
ENDBRANCH  16  19
ENDBRANCH   1  16
TORSDOF 7
ENDMDL
MODEL 9
REMARK VINA RESULT:    -3.934      2.638      4.031
REMARK INTER + INTRA:          -5.628
REMARK INTER:                  -5.414
REMARK INTRA:                  -0.214
REMARK UNBOUND:                -0.199
REMARK  Name = 454
REMARK  7 active torsions:
REMARK  status: ('A' for Active; 'I' for Inactive)
REMARK    1  A    between atoms: C_2  and  C_3
REMARK    2  A    between atoms: C_2  and  C_4
REMARK    3  A    between atoms: C_3  and  C_5
REMARK    4  A    between atoms: C_4  and  C_6
REMARK    5  A    between atoms: C_5  and  C_7
REMARK    6  A    between atoms: C_6  and  C_8
REMARK    7  A    between atoms: C_7  and  C_9
REMARK                            x       y       z     vdW  Elec       q    Type
REMARK                         _______ _______ _______ _____ _____    ______ ____
ROOT
ATOM      1  C   UNL     1      -5.122   6.573 -10.488  0.00  0.00    +0.000 C 
ATOM      2  H   UNL     1      -5.300   7.579 -10.886  0.00  0.00    +0.000 HD
ATOM      3  H   UNL     1      -4.700   5.972 -11.302  0.00  0.00    +0.000 HD
ENDROOT
BRANCH   1   4
ATOM      4  C   UNL     1      -4.116   6.646  -9.337  0.00  0.00    +0.000 C 
ATOM      5  H   UNL     1      -3.867   5.631  -9.005  0.00  0.00    +0.000 HD
ATOM      6  H   UNL     1      -4.584   7.153  -8.484  0.00  0.00    +0.000 HD
BRANCH   4   7
ATOM      7  C   UNL     1      -2.823   7.378  -9.707  0.00  0.00    +0.000 C 
ATOM      8  H   UNL     1      -1.962   6.784  -9.375  0.00  0.00    +0.000 HD
ATOM      9  H   UNL     1      -2.751   7.441 -10.799  0.00  0.00    +0.000 HD
BRANCH   7  10
ATOM     10  C   UNL     1      -2.731   8.781  -9.115  0.00  0.00    +0.000 C 
ATOM     11  H   UNL     1      -3.718   9.123  -8.783  0.00  0.00    +0.000 HD
ATOM     12  H   UNL     1      -2.059   8.786  -8.250  0.00  0.00    +0.000 HD
BRANCH  10  14
ATOM     13  O   UNL     1      -1.028  10.089 -10.250  0.00  0.00    +0.000 OA
ATOM     14  C   UNL     1      -2.211   9.795 -10.106  0.00  0.00    +0.000 C 
ATOM     15  H   UNL     1      -2.985  10.277 -10.727  0.00  0.00    +0.000 HD
ENDBRANCH  10  14
ENDBRANCH   7  10
ENDBRANCH   4   7
ENDBRANCH   1   4
BRANCH   1  16
ATOM     16  C   UNL     1      -6.446   5.959 -10.028  0.00  0.00    +0.000 C 
ATOM     17  H   UNL     1      -6.648   5.046 -10.602  0.00  0.00    +0.000 HD
ATOM     18  H   UNL     1      -7.266   6.658 -10.236  0.00  0.00    +0.000 HD
BRANCH  16  19
ATOM     19  C   UNL     1      -6.420   5.633  -8.535  0.00  0.00    +0.000 C 
ATOM     20  H   UNL     1      -5.390   5.679  -8.163  0.00  0.00    +0.000 HD
ATOM     21  H   UNL     1      -6.999   6.381  -7.981  0.00  0.00    +0.000 HD
BRANCH  19  22
ATOM     22  C   UNL     1      -6.993   4.253  -8.255  0.00  0.00    +0.000 C 
ATOM     23  H   UNL     1      -6.222   3.582  -7.863  0.00  0.00    +0.000 HD
ATOM     24  H   UNL     1      -7.390   3.813  -9.175  0.00  0.00    +0.000 HD
ATOM     25  H   UNL     1      -7.806   4.306  -7.525  0.00  0.00    +0.000 HD
ENDBRANCH  19  22
ENDBRANCH  16  19
ENDBRANCH   1  16
TORSDOF 7
ENDMDL
MODEL 10
REMARK VINA RESULT:    -3.927     18.219     20.011
REMARK INTER + INTRA:          -5.618
REMARK INTER:                  -5.419
REMARK INTRA:                  -0.199
REMARK UNBOUND:                -0.199
REMARK  Name = 454
REMARK  7 active torsions:
REMARK  status: ('A' for Active; 'I' for Inactive)
REMARK    1  A    between atoms: C_2  and  C_3
REMARK    2  A    between atoms: C_2  and  C_4
REMARK    3  A    between atoms: C_3  and  C_5
REMARK    4  A    between atoms: C_4  and  C_6
REMARK    5  A    between atoms: C_5  and  C_7
REMARK    6  A    between atoms: C_6  and  C_8
REMARK    7  A    between atoms: C_7  and  C_9
REMARK                            x       y       z     vdW  Elec       q    Type
REMARK                         _______ _______ _______ _____ _____    ______ ____
ROOT
ATOM      1  C   UNL     1      -8.243  11.377   6.972  0.00  0.00    +0.000 C 
ATOM      2  H   UNL     1      -8.687  12.379   6.944  0.00  0.00    +0.000 HD
ATOM      3  H   UNL     1      -7.276  11.465   7.482  0.00  0.00    +0.000 HD
ENDROOT
BRANCH   1   4
ATOM      4  C   UNL     1      -9.152  10.436   7.767  0.00  0.00    +0.000 C 
ATOM      5  H   UNL     1     -10.157  10.441   7.327  0.00  0.00    +0.000 HD
ATOM      6  H   UNL     1      -9.253  10.817   8.791  0.00  0.00    +0.000 HD
BRANCH   4   7
ATOM      7  C   UNL     1      -8.639   8.995   7.817  0.00  0.00    +0.000 C 
ATOM      8  H   UNL     1      -9.487   8.304   7.730  0.00  0.00    +0.000 HD
ATOM      9  H   UNL     1      -8.003   8.814   6.942  0.00  0.00    +0.000 HD
BRANCH   7  10
ATOM     10  C   UNL     1      -7.852   8.676   9.085  0.00  0.00    +0.000 C 
ATOM     11  H   UNL     1      -7.447   7.659   9.039  0.00  0.00    +0.000 HD
ATOM     12  H   UNL     1      -7.015   9.372   9.199  0.00  0.00    +0.000 HD
BRANCH  10  14
ATOM     13  O   UNL     1      -9.002   7.815  11.045  0.00  0.00    +0.000 OA
ATOM     14  C   UNL     1      -8.700   8.768  10.331  0.00  0.00    +0.000 C 
ATOM     15  H   UNL     1      -9.047   9.784  10.583  0.00  0.00    +0.000 HD
ENDBRANCH  10  14
ENDBRANCH   7  10
ENDBRANCH   4   7
ENDBRANCH   1   4
BRANCH   1  16
ATOM     16  C   UNL     1      -8.028  10.866   5.546  0.00  0.00    +0.000 C 
ATOM     17  H   UNL     1      -8.923  10.330   5.208  0.00  0.00    +0.000 HD
ATOM     18  H   UNL     1      -7.198  10.149   5.535  0.00  0.00    +0.000 HD
BRANCH  16  19
ATOM     19  C   UNL     1      -7.723  12.014   4.584  0.00  0.00    +0.000 C 
ATOM     20  H   UNL     1      -7.329  11.613   3.642  0.00  0.00    +0.000 HD
ATOM     21  H   UNL     1      -8.646  12.556   4.345  0.00  0.00    +0.000 HD
BRANCH  19  22
ATOM     22  C   UNL     1      -6.714  12.985   5.175  0.00  0.00    +0.000 C 
ATOM     23  H   UNL     1      -5.866  12.449   5.613  0.00  0.00    +0.000 HD
ATOM     24  H   UNL     1      -7.181  13.585   5.962  0.00  0.00    +0.000 HD
ATOM     25  H   UNL     1      -6.331  13.666   4.409  0.00  0.00    +0.000 HD
ENDBRANCH  19  22
ENDBRANCH  16  19
ENDBRANCH   1  16
TORSDOF 7
ENDMDL
