MODEL 1
REMARK VINA RESULT:    -2.871      0.000      0.000
REMARK INTER + INTRA:          -2.871
REMARK INTER:                  -2.871
REMARK INTRA:                   0.000
REMARK UNBOUND:                 0.000
REMARK  Name = 9256
REMARK  0 active torsions:
REMARK  status: ('A' for Active; 'I' for Inactive)
REMARK                            x       y       z     vdW  Elec       q    Type
REMARK                         _______ _______ _______ _____ _____    ______ ____
ROOT
ATOM      1  S   UNL     1       5.149  10.877  -0.527  0.00  0.00    +0.000 S 
ATOM      2  N   UNL     1       3.275  11.313   1.200  0.00  0.00    +0.000 NA
ATOM      3  C   UNL     1       4.724   9.600   0.536  0.00  0.00    +0.000 A 
ATOM      4  C   UNL     1       3.714  10.015   1.378  0.00  0.00    +0.000 A 
ATOM      5  C   UNL     1       3.961  11.863   0.223  0.00  0.00    +0.000 A 
ATOM      6  H   UNL     1       5.217   8.639   0.496  0.00  0.00    +0.000 HD
ATOM      7  H   UNL     1       3.258   9.405   2.146  0.00  0.00    +0.000 HD
ATOM      8  H   UNL     1       3.790  12.882  -0.097  0.00  0.00    +0.000 HD
ENDROOT
TORSDOF 0
ENDMDL
MODEL 2
REMARK VINA RESULT:    -2.862      0.958      1.750
REMARK INTER + INTRA:          -2.862
REMARK INTER:                  -2.862
REMARK INTRA:                   0.000
REMARK UNBOUND:                 0.000
REMARK  Name = 9256
REMARK  0 active torsions:
REMARK  status: ('A' for Active; 'I' for Inactive)
REMARK                            x       y       z     vdW  Elec       q    Type
REMARK                         _______ _______ _______ _____ _____    ______ ____
ROOT
ATOM      1  S   UNL     1       4.966   9.548   0.345  0.00  0.00    +0.000 S 
ATOM      2  N   UNL     1       3.283  11.303   1.220  0.00  0.00    +0.000 NA
ATOM      3  C   UNL     1       4.839  11.033  -0.505  0.00  0.00    +0.000 A 
ATOM      4  C   UNL     1       3.899  11.836   0.104  0.00  0.00    +0.000 A 
ATOM      5  C   UNL     1       3.767  10.102   1.440  0.00  0.00    +0.000 A 
ATOM      6  H   UNL     1       5.438  11.239  -1.381  0.00  0.00    +0.000 HD
ATOM      7  H   UNL     1       3.623  12.828  -0.228  0.00  0.00    +0.000 HD
ATOM      8  H   UNL     1       3.432   9.489   2.267  0.00  0.00    +0.000 HD
ENDROOT
TORSDOF 0
ENDMDL
MODEL 3
REMARK VINA RESULT:    -2.682     29.095     29.620
REMARK INTER + INTRA:          -2.682
REMARK INTER:                  -2.682
REMARK INTRA:                   0.000
REMARK UNBOUND:                 0.000
REMARK  Name = 9256
REMARK  0 active torsions:
REMARK  status: ('A' for Active; 'I' for Inactive)
REMARK                            x       y       z     vdW  Elec       q    Type
REMARK                         _______ _______ _______ _____ _____    ______ ____
ROOT
ATOM      1  S   UNL     1      -9.645 -12.001  16.123  0.00  0.00    +0.000 S 
ATOM      2  N   UNL     1     -10.446  -9.736  15.169  0.00  0.00    +0.000 NA
ATOM      3  C   UNL     1      -8.698 -11.266  14.896  0.00  0.00    +0.000 A 
ATOM      4  C   UNL     1      -9.278 -10.075  14.515  0.00  0.00    +0.000 A 
ATOM      5  C   UNL     1     -10.735 -10.678  16.039  0.00  0.00    +0.000 A 
ATOM      6  H   UNL     1      -7.793 -11.726  14.524  0.00  0.00    +0.000 HD
ATOM      7  H   UNL     1      -8.885  -9.409  13.758  0.00  0.00    +0.000 HD
ATOM      8  H   UNL     1     -11.612 -10.628  16.671  0.00  0.00    +0.000 HD
ENDROOT
TORSDOF 0
ENDMDL
MODEL 4
REMARK VINA RESULT:    -2.659     12.656     12.816
REMARK INTER + INTRA:          -2.659
REMARK INTER:                  -2.659
REMARK INTRA:                   0.000
REMARK UNBOUND:                 0.000
REMARK  Name = 9256
REMARK  0 active torsions:
REMARK  status: ('A' for Active; 'I' for Inactive)
REMARK                            x       y       z     vdW  Elec       q    Type
REMARK                         _______ _______ _______ _____ _____    ______ ____
ROOT
ATOM      1  S   UNL     1      -2.436   7.175 -10.995  0.00  0.00    +0.000 S 
ATOM      2  N   UNL     1      -3.190   7.891  -8.628  0.00  0.00    +0.000 NA
ATOM      3  C   UNL     1      -2.058   8.767 -10.479  0.00  0.00    +0.000 A 
ATOM      4  C   UNL     1      -2.536   8.965  -9.201  0.00  0.00    +0.000 A 
ATOM      5  C   UNL     1      -3.197   6.893  -9.483  0.00  0.00    +0.000 A 
ATOM      6  H   UNL     1      -1.523   9.459 -11.114  0.00  0.00    +0.000 HD
ATOM      7  H   UNL     1      -2.433   9.882  -8.636  0.00  0.00    +0.000 HD
ATOM      8  H   UNL     1      -3.657   5.941  -9.252  0.00  0.00    +0.000 HD
ENDROOT
TORSDOF 0
ENDMDL
MODEL 5
REMARK VINA RESULT:    -2.594     12.582     12.739
REMARK INTER + INTRA:          -2.594
REMARK INTER:                  -2.594
REMARK INTRA:                   0.000
REMARK UNBOUND:                 0.000
REMARK  Name = 9256
REMARK  0 active torsions:
REMARK  status: ('A' for Active; 'I' for Inactive)
REMARK                            x       y       z     vdW  Elec       q    Type
REMARK                         _______ _______ _______ _____ _____    ______ ____
ROOT
ATOM      1  S   UNL     1      -1.662   9.787 -10.524  0.00  0.00    +0.000 S 
ATOM      2  N   UNL     1      -2.645   7.408 -10.284  0.00  0.00    +0.000 NA
ATOM      3  C   UNL     1      -2.560   9.428  -9.107  0.00  0.00    +0.000 A 
ATOM      4  C   UNL     1      -3.001   8.123  -9.156  0.00  0.00    +0.000 A 
ATOM      5  C   UNL     1      -1.938   8.184 -11.073  0.00  0.00    +0.000 A 
ATOM      6  H   UNL     1      -2.718  10.165  -8.333  0.00  0.00    +0.000 HD
ATOM      7  H   UNL     1      -3.590   7.639  -8.389  0.00  0.00    +0.000 HD
ATOM      8  H   UNL     1      -1.547   7.838 -12.021  0.00  0.00    +0.000 HD
ENDROOT
TORSDOF 0
ENDMDL
MODEL 6
REMARK VINA RESULT:    -2.501     28.738     29.197
REMARK INTER + INTRA:          -2.501
REMARK INTER:                  -2.501
REMARK INTRA:                   0.000
REMARK UNBOUND:                 0.000
REMARK  Name = 9256
REMARK  0 active torsions:
REMARK  status: ('A' for Active; 'I' for Inactive)
REMARK                            x       y       z     vdW  Elec       q    Type
REMARK                         _______ _______ _______ _____ _____    ______ ____
ROOT
ATOM      1  S   UNL     1     -22.300  -2.204   8.304  0.00  0.00    +0.000 S 
ATOM      2  N   UNL     1     -20.458  -1.947   6.509  0.00  0.00    +0.000 NA
ATOM      3  C   UNL     1     -21.538  -0.675   8.149  0.00  0.00    +0.000 A 
ATOM      4  C   UNL     1     -20.590  -0.730   7.149  0.00  0.00    +0.000 A 
ATOM      5  C   UNL     1     -21.309  -2.799   7.036  0.00  0.00    +0.000 A 
ATOM      6  H   UNL     1     -21.809   0.162   8.777  0.00  0.00    +0.000 HD
ATOM      7  H   UNL     1     -19.964   0.098   6.843  0.00  0.00    +0.000 HD
ATOM      8  H   UNL     1     -21.385  -3.822   6.692  0.00  0.00    +0.000 HD
ENDROOT
TORSDOF 0
ENDMDL
MODEL 7
REMARK VINA RESULT:    -2.478     12.659     12.882
REMARK INTER + INTRA:          -2.478
REMARK INTER:                  -2.478
REMARK INTRA:                   0.000
REMARK UNBOUND:                 0.000
REMARK  Name = 9256
REMARK  0 active torsions:
REMARK  status: ('A' for Active; 'I' for Inactive)
REMARK                            x       y       z     vdW  Elec       q    Type
REMARK                         _______ _______ _______ _____ _____    ______ ____
ROOT
ATOM      1  S   UNL     1      -2.042   7.662 -11.275  0.00  0.00    +0.000 S 
ATOM      2  N   UNL     1      -2.084   9.587  -9.550  0.00  0.00    +0.000 NA
ATOM      3  C   UNL     1      -1.112   9.063 -11.612  0.00  0.00    +0.000 A 
ATOM      4  C   UNL     1      -1.257   9.974 -10.588  0.00  0.00    +0.000 A 
ATOM      5  C   UNL     1      -2.553   8.386  -9.806  0.00  0.00    +0.000 A 
ATOM      6  H   UNL     1      -0.523   9.151 -12.515  0.00  0.00    +0.000 HD
ATOM      7  H   UNL     1      -0.778  10.942 -10.547  0.00  0.00    +0.000 HD
ATOM      8  H   UNL     1      -3.226   7.876  -9.129  0.00  0.00    +0.000 HD
ENDROOT
TORSDOF 0
ENDMDL
MODEL 8
REMARK VINA RESULT:    -2.401     18.556     18.627
REMARK INTER + INTRA:          -2.401
REMARK INTER:                  -2.401
REMARK INTRA:                   0.000
REMARK UNBOUND:                 0.000
REMARK  Name = 9256
REMARK  0 active torsions:
REMARK  status: ('A' for Active; 'I' for Inactive)
REMARK                            x       y       z     vdW  Elec       q    Type
REMARK                         _______ _______ _______ _____ _____    ______ ____
ROOT
ATOM      1  S   UNL     1       2.766   0.456 -14.382  0.00  0.00    +0.000 S 
ATOM      2  N   UNL     1       5.089  -0.677 -14.417  0.00  0.00    +0.000 NA
ATOM      3  C   UNL     1       2.922  -1.080 -13.633  0.00  0.00    +0.000 A 
ATOM      4  C   UNL     1       4.223  -1.522 -13.751  0.00  0.00    +0.000 A 
ATOM      5  C   UNL     1       4.430   0.396 -14.794  0.00  0.00    +0.000 A 
ATOM      6  H   UNL     1       2.083  -1.569 -13.158  0.00  0.00    +0.000 HD
ATOM      7  H   UNL     1       4.595  -2.461 -13.365  0.00  0.00    +0.000 HD
ATOM      8  H   UNL     1       4.907   1.202 -15.337  0.00  0.00    +0.000 HD
ENDROOT
TORSDOF 0
ENDMDL
MODEL 9
REMARK VINA RESULT:    -2.324      1.806      2.277
REMARK INTER + INTRA:          -2.324
REMARK INTER:                  -2.324
REMARK INTRA:                   0.000
REMARK UNBOUND:                 0.000
REMARK  Name = 9256
REMARK  0 active torsions:
REMARK  status: ('A' for Active; 'I' for Inactive)
REMARK                            x       y       z     vdW  Elec       q    Type
REMARK                         _______ _______ _______ _____ _____    ______ ____
ROOT
ATOM      1  S   UNL     1       3.890  11.639   0.281  0.00  0.00    +0.000 S 
ATOM      2  N   UNL     1       5.037   9.326   0.421  0.00  0.00    +0.000 NA
ATOM      3  C   UNL     1       5.592  11.572   0.078  0.00  0.00    +0.000 A 
ATOM      4  C   UNL     1       6.021  10.266   0.184  0.00  0.00    +0.000 A 
ATOM      5  C   UNL     1       3.875   9.935   0.491  0.00  0.00    +0.000 A 
ATOM      6  H   UNL     1       6.178  12.463  -0.102  0.00  0.00    +0.000 HD
ATOM      7  H   UNL     1       7.049   9.943   0.095  0.00  0.00    +0.000 HD
ATOM      8  H   UNL     1       2.953   9.397   0.671  0.00  0.00    +0.000 HD
ENDROOT
TORSDOF 0
ENDMDL
MODEL 10
REMARK VINA RESULT:    -2.282     28.559     28.991
REMARK INTER + INTRA:          -2.282
REMARK INTER:                  -2.282
REMARK INTRA:                   0.000
REMARK UNBOUND:                 0.000
REMARK  Name = 9256
REMARK  0 active torsions:
REMARK  status: ('A' for Active; 'I' for Inactive)
REMARK                            x       y       z     vdW  Elec       q    Type
REMARK                         _______ _______ _______ _____ _____    ______ ____
ROOT
ATOM      1  S   UNL     1     -15.826  -5.137  15.303  0.00  0.00    +0.000 S 
ATOM      2  N   UNL     1     -13.284  -5.564  15.487  0.00  0.00    +0.000 NA
ATOM      3  C   UNL     1     -15.250  -6.715  14.957  0.00  0.00    +0.000 A 
ATOM      4  C   UNL     1     -13.880  -6.751  15.107  0.00  0.00    +0.000 A 
ATOM      5  C   UNL     1     -14.213  -4.645  15.620  0.00  0.00    +0.000 A 
ATOM      6  H   UNL     1     -15.919  -7.514  14.670  0.00  0.00    +0.000 HD
ATOM      7  H   UNL     1     -13.263  -7.626  14.952  0.00  0.00    +0.000 HD
ATOM      8  H   UNL     1     -13.980  -3.629  15.912  0.00  0.00    +0.000 HD
ENDROOT
TORSDOF 0
ENDMDL
