MODEL 1
REMARK VINA RESULT:    -5.540      0.000      0.000
REMARK INTER + INTRA:          -6.687
REMARK INTER:                  -6.523
REMARK INTRA:                  -0.165
REMARK UNBOUND:                -0.176
REMARK  Name = 637563
REMARK  4 active torsions:
REMARK  status: ('A' for Active; 'I' for Inactive)
REMARK    1  A    between atoms: O_1  and  C_5
REMARK    2  A    between atoms: O_1  and  C_11
REMARK    3  A    between atoms: C_2  and  C_8
REMARK    4  A    between atoms: C_9  and  C_10
REMARK                            x       y       z     vdW  Elec       q    Type
REMARK                         _______ _______ _______ _____ _____    ______ ____
ROOT
ATOM      1  C   UNL     1      -3.258   7.319  -9.512  0.00  0.00    +0.000 A 
ATOM      2  C   UNL     1      -2.676   6.812 -10.674  0.00  0.00    +0.000 A 
ATOM      3  C   UNL     1      -2.936   8.604  -9.075  0.00  0.00    +0.000 A 
ATOM      4  C   UNL     1      -1.451   8.875 -10.961  0.00  0.00    +0.000 A 
ATOM      5  C   UNL     1      -1.772   7.590 -11.399  0.00  0.00    +0.000 A 
ATOM      6  C   UNL     1      -2.033   9.382  -9.799  0.00  0.00    +0.000 A 
ATOM      7  H   UNL     1      -2.880   5.811 -11.042  0.00  0.00    +0.000 HD
ATOM      8  H   UNL     1      -3.381   9.015  -8.172  0.00  0.00    +0.000 HD
ATOM      9  H   UNL     1      -1.318   7.188 -12.300  0.00  0.00    +0.000 HD
ATOM     10  H   UNL     1      -1.828  10.370  -9.403  0.00  0.00    +0.000 HD
ENDROOT
BRANCH   1  11
ATOM     11  C   UNL     1      -4.199   6.508  -8.757  0.00  0.00    +0.000 C 
ATOM     12  C   UNL     1      -5.425   6.120  -9.176  0.00  0.00    +0.000 C 
ATOM     13  H   UNL     1      -3.874   6.207  -7.763  0.00  0.00    +0.000 HD
ATOM     14  H   UNL     1      -5.807   6.416 -10.148  0.00  0.00    +0.000 HD
BRANCH  12  15
ATOM     15  C   UNL     1      -6.364   5.292  -8.360  0.00  0.00    +0.000 C 
ATOM     16  H   UNL     1      -6.906   4.596  -9.007  0.00  0.00    +0.000 HD
ATOM     17  H   UNL     1      -5.803   4.711  -7.621  0.00  0.00    +0.000 HD
ATOM     18  H   UNL     1      -7.098   5.904  -7.827  0.00  0.00    +0.000 HD
ENDBRANCH  12  15
ENDBRANCH   1  11
BRANCH   4  19
ATOM     19  O   UNL     1      -0.568   9.633 -11.667  0.00  0.00    +0.000 OA
BRANCH  19  20
ATOM     20  C   UNL     1      -0.560   9.470 -13.084  0.00  0.00    +0.000 C 
ATOM     21  H   UNL     1      -1.380  10.022 -13.558  0.00  0.00    +0.000 HD
ATOM     22  H   UNL     1      -0.555   8.412 -13.367  0.00  0.00    +0.000 HD
ATOM     23  H   UNL     1       0.374   9.905 -13.454  0.00  0.00    +0.000 HD
ENDBRANCH  19  20
ENDBRANCH   4  19
TORSDOF 4
ENDMDL
MODEL 2
REMARK VINA RESULT:    -5.198     14.161     15.332
REMARK INTER + INTRA:          -6.286
REMARK INTER:                  -6.130
REMARK INTRA:                  -0.155
REMARK UNBOUND:                -0.176
REMARK  Name = 637563
REMARK  4 active torsions:
REMARK  status: ('A' for Active; 'I' for Inactive)
REMARK    1  A    between atoms: O_1  and  C_5
REMARK    2  A    between atoms: O_1  and  C_11
REMARK    3  A    between atoms: C_2  and  C_8
REMARK    4  A    between atoms: C_9  and  C_10
REMARK                            x       y       z     vdW  Elec       q    Type
REMARK                         _______ _______ _______ _____ _____    ______ ____
ROOT
ATOM      1  C   UNL     1       4.569   9.107   1.320  0.00  0.00    +0.000 A 
ATOM      2  C   UNL     1       3.902   9.078   2.545  0.00  0.00    +0.000 A 
ATOM      3  C   UNL     1       5.910   8.725   1.247  0.00  0.00    +0.000 A 
ATOM      4  C   UNL     1       5.914   8.285   3.623  0.00  0.00    +0.000 A 
ATOM      5  C   UNL     1       4.574   8.666   3.696  0.00  0.00    +0.000 A 
ATOM      6  C   UNL     1       6.581   8.314   2.398  0.00  0.00    +0.000 A 
ATOM      7  H   UNL     1       2.866   9.385   2.654  0.00  0.00    +0.000 HD
ATOM      8  H   UNL     1       6.445   8.741   0.301  0.00  0.00    +0.000 HD
ATOM      9  H   UNL     1       4.050   8.650   4.648  0.00  0.00    +0.000 HD
ATOM     10  H   UNL     1       7.620   8.032   2.271  0.00  0.00    +0.000 HD
ENDROOT
BRANCH   1  11
ATOM     11  C   UNL     1       3.870   9.537   0.120  0.00  0.00    +0.000 C 
ATOM     12  C   UNL     1       3.895  10.781  -0.409  0.00  0.00    +0.000 C 
ATOM     13  H   UNL     1       3.269   8.778  -0.375  0.00  0.00    +0.000 HD
ATOM     14  H   UNL     1       4.458  11.582   0.061  0.00  0.00    +0.000 HD
BRANCH  12  15
ATOM     15  C   UNL     1       3.151  11.180  -1.642  0.00  0.00    +0.000 C 
ATOM     16  H   UNL     1       2.133  10.782  -1.609  0.00  0.00    +0.000 HD
ATOM     17  H   UNL     1       3.093  12.272  -1.704  0.00  0.00    +0.000 HD
ATOM     18  H   UNL     1       3.632  10.812  -2.553  0.00  0.00    +0.000 HD
ENDBRANCH  12  15
ENDBRANCH   1  11
BRANCH   4  19
ATOM     19  O   UNL     1       6.569   7.884   4.746  0.00  0.00    +0.000 OA
BRANCH  19  20
ATOM     20  C   UNL     1       7.573   8.759   5.259  0.00  0.00    +0.000 C 
ATOM     21  H   UNL     1       8.565   8.504   4.872  0.00  0.00    +0.000 HD
ATOM     22  H   UNL     1       7.552   8.798   6.353  0.00  0.00    +0.000 HD
ATOM     23  H   UNL     1       7.338   9.766   4.899  0.00  0.00    +0.000 HD
ENDBRANCH  19  20
ENDBRANCH   4  19
TORSDOF 4
ENDMDL
MODEL 3
REMARK VINA RESULT:    -5.160      1.786      5.316
REMARK INTER + INTRA:          -6.241
REMARK INTER:                  -6.069
REMARK INTRA:                  -0.172
REMARK UNBOUND:                -0.176
REMARK  Name = 637563
REMARK  4 active torsions:
REMARK  status: ('A' for Active; 'I' for Inactive)
REMARK    1  A    between atoms: O_1  and  C_5
REMARK    2  A    between atoms: O_1  and  C_11
REMARK    3  A    between atoms: C_2  and  C_8
REMARK    4  A    between atoms: C_9  and  C_10
REMARK                            x       y       z     vdW  Elec       q    Type
REMARK                         _______ _______ _______ _____ _____    ______ ____
ROOT
ATOM      1  C   UNL     1      -1.528   8.665 -11.227  0.00  0.00    +0.000 A 
ATOM      2  C   UNL     1      -1.971   9.387 -10.119  0.00  0.00    +0.000 A 
ATOM      3  C   UNL     1      -1.929   7.340 -11.402  0.00  0.00    +0.000 A 
ATOM      4  C   UNL     1      -3.217   7.461  -9.361  0.00  0.00    +0.000 A 
ATOM      5  C   UNL     1      -2.816   8.786  -9.186  0.00  0.00    +0.000 A 
ATOM      6  C   UNL     1      -2.774   6.738 -10.468  0.00  0.00    +0.000 A 
ATOM      7  H   UNL     1      -1.669  10.413  -9.932  0.00  0.00    +0.000 HD
ATOM      8  H   UNL     1      -1.595   6.762 -12.260  0.00  0.00    +0.000 HD
ATOM      9  H   UNL     1      -3.154   9.351  -8.323  0.00  0.00    +0.000 HD
ATOM     10  H   UNL     1      -3.046   5.707 -10.665  0.00  0.00    +0.000 HD
ENDROOT
BRANCH   1  11
ATOM     11  C   UNL     1      -0.647   9.291 -12.200  0.00  0.00    +0.000 C 
ATOM     12  C   UNL     1      -0.325   8.791 -13.414  0.00  0.00    +0.000 C 
ATOM     13  H   UNL     1      -0.210  10.241 -11.901  0.00  0.00    +0.000 HD
ATOM     14  H   UNL     1      -0.713   7.834 -13.750  0.00  0.00    +0.000 HD
BRANCH  12  15
ATOM     15  C   UNL     1       0.594   9.466 -14.380  0.00  0.00    +0.000 C 
ATOM     16  H   UNL     1       0.627  10.540 -14.173  0.00  0.00    +0.000 HD
ATOM     17  H   UNL     1       1.606   9.063 -14.275  0.00  0.00    +0.000 HD
ATOM     18  H   UNL     1       0.277   9.328 -15.418  0.00  0.00    +0.000 HD
ENDBRANCH  12  15
ENDBRANCH   1  11
BRANCH   4  19
ATOM     19  O   UNL     1      -4.040   6.874  -8.450  0.00  0.00    +0.000 OA
BRANCH  19  20
ATOM     20  C   UNL     1      -5.177   6.177  -8.956  0.00  0.00    +0.000 C 
ATOM     21  H   UNL     1      -5.001   5.803  -9.971  0.00  0.00    +0.000 HD
ATOM     22  H   UNL     1      -6.085   6.786  -8.890  0.00  0.00    +0.000 HD
ATOM     23  H   UNL     1      -5.332   5.302  -8.316  0.00  0.00    +0.000 HD
ENDBRANCH  19  20
ENDBRANCH   4  19
TORSDOF 4
ENDMDL
MODEL 4
REMARK VINA RESULT:    -4.904     16.258     17.303
REMARK INTER + INTRA:          -5.940
REMARK INTER:                  -5.784
REMARK INTRA:                  -0.156
REMARK UNBOUND:                -0.176
REMARK  Name = 637563
REMARK  4 active torsions:
REMARK  status: ('A' for Active; 'I' for Inactive)
REMARK    1  A    between atoms: O_1  and  C_5
REMARK    2  A    between atoms: O_1  and  C_11
REMARK    3  A    between atoms: C_2  and  C_8
REMARK    4  A    between atoms: C_9  and  C_10
REMARK                            x       y       z     vdW  Elec       q    Type
REMARK                         _______ _______ _______ _____ _____    ______ ____
ROOT
ATOM      1  C   UNL     1       6.844   8.585   4.603  0.00  0.00    +0.000 A 
ATOM      2  C   UNL     1       7.298   8.572   3.285  0.00  0.00    +0.000 A 
ATOM      3  C   UNL     1       5.475   8.624   4.869  0.00  0.00    +0.000 A 
ATOM      4  C   UNL     1       5.015   8.638   2.497  0.00  0.00    +0.000 A 
ATOM      5  C   UNL     1       6.384   8.599   2.231  0.00  0.00    +0.000 A 
ATOM      6  C   UNL     1       4.561   8.650   3.816  0.00  0.00    +0.000 A 
ATOM      7  H   UNL     1       8.354   8.563   3.030  0.00  0.00    +0.000 HD
ATOM      8  H   UNL     1       5.103   8.633   5.891  0.00  0.00    +0.000 HD
ATOM      9  H   UNL     1       6.743   8.594   1.206  0.00  0.00    +0.000 HD
ATOM     10  H   UNL     1       3.513   8.680   4.093  0.00  0.00    +0.000 HD
ENDROOT
BRANCH   1  11
ATOM     11  C   UNL     1       7.797   8.558   5.702  0.00  0.00    +0.000 C 
ATOM     12  C   UNL     1       7.978   9.536   6.617  0.00  0.00    +0.000 C 
ATOM     13  H   UNL     1       8.418   7.667   5.769  0.00  0.00    +0.000 HD
ATOM     14  H   UNL     1       7.403  10.456   6.579  0.00  0.00    +0.000 HD
BRANCH  12  15
ATOM     15  C   UNL     1       8.978   9.469   7.726  0.00  0.00    +0.000 C 
ATOM     16  H   UNL     1       8.623  10.049   8.583  0.00  0.00    +0.000 HD
ATOM     17  H   UNL     1       9.111   8.430   8.044  0.00  0.00    +0.000 HD
ATOM     18  H   UNL     1       9.954   9.863   7.427  0.00  0.00    +0.000 HD
ENDBRANCH  12  15
ENDBRANCH   1  11
BRANCH   4  19
ATOM     19  O   UNL     1       4.123   8.665   1.470  0.00  0.00    +0.000 OA
BRANCH  19  20
ATOM     20  C   UNL     1       3.686   9.947   1.022  0.00  0.00    +0.000 C 
ATOM     21  H   UNL     1       3.379  10.582   1.861  0.00  0.00    +0.000 HD
ATOM     22  H   UNL     1       2.906   9.863   0.259  0.00  0.00    +0.000 HD
ATOM     23  H   UNL     1       4.545  10.434   0.550  0.00  0.00    +0.000 HD
ENDBRANCH  19  20
ENDBRANCH   4  19
TORSDOF 4
ENDMDL
MODEL 5
REMARK VINA RESULT:    -4.862     13.780     14.779
REMARK INTER + INTRA:          -5.891
REMARK INTER:                  -5.714
REMARK INTRA:                  -0.177
REMARK UNBOUND:                -0.176
REMARK  Name = 637563
REMARK  4 active torsions:
REMARK  status: ('A' for Active; 'I' for Inactive)
REMARK    1  A    between atoms: O_1  and  C_5
REMARK    2  A    between atoms: O_1  and  C_11
REMARK    3  A    between atoms: C_2  and  C_8
REMARK    4  A    between atoms: C_9  and  C_10
REMARK                            x       y       z     vdW  Elec       q    Type
REMARK                         _______ _______ _______ _____ _____    ______ ____
ROOT
ATOM      1  C   UNL     1       6.954  10.100  -0.424  0.00  0.00    +0.000 A 
ATOM      2  C   UNL     1       6.504   8.983   0.280  0.00  0.00    +0.000 A 
ATOM      3  C   UNL     1       6.192  11.268  -0.440  0.00  0.00    +0.000 A 
ATOM      4  C   UNL     1       4.530  10.203   0.953  0.00  0.00    +0.000 A 
ATOM      5  C   UNL     1       5.292   9.034   0.969  0.00  0.00    +0.000 A 
ATOM      6  C   UNL     1       4.981  11.320   0.249  0.00  0.00    +0.000 A 
ATOM      7  H   UNL     1       7.053   8.046   0.304  0.00  0.00    +0.000 HD
ATOM      8  H   UNL     1       6.529  12.148  -0.982  0.00  0.00    +0.000 HD
ATOM      9  H   UNL     1       4.944   8.160   1.511  0.00  0.00    +0.000 HD
ATOM     10  H   UNL     1       4.439  12.258   0.195  0.00  0.00    +0.000 HD
ENDROOT
BRANCH   1  11
ATOM     11  C   UNL     1       8.217  10.046  -1.142  0.00  0.00    +0.000 C 
ATOM     12  C   UNL     1       9.033   8.971  -1.232  0.00  0.00    +0.000 C 
ATOM     13  H   UNL     1       8.521  10.967  -1.636  0.00  0.00    +0.000 HD
ATOM     14  H   UNL     1       8.789   8.036  -0.737  0.00  0.00    +0.000 HD
BRANCH  12  15
ATOM     15  C   UNL     1      10.329   8.965  -1.976  0.00  0.00    +0.000 C 
ATOM     16  H   UNL     1      10.141   8.975  -3.054  0.00  0.00    +0.000 HD
ATOM     17  H   UNL     1      10.910   9.856  -1.719  0.00  0.00    +0.000 HD
ATOM     18  H   UNL     1      10.935   8.084  -1.744  0.00  0.00    +0.000 HD
ENDBRANCH  12  15
ENDBRANCH   1  11
BRANCH   4  19
ATOM     19  O   UNL     1       3.347  10.253   1.624  0.00  0.00    +0.000 OA
BRANCH  19  20
ATOM     20  C   UNL     1       3.213   9.410   2.767  0.00  0.00    +0.000 C 
ATOM     21  H   UNL     1       2.864   8.409   2.490  0.00  0.00    +0.000 HD
ATOM     22  H   UNL     1       2.583   9.870   3.536  0.00  0.00    +0.000 HD
ATOM     23  H   UNL     1       4.211   9.292   3.200  0.00  0.00    +0.000 HD
ENDBRANCH  19  20
ENDBRANCH   4  19
TORSDOF 4
ENDMDL
MODEL 6
REMARK VINA RESULT:    -4.840      1.494      2.581
REMARK INTER + INTRA:          -5.865
REMARK INTER:                  -5.689
REMARK INTRA:                  -0.175
REMARK UNBOUND:                -0.176
REMARK  Name = 637563
REMARK  4 active torsions:
REMARK  status: ('A' for Active; 'I' for Inactive)
REMARK    1  A    between atoms: O_1  and  C_5
REMARK    2  A    between atoms: O_1  and  C_11
REMARK    3  A    between atoms: C_2  and  C_8
REMARK    4  A    between atoms: C_9  and  C_10
REMARK                            x       y       z     vdW  Elec       q    Type
REMARK                         _______ _______ _______ _____ _____    ______ ____
ROOT
ATOM      1  C   UNL     1      -2.188   7.611 -11.756  0.00  0.00    +0.000 A 
ATOM      2  C   UNL     1      -1.893   7.082 -13.013  0.00  0.00    +0.000 A 
ATOM      3  C   UNL     1      -1.518   8.748 -11.303  0.00  0.00    +0.000 A 
ATOM      4  C   UNL     1      -0.258   8.827 -13.364  0.00  0.00    +0.000 A 
ATOM      5  C   UNL     1      -0.928   7.690 -13.817  0.00  0.00    +0.000 A 
ATOM      6  C   UNL     1      -0.553   9.355 -12.107  0.00  0.00    +0.000 A 
ATOM      7  H   UNL     1      -2.374   6.189 -13.399  0.00  0.00    +0.000 HD
ATOM      8  H   UNL     1      -1.735   9.173 -10.327  0.00  0.00    +0.000 HD
ATOM      9  H   UNL     1      -0.700   7.272 -14.793  0.00  0.00    +0.000 HD
ATOM     10  H   UNL     1      -0.071  10.234 -11.693  0.00  0.00    +0.000 HD
ENDROOT
BRANCH   1  11
ATOM     11  C   UNL     1      -3.193   6.977 -10.918  0.00  0.00    +0.000 C 
ATOM     12  C   UNL     1      -3.262   7.054  -9.570  0.00  0.00    +0.000 C 
ATOM     13  H   UNL     1      -3.940   6.384 -11.440  0.00  0.00    +0.000 HD
ATOM     14  H   UNL     1      -2.526   7.611  -8.999  0.00  0.00    +0.000 HD
BRANCH  12  15
ATOM     15  C   UNL     1      -4.310   6.377  -8.746  0.00  0.00    +0.000 C 
ATOM     16  H   UNL     1      -4.483   6.942  -7.826  0.00  0.00    +0.000 HD
ATOM     17  H   UNL     1      -5.250   6.332  -9.305  0.00  0.00    +0.000 HD
ATOM     18  H   UNL     1      -4.026   5.357  -8.473  0.00  0.00    +0.000 HD
ENDBRANCH  12  15
ENDBRANCH   1  11
BRANCH   4  19
ATOM     19  O   UNL     1       0.684   9.419 -14.147  0.00  0.00    +0.000 OA
BRANCH  19  20
ATOM     20  C   UNL     1       0.648   9.122 -15.542  0.00  0.00    +0.000 C 
ATOM     21  H   UNL     1       1.641   8.858 -15.923  0.00  0.00    +0.000 HD
ATOM     22  H   UNL     1       0.186   9.932 -16.115  0.00  0.00    +0.000 HD
ATOM     23  H   UNL     1       0.013   8.238 -15.668  0.00  0.00    +0.000 HD
ENDBRANCH  19  20
ENDBRANCH   4  19
TORSDOF 4
ENDMDL
MODEL 7
REMARK VINA RESULT:    -4.807     16.737     18.350
REMARK INTER + INTRA:          -5.826
REMARK INTER:                  -5.660
REMARK INTRA:                  -0.167
REMARK UNBOUND:                -0.176
REMARK  Name = 637563
REMARK  4 active torsions:
REMARK  status: ('A' for Active; 'I' for Inactive)
REMARK    1  A    between atoms: O_1  and  C_5
REMARK    2  A    between atoms: O_1  and  C_11
REMARK    3  A    between atoms: C_2  and  C_8
REMARK    4  A    between atoms: C_9  and  C_10
REMARK                            x       y       z     vdW  Elec       q    Type
REMARK                         _______ _______ _______ _____ _____    ______ ____
ROOT
ATOM      1  C   UNL     1      -6.977  13.162   5.686  0.00  0.00    +0.000 A 
ATOM      2  C   UNL     1      -7.320  12.160   4.778  0.00  0.00    +0.000 A 
ATOM      3  C   UNL     1      -7.299  13.019   7.036  0.00  0.00    +0.000 A 
ATOM      4  C   UNL     1      -8.306  10.873   6.569  0.00  0.00    +0.000 A 
ATOM      5  C   UNL     1      -7.984  11.016   5.219  0.00  0.00    +0.000 A 
ATOM      6  C   UNL     1      -7.963  11.875   7.477  0.00  0.00    +0.000 A 
ATOM      7  H   UNL     1      -7.108  12.237   3.716  0.00  0.00    +0.000 HD
ATOM      8  H   UNL     1      -7.039  13.790   7.758  0.00  0.00    +0.000 HD
ATOM      9  H   UNL     1      -8.252  10.241   4.507  0.00  0.00    +0.000 HD
ATOM     10  H   UNL     1      -8.183  11.828   8.538  0.00  0.00    +0.000 HD
ENDROOT
BRANCH   1  11
ATOM     11  C   UNL     1      -6.286  14.356   5.226  0.00  0.00    +0.000 C 
ATOM     12  C   UNL     1      -6.781  15.614   5.243  0.00  0.00    +0.000 C 
ATOM     13  H   UNL     1      -5.286  14.200   4.827  0.00  0.00    +0.000 HD
ATOM     14  H   UNL     1      -7.783  15.820   5.607  0.00  0.00    +0.000 HD
BRANCH  12  15
ATOM     15  C   UNL     1      -6.036  16.812   4.751  0.00  0.00    +0.000 C 
ATOM     16  H   UNL     1      -5.315  16.514   3.984  0.00  0.00    +0.000 HD
ATOM     17  H   UNL     1      -6.735  17.529   4.307  0.00  0.00    +0.000 HD
ATOM     18  H   UNL     1      -5.492  17.319   5.553  0.00  0.00    +0.000 HD
ENDBRANCH  12  15
ENDBRANCH   1  11
BRANCH   4  19
ATOM     19  O   UNL     1      -8.955   9.757   6.999  0.00  0.00    +0.000 OA
BRANCH  19  20
ATOM     20  C   UNL     1      -8.808   9.410   8.376  0.00  0.00    +0.000 C 
ATOM     21  H   UNL     1      -9.776   9.199   8.842  0.00  0.00    +0.000 HD
ATOM     22  H   UNL     1      -8.240  10.169   8.924  0.00  0.00    +0.000 HD
ATOM     23  H   UNL     1      -8.225   8.484   8.415  0.00  0.00    +0.000 HD
ENDBRANCH  19  20
ENDBRANCH   4  19
TORSDOF 4
ENDMDL
MODEL 8
REMARK VINA RESULT:    -4.801      8.561      9.242
REMARK INTER + INTRA:          -5.819
REMARK INTER:                  -5.663
REMARK INTRA:                  -0.156
REMARK UNBOUND:                -0.176
REMARK  Name = 637563
REMARK  4 active torsions:
REMARK  status: ('A' for Active; 'I' for Inactive)
REMARK    1  A    between atoms: O_1  and  C_5
REMARK    2  A    between atoms: O_1  and  C_11
REMARK    3  A    between atoms: C_2  and  C_8
REMARK    4  A    between atoms: C_9  and  C_10
REMARK                            x       y       z     vdW  Elec       q    Type
REMARK                         _______ _______ _______ _____ _____    ______ ____
ROOT
ATOM      1  C   UNL     1      -0.327  -0.467 -12.138  0.00  0.00    +0.000 A 
ATOM      2  C   UNL     1       0.169  -1.607 -12.771  0.00  0.00    +0.000 A 
ATOM      3  C   UNL     1       0.475   0.668 -12.018  0.00  0.00    +0.000 A 
ATOM      4  C   UNL     1       2.268  -0.477 -13.164  0.00  0.00    +0.000 A 
ATOM      5  C   UNL     1       1.466  -1.612 -13.284  0.00  0.00    +0.000 A 
ATOM      6  C   UNL     1       1.772   0.663 -12.531  0.00  0.00    +0.000 A 
ATOM      7  H   UNL     1      -0.411  -2.520 -12.869  0.00  0.00    +0.000 HD
ATOM      8  H   UNL     1       0.105   1.566 -11.529  0.00  0.00    +0.000 HD
ATOM      9  H   UNL     1       1.849  -2.504 -13.771  0.00  0.00    +0.000 HD
ATOM     10  H   UNL     1       2.341   1.578 -12.403  0.00  0.00    +0.000 HD
ENDROOT
BRANCH   1  11
ATOM     11  C   UNL     1      -1.678  -0.462 -11.602  0.00  0.00    +0.000 C 
ATOM     12  C   UNL     1      -2.012  -0.539 -10.294  0.00  0.00    +0.000 C 
ATOM     13  H   UNL     1      -2.479  -0.401 -12.336  0.00  0.00    +0.000 HD
ATOM     14  H   UNL     1      -1.253  -0.628  -9.523  0.00  0.00    +0.000 HD
BRANCH  12  15
ATOM     15  C   UNL     1      -3.419  -0.539  -9.789  0.00  0.00    +0.000 C 
ATOM     16  H   UNL     1      -3.438  -0.225  -8.741  0.00  0.00    +0.000 HD
ATOM     17  H   UNL     1      -4.023   0.164 -10.370  0.00  0.00    +0.000 HD
ATOM     18  H   UNL     1      -3.883  -1.527  -9.858  0.00  0.00    +0.000 HD
ENDBRANCH  12  15
ENDBRANCH   1  11
BRANCH   4  19
ATOM     19  O   UNL     1       3.534  -0.482 -13.664  0.00  0.00    +0.000 OA
BRANCH  19  20
ATOM     20  C   UNL     1       3.775   0.303 -14.830  0.00  0.00    +0.000 C 
ATOM     21  H   UNL     1       4.799   0.692 -14.850  0.00  0.00    +0.000 HD
ATOM     22  H   UNL     1       3.028   1.096 -14.943  0.00  0.00    +0.000 HD
ATOM     23  H   UNL     1       3.669  -0.361 -15.694  0.00  0.00    +0.000 HD
ENDBRANCH  19  20
ENDBRANCH   4  19
TORSDOF 4
ENDMDL
MODEL 9
REMARK VINA RESULT:    -4.584     18.603     19.485
REMARK INTER + INTRA:          -5.564
REMARK INTER:                  -5.410
REMARK INTRA:                  -0.154
REMARK UNBOUND:                -0.176
REMARK  Name = 637563
REMARK  4 active torsions:
REMARK  status: ('A' for Active; 'I' for Inactive)
REMARK    1  A    between atoms: O_1  and  C_5
REMARK    2  A    between atoms: O_1  and  C_11
REMARK    3  A    between atoms: C_2  and  C_8
REMARK    4  A    between atoms: C_9  and  C_10
REMARK                            x       y       z     vdW  Elec       q    Type
REMARK                         _______ _______ _______ _____ _____    ______ ____
ROOT
ATOM      1  C   UNL     1       7.714   9.222   5.549  0.00  0.00    +0.000 A 
ATOM      2  C   UNL     1       8.775   9.756   4.817  0.00  0.00    +0.000 A 
ATOM      3  C   UNL     1       7.290   9.849   6.720  0.00  0.00    +0.000 A 
ATOM      4  C   UNL     1       8.986  11.545   6.427  0.00  0.00    +0.000 A 
ATOM      5  C   UNL     1       9.411  10.917   5.256  0.00  0.00    +0.000 A 
ATOM      6  C   UNL     1       7.926  11.010   7.159  0.00  0.00    +0.000 A 
ATOM      7  H   UNL     1       9.153   9.292   3.911  0.00  0.00    +0.000 HD
ATOM      8  H   UNL     1       6.464   9.447   7.302  0.00  0.00    +0.000 HD
ATOM      9  H   UNL     1      10.239  11.326   4.685  0.00  0.00    +0.000 HD
ATOM     10  H   UNL     1       7.546  11.446   8.077  0.00  0.00    +0.000 HD
ENDROOT
BRANCH   1  11
ATOM     11  C   UNL     1       7.052   8.011   5.092  0.00  0.00    +0.000 C 
ATOM     12  C   UNL     1       6.131   7.936   4.104  0.00  0.00    +0.000 C 
ATOM     13  H   UNL     1       7.327   7.095   5.611  0.00  0.00    +0.000 HD
ATOM     14  H   UNL     1       5.803   8.824   3.572  0.00  0.00    +0.000 HD
BRANCH  12  15
ATOM     15  C   UNL     1       5.468   6.668   3.673  0.00  0.00    +0.000 C 
ATOM     16  H   UNL     1       5.528   6.567   2.585  0.00  0.00    +0.000 HD
ATOM     17  H   UNL     1       5.974   5.811   4.128  0.00  0.00    +0.000 HD
ATOM     18  H   UNL     1       4.413   6.635   3.961  0.00  0.00    +0.000 HD
ENDBRANCH  12  15
ENDBRANCH   1  11
BRANCH   4  19
ATOM     19  O   UNL     1       9.607  12.677   6.856  0.00  0.00    +0.000 OA
BRANCH  19  20
ATOM     20  C   UNL     1       9.082  13.920   6.394  0.00  0.00    +0.000 C 
ATOM     21  H   UNL     1       8.915  13.909   5.311  0.00  0.00    +0.000 HD
ATOM     22  H   UNL     1       9.706  14.763   6.708  0.00  0.00    +0.000 HD
ATOM     23  H   UNL     1       8.104  14.053   6.866  0.00  0.00    +0.000 HD
ENDBRANCH  19  20
ENDBRANCH   4  19
TORSDOF 4
ENDMDL
MODEL 10
REMARK VINA RESULT:    -4.546     26.281     26.777
REMARK INTER + INTRA:          -5.519
REMARK INTER:                  -5.343
REMARK INTRA:                  -0.176
REMARK UNBOUND:                -0.176
REMARK  Name = 637563
REMARK  4 active torsions:
REMARK  status: ('A' for Active; 'I' for Inactive)
REMARK    1  A    between atoms: O_1  and  C_5
REMARK    2  A    between atoms: O_1  and  C_11
REMARK    3  A    between atoms: C_2  and  C_8
REMARK    4  A    between atoms: C_9  and  C_10
REMARK                            x       y       z     vdW  Elec       q    Type
REMARK                         _______ _______ _______ _____ _____    ______ ____
ROOT
ATOM      1  C   UNL     1      12.504  -5.677   7.499  0.00  0.00    +0.000 A 
ATOM      2  C   UNL     1      12.132  -4.458   6.934  0.00  0.00    +0.000 A 
ATOM      3  C   UNL     1      13.796  -6.169   7.307  0.00  0.00    +0.000 A 
ATOM      4  C   UNL     1      14.341  -4.222   5.983  0.00  0.00    +0.000 A 
ATOM      5  C   UNL     1      13.049  -3.730   6.176  0.00  0.00    +0.000 A 
ATOM      6  C   UNL     1      14.713  -5.442   6.549  0.00  0.00    +0.000 A 
ATOM      7  H   UNL     1      11.133  -4.045   7.040  0.00  0.00    +0.000 HD
ATOM      8  H   UNL     1      14.104  -7.117   7.741  0.00  0.00    +0.000 HD
ATOM      9  H   UNL     1      12.752  -2.783   5.734  0.00  0.00    +0.000 HD
ATOM     10  H   UNL     1      15.699  -5.882   6.439  0.00  0.00    +0.000 HD
ENDROOT
BRANCH   1  11
ATOM     11  C   UNL     1      11.548  -6.436   8.288  0.00  0.00    +0.000 C 
ATOM     12  C   UNL     1      10.203  -6.400   8.152  0.00  0.00    +0.000 C 
ATOM     13  H   UNL     1      11.971  -7.076   9.059  0.00  0.00    +0.000 HD
ATOM     14  H   UNL     1       9.728  -5.758   7.416  0.00  0.00    +0.000 HD
BRANCH  12  15
ATOM     15  C   UNL     1       9.256  -7.192   8.994  0.00  0.00    +0.000 C 
ATOM     16  H   UNL     1       8.341  -6.617   9.168  0.00  0.00    +0.000 HD
ATOM     17  H   UNL     1       8.987  -8.120   8.479  0.00  0.00    +0.000 HD
ATOM     18  H   UNL     1       9.685  -7.453   9.966  0.00  0.00    +0.000 HD
ENDBRANCH  12  15
ENDBRANCH   1  11
BRANCH   4  19
ATOM     19  O   UNL     1      15.236  -3.513   5.243  0.00  0.00    +0.000 OA
BRANCH  19  20
ATOM     20  C   UNL     1      16.563  -4.030   5.160  0.00  0.00    +0.000 C 
ATOM     21  H   UNL     1      16.589  -4.989   4.632  0.00  0.00    +0.000 HD
ATOM     22  H   UNL     1      17.037  -4.085   6.145  0.00  0.00    +0.000 HD
ATOM     23  H   UNL     1      17.148  -3.322   4.564  0.00  0.00    +0.000 HD
ENDBRANCH  19  20
ENDBRANCH   4  19
TORSDOF 4
ENDMDL
