MODEL 1
REMARK VINA RESULT:    -4.669      0.000      0.000
REMARK INTER + INTRA:          -8.240
REMARK INTER:                  -7.248
REMARK INTRA:                  -0.993
REMARK UNBOUND:                -0.978
REMARK  Name = 8186
REMARK  10 active torsions:
REMARK  status: ('A' for Active; 'I' for Inactive)
REMARK    1  A    between atoms: C_2  and  C_3
REMARK    2  A    between atoms: C_2  and  C_4
REMARK    3  A    between atoms: C_3  and  C_5
REMARK    4  A    between atoms: C_4  and  C_6
REMARK    5  A    between atoms: C_5  and  C_7
REMARK    6  A    between atoms: C_6  and  C_8
REMARK    7  A    between atoms: C_7  and  C_9
REMARK    8  A    between atoms: C_8  and  C_10
REMARK    9  A    between atoms: C_9  and  C_11
REMARK   10  A    between atoms: C_10  and  C_12
REMARK                            x       y       z     vdW  Elec       q    Type
REMARK                         _______ _______ _______ _____ _____    ______ ____
ROOT
ATOM      1  C   UNL     1       7.980   9.067  -0.292  0.00  0.00    +0.000 C 
ATOM      2  H   UNL     1       8.887   8.502  -0.539  0.00  0.00    +0.000 HD
ATOM      3  H   UNL     1       7.155   8.344  -0.261  0.00  0.00    +0.000 HD
ENDROOT
BRANCH   1   4
ATOM      4  C   UNL     1       7.706  10.091  -1.395  0.00  0.00    +0.000 C 
ATOM      5  H   UNL     1       8.657  10.504  -1.752  0.00  0.00    +0.000 HD
ATOM      6  H   UNL     1       7.242   9.581  -2.249  0.00  0.00    +0.000 HD
BRANCH   4   7
ATOM      7  C   UNL     1       6.798  11.240  -0.944  0.00  0.00    +0.000 C 
ATOM      8  H   UNL     1       7.132  11.595   0.039  0.00  0.00    +0.000 HD
ATOM      9  H   UNL     1       6.915  12.081  -1.640  0.00  0.00    +0.000 HD
BRANCH   7  10
ATOM     10  C   UNL     1       5.321  10.851  -0.860  0.00  0.00    +0.000 C 
ATOM     11  H   UNL     1       4.820  11.103  -1.803  0.00  0.00    +0.000 HD
ATOM     12  H   UNL     1       5.238   9.765  -0.730  0.00  0.00    +0.000 HD
BRANCH  10  13
ATOM     13  C   UNL     1       4.625  11.564   0.299  0.00  0.00    +0.000 C 
ATOM     14  H   UNL     1       5.135  12.510   0.516  0.00  0.00    +0.000 HD
ATOM     15  H   UNL     1       4.684  10.949   1.205  0.00  0.00    +0.000 HD
BRANCH  13  16
ATOM     16  C   UNL     1       3.164  11.845  -0.015  0.00  0.00    +0.000 C 
ATOM     17  H   UNL     1       2.725  11.030  -0.599  0.00  0.00    +0.000 HD
ATOM     18  H   UNL     1       2.590  11.948   0.911  0.00  0.00    +0.000 HD
ATOM     19  H   UNL     1       3.058  12.773  -0.586  0.00  0.00    +0.000 HD
ENDBRANCH  13  16
ENDBRANCH  10  13
ENDBRANCH   7  10
ENDBRANCH   4   7
ENDBRANCH   1   4
BRANCH   1  20
ATOM     20  C   UNL     1       8.144   9.699   1.095  0.00  0.00    +0.000 C 
ATOM     21  H   UNL     1       9.214   9.792   1.320  0.00  0.00    +0.000 HD
ATOM     22  H   UNL     1       7.736  10.717   1.073  0.00  0.00    +0.000 HD
BRANCH  20  23
ATOM     23  C   UNL     1       7.459   8.905   2.209  0.00  0.00    +0.000 C 
ATOM     24  H   UNL     1       8.115   8.089   2.535  0.00  0.00    +0.000 HD
ATOM     25  H   UNL     1       7.299   9.558   3.076  0.00  0.00    +0.000 HD
BRANCH  23  26
ATOM     26  C   UNL     1       6.121   8.333   1.739  0.00  0.00    +0.000 C 
ATOM     27  H   UNL     1       5.772   8.891   0.860  0.00  0.00    +0.000 HD
ATOM     28  H   UNL     1       6.262   7.294   1.418  0.00  0.00    +0.000 HD
BRANCH  26  29
ATOM     29  C   UNL     1       5.070   8.401   2.841  0.00  0.00    +0.000 C 
ATOM     30  H   UNL     1       5.232   9.273   3.484  0.00  0.00    +0.000 HD
ATOM     31  H   UNL     1       5.097   7.499   3.461  0.00  0.00    +0.000 HD
BRANCH  29  33
ATOM     32  O   UNL     1       2.895   9.392   2.547  0.00  0.00    +0.000 OA
ATOM     33  C   UNL     1       3.694   8.512   2.241  0.00  0.00    +0.000 C 
ATOM     34  H   UNL     1       3.433   7.740   1.498  0.00  0.00    +0.000 HD
ENDBRANCH  29  33
ENDBRANCH  26  29
ENDBRANCH  23  26
ENDBRANCH  20  23
ENDBRANCH   1  20
TORSDOF 10
ENDMDL
MODEL 2
REMARK VINA RESULT:    -4.641      1.544      4.394
REMARK INTER + INTRA:          -8.196
REMARK INTER:                  -7.698
REMARK INTRA:                  -0.499
REMARK UNBOUND:                -0.978
REMARK  Name = 8186
REMARK  10 active torsions:
REMARK  status: ('A' for Active; 'I' for Inactive)
REMARK    1  A    between atoms: C_2  and  C_3
REMARK    2  A    between atoms: C_2  and  C_4
REMARK    3  A    between atoms: C_3  and  C_5
REMARK    4  A    between atoms: C_4  and  C_6
REMARK    5  A    between atoms: C_5  and  C_7
REMARK    6  A    between atoms: C_6  and  C_8
REMARK    7  A    between atoms: C_7  and  C_9
REMARK    8  A    between atoms: C_8  and  C_10
REMARK    9  A    between atoms: C_9  and  C_11
REMARK   10  A    between atoms: C_10  and  C_12
REMARK                            x       y       z     vdW  Elec       q    Type
REMARK                         _______ _______ _______ _____ _____    ______ ____
ROOT
ATOM      1  C   UNL     1       7.691   9.481   0.718  0.00  0.00    +0.000 C 
ATOM      2  H   UNL     1       8.729   9.349   1.046  0.00  0.00    +0.000 HD
ATOM      3  H   UNL     1       7.300  10.358   1.248  0.00  0.00    +0.000 HD
ENDROOT
BRANCH   1   4
ATOM      4  C   UNL     1       6.875   8.249   1.118  0.00  0.00    +0.000 C 
ATOM      5  H   UNL     1       6.068   8.096   0.392  0.00  0.00    +0.000 HD
ATOM      6  H   UNL     1       7.519   7.362   1.067  0.00  0.00    +0.000 HD
BRANCH   4   7
ATOM      7  C   UNL     1       6.273   8.352   2.523  0.00  0.00    +0.000 C 
ATOM      8  H   UNL     1       6.930   8.967   3.150  0.00  0.00    +0.000 HD
ATOM      9  H   UNL     1       5.311   8.879   2.461  0.00  0.00    +0.000 HD
BRANCH   7  10
ATOM     10  C   UNL     1       6.064   6.994   3.196  0.00  0.00    +0.000 C 
ATOM     11  H   UNL     1       5.044   6.641   3.004  0.00  0.00    +0.000 HD
ATOM     12  H   UNL     1       6.749   6.260   2.754  0.00  0.00    +0.000 HD
BRANCH  10  13
ATOM     13  C   UNL     1       6.303   7.080   4.704  0.00  0.00    +0.000 C 
ATOM     14  H   UNL     1       6.927   6.240   5.031  0.00  0.00    +0.000 HD
ATOM     15  H   UNL     1       5.349   7.003   5.238  0.00  0.00    +0.000 HD
BRANCH  13  16
ATOM     16  C   UNL     1       6.982   8.386   5.087  0.00  0.00    +0.000 C 
ATOM     17  H   UNL     1       6.340   9.243   4.860  0.00  0.00    +0.000 HD
ATOM     18  H   UNL     1       7.201   8.399   6.159  0.00  0.00    +0.000 HD
ATOM     19  H   UNL     1       7.925   8.510   4.545  0.00  0.00    +0.000 HD
ENDBRANCH  13  16
ENDBRANCH  10  13
ENDBRANCH   7  10
ENDBRANCH   4   7
ENDBRANCH   1   4
BRANCH   1  20
ATOM     20  C   UNL     1       7.671   9.756  -0.790  0.00  0.00    +0.000 C 
ATOM     21  H   UNL     1       8.703   9.771  -1.163  0.00  0.00    +0.000 HD
ATOM     22  H   UNL     1       7.163   8.928  -1.297  0.00  0.00    +0.000 HD
BRANCH  20  23
ATOM     23  C   UNL     1       6.981  11.072  -1.157  0.00  0.00    +0.000 C 
ATOM     24  H   UNL     1       7.727  11.873  -1.217  0.00  0.00    +0.000 HD
ATOM     25  H   UNL     1       6.525  10.979  -2.149  0.00  0.00    +0.000 HD
BRANCH  23  26
ATOM     26  C   UNL     1       5.910  11.440  -0.129  0.00  0.00    +0.000 C 
ATOM     27  H   UNL     1       6.105  10.907   0.811  0.00  0.00    +0.000 HD
ATOM     28  H   UNL     1       5.975  12.512   0.096  0.00  0.00    +0.000 HD
BRANCH  26  29
ATOM     29  C   UNL     1       4.514  11.096  -0.635  0.00  0.00    +0.000 C 
ATOM     30  H   UNL     1       4.349  10.014  -0.628  0.00  0.00    +0.000 HD
ATOM     31  H   UNL     1       4.366  11.466  -1.655  0.00  0.00    +0.000 HD
BRANCH  29  33
ATOM     32  O   UNL     1       3.241  11.364   1.392  0.00  0.00    +0.000 OA
ATOM     33  C   UNL     1       3.471  11.733   0.244  0.00  0.00    +0.000 C 
ATOM     34  H   UNL     1       2.909  12.567  -0.208  0.00  0.00    +0.000 HD
ENDBRANCH  29  33
ENDBRANCH  26  29
ENDBRANCH  23  26
ENDBRANCH  20  23
ENDBRANCH   1  20
TORSDOF 10
ENDMDL
MODEL 3
REMARK VINA RESULT:    -4.470     13.451     15.328
REMARK INTER + INTRA:          -7.930
REMARK INTER:                  -7.119
REMARK INTRA:                  -0.811
REMARK UNBOUND:                -0.978
REMARK  Name = 8186
REMARK  10 active torsions:
REMARK  status: ('A' for Active; 'I' for Inactive)
REMARK    1  A    between atoms: C_2  and  C_3
REMARK    2  A    between atoms: C_2  and  C_4
REMARK    3  A    between atoms: C_3  and  C_5
REMARK    4  A    between atoms: C_4  and  C_6
REMARK    5  A    between atoms: C_5  and  C_7
REMARK    6  A    between atoms: C_6  and  C_8
REMARK    7  A    between atoms: C_7  and  C_9
REMARK    8  A    between atoms: C_8  and  C_10
REMARK    9  A    between atoms: C_9  and  C_11
REMARK   10  A    between atoms: C_10  and  C_12
REMARK                            x       y       z     vdW  Elec       q    Type
REMARK                         _______ _______ _______ _____ _____    ______ ____
ROOT
ATOM      1  C   UNL     1      -2.783   9.591  -9.493  0.00  0.00    +0.000 C 
ATOM      2  H   UNL     1      -3.099  10.504  -8.974  0.00  0.00    +0.000 HD
ATOM      3  H   UNL     1      -3.389   9.519 -10.404  0.00  0.00    +0.000 HD
ENDROOT
BRANCH   1   4
ATOM      4  C   UNL     1      -3.070   8.379  -8.603  0.00  0.00    +0.000 C 
ATOM      5  H   UNL     1      -2.314   8.323  -7.810  0.00  0.00    +0.000 HD
ATOM      6  H   UNL     1      -4.039   8.522  -8.107  0.00  0.00    +0.000 HD
BRANCH   4   7
ATOM      7  C   UNL     1      -3.090   7.054  -9.372  0.00  0.00    +0.000 C 
ATOM      8  H   UNL     1      -2.435   7.139 -10.247  0.00  0.00    +0.000 HD
ATOM      9  H   UNL     1      -2.667   6.266  -8.736  0.00  0.00    +0.000 HD
BRANCH   7  10
ATOM     10  C   UNL     1      -4.489   6.639  -9.832  0.00  0.00    +0.000 C 
ATOM     11  H   UNL     1      -4.649   5.576  -9.613  0.00  0.00    +0.000 HD
ATOM     12  H   UNL     1      -5.240   7.203  -9.265  0.00  0.00    +0.000 HD
BRANCH  10  13
ATOM     13  C   UNL     1      -4.678   6.890 -11.329  0.00  0.00    +0.000 C 
ATOM     14  H   UNL     1      -5.194   7.845 -11.485  0.00  0.00    +0.000 HD
ATOM     15  H   UNL     1      -5.310   6.105 -11.762  0.00  0.00    +0.000 HD
BRANCH  13  16
ATOM     16  C   UNL     1      -3.346   6.915 -12.062  0.00  0.00    +0.000 C 
ATOM     17  H   UNL     1      -2.527   6.624 -11.397  0.00  0.00    +0.000 HD
ATOM     18  H   UNL     1      -3.364   6.218 -12.905  0.00  0.00    +0.000 HD
ATOM     19  H   UNL     1      -3.133   7.915 -12.452  0.00  0.00    +0.000 HD
ENDBRANCH  13  16
ENDBRANCH  10  13
ENDBRANCH   7  10
ENDBRANCH   4   7
ENDBRANCH   1   4
BRANCH   1  20
ATOM     20  C   UNL     1      -1.306   9.720  -9.882  0.00  0.00    +0.000 C 
ATOM     21  H   UNL     1      -0.815  10.417  -9.191  0.00  0.00    +0.000 HD
ATOM     22  H   UNL     1      -0.816   8.747  -9.752  0.00  0.00    +0.000 HD
BRANCH  20  23
ATOM     23  C   UNL     1      -1.097  10.202 -11.320  0.00  0.00    +0.000 C 
ATOM     24  H   UNL     1      -2.062  10.487 -11.755  0.00  0.00    +0.000 HD
ATOM     25  H   UNL     1      -0.466  11.098 -11.315  0.00  0.00    +0.000 HD
BRANCH  23  26
ATOM     26  C   UNL     1      -0.446   9.115 -12.177  0.00  0.00    +0.000 C 
ATOM     27  H   UNL     1       0.643   9.152 -12.051  0.00  0.00    +0.000 HD
ATOM     28  H   UNL     1      -0.772   8.129 -11.824  0.00  0.00    +0.000 HD
BRANCH  26  29
ATOM     29  C   UNL     1      -0.800   9.285 -13.650  0.00  0.00    +0.000 C 
ATOM     30  H   UNL     1      -1.250  10.266 -13.835  0.00  0.00    +0.000 HD
ATOM     31  H   UNL     1      -1.502   8.511 -13.975  0.00  0.00    +0.000 HD
BRANCH  29  33
ATOM     32  O   UNL     1       1.076  10.145 -14.892  0.00  0.00    +0.000 OA
ATOM     33  C   UNL     1       0.439   9.172 -14.498  0.00  0.00    +0.000 C 
ATOM     34  H   UNL     1       0.749   8.147 -14.757  0.00  0.00    +0.000 HD
ENDBRANCH  29  33
ENDBRANCH  26  29
ENDBRANCH  23  26
ENDBRANCH  20  23
ENDBRANCH   1  20
TORSDOF 10
ENDMDL
MODEL 4
REMARK VINA RESULT:    -4.468      1.725      3.806
REMARK INTER + INTRA:          -7.927
REMARK INTER:                  -6.889
REMARK INTRA:                  -1.037
REMARK UNBOUND:                -0.978
REMARK  Name = 8186
REMARK  10 active torsions:
REMARK  status: ('A' for Active; 'I' for Inactive)
REMARK    1  A    between atoms: C_2  and  C_3
REMARK    2  A    between atoms: C_2  and  C_4
REMARK    3  A    between atoms: C_3  and  C_5
REMARK    4  A    between atoms: C_4  and  C_6
REMARK    5  A    between atoms: C_5  and  C_7
REMARK    6  A    between atoms: C_6  and  C_8
REMARK    7  A    between atoms: C_7  and  C_9
REMARK    8  A    between atoms: C_8  and  C_10
REMARK    9  A    between atoms: C_9  and  C_11
REMARK   10  A    between atoms: C_10  and  C_12
REMARK                            x       y       z     vdW  Elec       q    Type
REMARK                         _______ _______ _______ _____ _____    ______ ____
ROOT
ATOM      1  C   UNL     1       6.297   7.434   2.506  0.00  0.00    +0.000 C 
ATOM      2  H   UNL     1       6.783   6.512   2.847  0.00  0.00    +0.000 HD
ATOM      3  H   UNL     1       6.141   7.329   1.425  0.00  0.00    +0.000 HD
ENDROOT
BRANCH   1   4
ATOM      4  C   UNL     1       7.228   8.621   2.764  0.00  0.00    +0.000 C 
ATOM      5  H   UNL     1       6.724   9.344   3.418  0.00  0.00    +0.000 HD
ATOM      6  H   UNL     1       8.115   8.268   3.307  0.00  0.00    +0.000 HD
BRANCH   4   7
ATOM      7  C   UNL     1       7.675   9.331   1.482  0.00  0.00    +0.000 C 
ATOM      8  H   UNL     1       7.352  10.378   1.522  0.00  0.00    +0.000 HD
ATOM      9  H   UNL     1       8.772   9.340   1.443  0.00  0.00    +0.000 HD
BRANCH   7  10
ATOM     10  C   UNL     1       7.127   8.686   0.207  0.00  0.00    +0.000 C 
ATOM     11  H   UNL     1       7.682   7.764  -0.006  0.00  0.00    +0.000 HD
ATOM     12  H   UNL     1       6.079   8.404   0.364  0.00  0.00    +0.000 HD
BRANCH  10  13
ATOM     13  C   UNL     1       7.233   9.637  -0.985  0.00  0.00    +0.000 C 
ATOM     14  H   UNL     1       6.534  10.473  -0.858  0.00  0.00    +0.000 HD
ATOM     15  H   UNL     1       6.950   9.115  -1.906  0.00  0.00    +0.000 HD
BRANCH  13  16
ATOM     16  C   UNL     1       8.643  10.184  -1.138  0.00  0.00    +0.000 C 
ATOM     17  H   UNL     1       8.997  10.624  -0.201  0.00  0.00    +0.000 HD
ATOM     18  H   UNL     1       9.332   9.382  -1.420  0.00  0.00    +0.000 HD
ATOM     19  H   UNL     1       8.682  10.954  -1.916  0.00  0.00    +0.000 HD
ENDBRANCH  13  16
ENDBRANCH  10  13
ENDBRANCH   7  10
ENDBRANCH   4   7
ENDBRANCH   1   4
BRANCH   1  20
ATOM     20  C   UNL     1       4.937   7.570   3.198  0.00  0.00    +0.000 C 
ATOM     21  H   UNL     1       4.255   6.809   2.799  0.00  0.00    +0.000 HD
ATOM     22  H   UNL     1       5.057   7.357   4.268  0.00  0.00    +0.000 HD
BRANCH  20  23
ATOM     23  C   UNL     1       4.305   8.955   3.029  0.00  0.00    +0.000 C 
ATOM     24  H   UNL     1       3.592   9.134   3.842  0.00  0.00    +0.000 HD
ATOM     25  H   UNL     1       5.084   9.722   3.105  0.00  0.00    +0.000 HD
BRANCH  23  26
ATOM     26  C   UNL     1       3.591   9.075   1.682  0.00  0.00    +0.000 C 
ATOM     27  H   UNL     1       3.918   8.264   1.019  0.00  0.00    +0.000 HD
ATOM     28  H   UNL     1       2.511   8.946   1.830  0.00  0.00    +0.000 HD
BRANCH  26  29
ATOM     29  C   UNL     1       3.871  10.421   1.024  0.00  0.00    +0.000 C 
ATOM     30  H   UNL     1       4.923  10.702   1.138  0.00  0.00    +0.000 HD
ATOM     31  H   UNL     1       3.249  11.207   1.464  0.00  0.00    +0.000 HD
BRANCH  29  33
ATOM     32  O   UNL     1       4.017  11.146  -1.268  0.00  0.00    +0.000 OA
ATOM     33  C   UNL     1       3.562  10.355  -0.448  0.00  0.00    +0.000 C 
ATOM     34  H   UNL     1       2.886   9.540  -0.758  0.00  0.00    +0.000 HD
ENDBRANCH  29  33
ENDBRANCH  26  29
ENDBRANCH  23  26
ENDBRANCH  20  23
ENDBRANCH   1  20
TORSDOF 10
ENDMDL
MODEL 5
REMARK VINA RESULT:    -4.427      1.928      3.558
REMARK INTER + INTRA:          -7.863
REMARK INTER:                  -7.128
REMARK INTRA:                  -0.735
REMARK UNBOUND:                -0.978
REMARK  Name = 8186
REMARK  10 active torsions:
REMARK  status: ('A' for Active; 'I' for Inactive)
REMARK    1  A    between atoms: C_2  and  C_3
REMARK    2  A    between atoms: C_2  and  C_4
REMARK    3  A    between atoms: C_3  and  C_5
REMARK    4  A    between atoms: C_4  and  C_6
REMARK    5  A    between atoms: C_5  and  C_7
REMARK    6  A    between atoms: C_6  and  C_8
REMARK    7  A    between atoms: C_7  and  C_9
REMARK    8  A    between atoms: C_8  and  C_10
REMARK    9  A    between atoms: C_9  and  C_11
REMARK   10  A    between atoms: C_10  and  C_12
REMARK                            x       y       z     vdW  Elec       q    Type
REMARK                         _______ _______ _______ _____ _____    ______ ____
ROOT
ATOM      1  C   UNL     1       3.830  10.699   1.036  0.00  0.00    +0.000 C 
ATOM      2  H   UNL     1       2.741  10.744   0.917  0.00  0.00    +0.000 HD
ATOM      3  H   UNL     1       4.055  11.086   2.037  0.00  0.00    +0.000 HD
ENDROOT
BRANCH   1   4
ATOM      4  C   UNL     1       4.490  11.600  -0.010  0.00  0.00    +0.000 C 
ATOM      5  H   UNL     1       4.146  11.309  -1.010  0.00  0.00    +0.000 HD
ATOM      6  H   UNL     1       4.160  12.634   0.150  0.00  0.00    +0.000 HD
BRANCH   4   7
ATOM      7  C   UNL     1       6.021  11.550   0.028  0.00  0.00    +0.000 C 
ATOM      8  H   UNL     1       6.405  12.544   0.288  0.00  0.00    +0.000 HD
ATOM      9  H   UNL     1       6.337  10.869   0.830  0.00  0.00    +0.000 HD
BRANCH   7  10
ATOM     10  C   UNL     1       6.648  11.101  -1.294  0.00  0.00    +0.000 C 
ATOM     11  H   UNL     1       5.965  10.416  -1.811  0.00  0.00    +0.000 HD
ATOM     12  H   UNL     1       6.786  11.972  -1.946  0.00  0.00    +0.000 HD
BRANCH  10  13
ATOM     13  C   UNL     1       7.992  10.410  -1.064  0.00  0.00    +0.000 C 
ATOM     14  H   UNL     1       8.811  11.101  -1.298  0.00  0.00    +0.000 HD
ATOM     15  H   UNL     1       8.091   9.551  -1.737  0.00  0.00    +0.000 HD
BRANCH  13  16
ATOM     16  C   UNL     1       8.135   9.934   0.373  0.00  0.00    +0.000 C 
ATOM     17  H   UNL     1       8.044   8.845   0.436  0.00  0.00    +0.000 HD
ATOM     18  H   UNL     1       9.115  10.217   0.771  0.00  0.00    +0.000 HD
ATOM     19  H   UNL     1       7.367  10.381   1.012  0.00  0.00    +0.000 HD
ENDBRANCH  13  16
ENDBRANCH  10  13
ENDBRANCH   7  10
ENDBRANCH   4   7
ENDBRANCH   1   4
BRANCH   1  20
ATOM     20  C   UNL     1       4.284   9.237   0.950  0.00  0.00    +0.000 C 
ATOM     21  H   UNL     1       3.550   8.670   0.364  0.00  0.00    +0.000 HD
ATOM     22  H   UNL     1       5.232   9.190   0.401  0.00  0.00    +0.000 HD
BRANCH  20  23
ATOM     23  C   UNL     1       4.460   8.575   2.319  0.00  0.00    +0.000 C 
ATOM     24  H   UNL     1       4.270   9.311   3.109  0.00  0.00    +0.000 HD
ATOM     25  H   UNL     1       3.719   7.776   2.435  0.00  0.00    +0.000 HD
BRANCH  23  26
ATOM     26  C   UNL     1       5.869   8.001   2.477  0.00  0.00    +0.000 C 
ATOM     27  H   UNL     1       6.288   7.778   1.488  0.00  0.00    +0.000 HD
ATOM     28  H   UNL     1       6.520   8.757   2.934  0.00  0.00    +0.000 HD
BRANCH  26  29
ATOM     29  C   UNL     1       5.860   6.737   3.329  0.00  0.00    +0.000 C 
ATOM     30  H   UNL     1       6.591   6.010   2.959  0.00  0.00    +0.000 HD
ATOM     31  H   UNL     1       4.869   6.271   3.325  0.00  0.00    +0.000 HD
BRANCH  29  33
ATOM     32  O   UNL     1       7.035   7.922   5.065  0.00  0.00    +0.000 OA
ATOM     33  C   UNL     1       6.210   7.068   4.755  0.00  0.00    +0.000 C 
ATOM     34  H   UNL     1       5.676   6.487   5.525  0.00  0.00    +0.000 HD
ENDBRANCH  29  33
ENDBRANCH  26  29
ENDBRANCH  23  26
ENDBRANCH  20  23
ENDBRANCH   1  20
TORSDOF 10
ENDMDL
MODEL 6
REMARK VINA RESULT:    -4.397      2.175      5.174
REMARK INTER + INTRA:          -7.817
REMARK INTER:                  -6.964
REMARK INTRA:                  -0.853
REMARK UNBOUND:                -0.978
REMARK  Name = 8186
REMARK  10 active torsions:
REMARK  status: ('A' for Active; 'I' for Inactive)
REMARK    1  A    between atoms: C_2  and  C_3
REMARK    2  A    between atoms: C_2  and  C_4
REMARK    3  A    between atoms: C_3  and  C_5
REMARK    4  A    between atoms: C_4  and  C_6
REMARK    5  A    between atoms: C_5  and  C_7
REMARK    6  A    between atoms: C_6  and  C_8
REMARK    7  A    between atoms: C_7  and  C_9
REMARK    8  A    between atoms: C_8  and  C_10
REMARK    9  A    between atoms: C_9  and  C_11
REMARK   10  A    between atoms: C_10  and  C_12
REMARK                            x       y       z     vdW  Elec       q    Type
REMARK                         _______ _______ _______ _____ _____    ______ ____
ROOT
ATOM      1  C   UNL     1       3.730   9.438   0.572  0.00  0.00    +0.000 C 
ATOM      2  H   UNL     1       2.984   9.250  -0.210  0.00  0.00    +0.000 HD
ATOM      3  H   UNL     1       4.709   9.193   0.140  0.00  0.00    +0.000 HD
ENDROOT
BRANCH   1   4
ATOM      4  C   UNL     1       3.461   8.511   1.760  0.00  0.00    +0.000 C 
ATOM      5  H   UNL     1       2.379   8.384   1.885  0.00  0.00    +0.000 HD
ATOM      6  H   UNL     1       3.873   7.518   1.538  0.00  0.00    +0.000 HD
BRANCH   4   7
ATOM      7  C   UNL     1       4.062   9.021   3.074  0.00  0.00    +0.000 C 
ATOM      8  H   UNL     1       4.669   9.910   2.868  0.00  0.00    +0.000 HD
ATOM      9  H   UNL     1       3.248   9.341   3.738  0.00  0.00    +0.000 HD
BRANCH   7  10
ATOM     10  C   UNL     1       4.923   7.980   3.793  0.00  0.00    +0.000 C 
ATOM     11  H   UNL     1       5.343   8.418   4.707  0.00  0.00    +0.000 HD
ATOM     12  H   UNL     1       4.293   7.136   4.099  0.00  0.00    +0.000 HD
BRANCH  10  13
ATOM     13  C   UNL     1       6.055   7.481   2.894  0.00  0.00    +0.000 C 
ATOM     14  H   UNL     1       5.650   7.166   1.925  0.00  0.00    +0.000 HD
ATOM     15  H   UNL     1       6.531   6.603   3.347  0.00  0.00    +0.000 HD
BRANCH  13  16
ATOM     16  C   UNL     1       7.106   8.557   2.671  0.00  0.00    +0.000 C 
ATOM     17  H   UNL     1       6.716   9.546   2.932  0.00  0.00    +0.000 HD
ATOM     18  H   UNL     1       7.985   8.363   3.294  0.00  0.00    +0.000 HD
ATOM     19  H   UNL     1       7.428   8.579   1.625  0.00  0.00    +0.000 HD
ENDBRANCH  13  16
ENDBRANCH  10  13
ENDBRANCH   7  10
ENDBRANCH   4   7
ENDBRANCH   1   4
BRANCH   1  20
ATOM     20  C   UNL     1       3.704  10.924   0.945  0.00  0.00    +0.000 C 
ATOM     21  H   UNL     1       2.697  11.320   0.762  0.00  0.00    +0.000 HD
ATOM     22  H   UNL     1       3.893  11.025   2.021  0.00  0.00    +0.000 HD
BRANCH  20  23
ATOM     23  C   UNL     1       4.726  11.762   0.173  0.00  0.00    +0.000 C 
ATOM     24  H   UNL     1       4.360  11.940  -0.845  0.00  0.00    +0.000 HD
ATOM     25  H   UNL     1       4.833  12.741   0.656  0.00  0.00    +0.000 HD
BRANCH  23  26
ATOM     26  C   UNL     1       6.085  11.063   0.117  0.00  0.00    +0.000 C 
ATOM     27  H   UNL     1       6.783  11.561   0.802  0.00  0.00    +0.000 HD
ATOM     28  H   UNL     1       5.977  10.030   0.471  0.00  0.00    +0.000 HD
BRANCH  26  29
ATOM     29  C   UNL     1       6.656  11.074  -1.296  0.00  0.00    +0.000 C 
ATOM     30  H   UNL     1       6.694  12.092  -1.696  0.00  0.00    +0.000 HD
ATOM     31  H   UNL     1       6.050  10.456  -1.967  0.00  0.00    +0.000 HD
BRANCH  29  33
ATOM     32  O   UNL     1       8.360   9.457  -0.763  0.00  0.00    +0.000 OA
ATOM     33  C   UNL     1       8.057  10.521  -1.295  0.00  0.00    +0.000 C 
ATOM     34  H   UNL     1       8.814  11.137  -1.806  0.00  0.00    +0.000 HD
ENDBRANCH  29  33
ENDBRANCH  26  29
ENDBRANCH  23  26
ENDBRANCH  20  23
ENDBRANCH   1  20
TORSDOF 10
ENDMDL
MODEL 7
REMARK VINA RESULT:    -4.252     28.805     29.798
REMARK INTER + INTRA:          -7.591
REMARK INTER:                  -6.993
REMARK INTRA:                  -0.598
REMARK UNBOUND:                -0.978
REMARK  Name = 8186
REMARK  10 active torsions:
REMARK  status: ('A' for Active; 'I' for Inactive)
REMARK    1  A    between atoms: C_2  and  C_3
REMARK    2  A    between atoms: C_2  and  C_4
REMARK    3  A    between atoms: C_3  and  C_5
REMARK    4  A    between atoms: C_4  and  C_6
REMARK    5  A    between atoms: C_5  and  C_7
REMARK    6  A    between atoms: C_6  and  C_8
REMARK    7  A    between atoms: C_7  and  C_9
REMARK    8  A    between atoms: C_8  and  C_10
REMARK    9  A    between atoms: C_9  and  C_11
REMARK   10  A    between atoms: C_10  and  C_12
REMARK                            x       y       z     vdW  Elec       q    Type
REMARK                         _______ _______ _______ _____ _____    ______ ____
ROOT
ATOM      1  C   UNL     1     -20.495  -3.362   4.141  0.00  0.00    +0.000 C 
ATOM      2  H   UNL     1     -21.093  -3.770   3.317  0.00  0.00    +0.000 HD
ATOM      3  H   UNL     1     -19.631  -2.862   3.687  0.00  0.00    +0.000 HD
ENDROOT
BRANCH   1   4
ATOM      4  C   UNL     1     -20.002  -4.511   5.023  0.00  0.00    +0.000 C 
ATOM      5  H   UNL     1     -19.628  -4.107   5.972  0.00  0.00    +0.000 HD
ATOM      6  H   UNL     1     -20.851  -5.162   5.269  0.00  0.00    +0.000 HD
BRANCH   4   7
ATOM      7  C   UNL     1     -18.900  -5.350   4.367  0.00  0.00    +0.000 C 
ATOM      8  H   UNL     1     -17.940  -5.110   4.838  0.00  0.00    +0.000 HD
ATOM      9  H   UNL     1     -19.094  -6.412   4.566  0.00  0.00    +0.000 HD
BRANCH   7  10
ATOM     10  C   UNL     1     -18.786  -5.129   2.857  0.00  0.00    +0.000 C 
ATOM     11  H   UNL     1     -19.316  -4.210   2.578  0.00  0.00    +0.000 HD
ATOM     12  H   UNL     1     -17.732  -4.989   2.588  0.00  0.00    +0.000 HD
BRANCH  10  13
ATOM     13  C   UNL     1     -19.364  -6.312   2.079  0.00  0.00    +0.000 C 
ATOM     14  H   UNL     1     -19.421  -7.193   2.729  0.00  0.00    +0.000 HD
ATOM     15  H   UNL     1     -18.702  -6.568   1.243  0.00  0.00    +0.000 HD
BRANCH  13  16
ATOM     16  C   UNL     1     -20.749  -5.999   1.537  0.00  0.00    +0.000 C 
ATOM     17  H   UNL     1     -21.504  -6.065   2.327  0.00  0.00    +0.000 HD
ATOM     18  H   UNL     1     -20.775  -4.985   1.125  0.00  0.00    +0.000 HD
ATOM     19  H   UNL     1     -21.025  -6.697   0.740  0.00  0.00    +0.000 HD
ENDBRANCH  13  16
ENDBRANCH  10  13
ENDBRANCH   7  10
ENDBRANCH   4   7
ENDBRANCH   1   4
BRANCH   1  20
ATOM     20  C   UNL     1     -21.330  -2.328   4.904  0.00  0.00    +0.000 C 
ATOM     21  H   UNL     1     -22.369  -2.380   4.556  0.00  0.00    +0.000 HD
ATOM     22  H   UNL     1     -21.339  -2.592   5.968  0.00  0.00    +0.000 HD
BRANCH  20  23
ATOM     23  C   UNL     1     -20.814  -0.895   4.745  0.00  0.00    +0.000 C 
ATOM     24  H   UNL     1     -19.994  -0.879   4.017  0.00  0.00    +0.000 HD
ATOM     25  H   UNL     1     -21.615  -0.262   4.344  0.00  0.00    +0.000 HD
BRANCH  23  26
ATOM     26  C   UNL     1     -20.329  -0.331   6.081  0.00  0.00    +0.000 C 
ATOM     27  H   UNL     1     -19.240  -0.197   6.049  0.00  0.00    +0.000 HD
ATOM     28  H   UNL     1     -20.766   0.663   6.236  0.00  0.00    +0.000 HD
BRANCH  26  29
ATOM     29  C   UNL     1     -20.700  -1.250   7.239  0.00  0.00    +0.000 C 
ATOM     30  H   UNL     1     -19.805  -1.612   7.755  0.00  0.00    +0.000 HD
ATOM     31  H   UNL     1     -21.272  -2.114   6.883  0.00  0.00    +0.000 HD
BRANCH  29  33
ATOM     32  O   UNL     1     -22.372  -1.065   8.962  0.00  0.00    +0.000 OA
ATOM     33  C   UNL     1     -21.550  -0.511   8.238  0.00  0.00    +0.000 C 
ATOM     34  H   UNL     1     -21.394   0.579   8.283  0.00  0.00    +0.000 HD
ENDBRANCH  29  33
ENDBRANCH  26  29
ENDBRANCH  23  26
ENDBRANCH  20  23
ENDBRANCH   1  20
TORSDOF 10
ENDMDL
MODEL 8
REMARK VINA RESULT:    -4.244     28.856     30.043
REMARK INTER + INTRA:          -7.579
REMARK INTER:                  -6.825
REMARK INTRA:                  -0.753
REMARK UNBOUND:                -0.978
REMARK  Name = 8186
REMARK  10 active torsions:
REMARK  status: ('A' for Active; 'I' for Inactive)
REMARK    1  A    between atoms: C_2  and  C_3
REMARK    2  A    between atoms: C_2  and  C_4
REMARK    3  A    between atoms: C_3  and  C_5
REMARK    4  A    between atoms: C_4  and  C_6
REMARK    5  A    between atoms: C_5  and  C_7
REMARK    6  A    between atoms: C_6  and  C_8
REMARK    7  A    between atoms: C_7  and  C_9
REMARK    8  A    between atoms: C_8  and  C_10
REMARK    9  A    between atoms: C_9  and  C_11
REMARK   10  A    between atoms: C_10  and  C_12
REMARK                            x       y       z     vdW  Elec       q    Type
REMARK                         _______ _______ _______ _____ _____    ______ ____
ROOT
ATOM      1  C   UNL     1     -20.980  -1.957   4.820  0.00  0.00    +0.000 C 
ATOM      2  H   UNL     1     -22.070  -1.968   4.695  0.00  0.00    +0.000 HD
ATOM      3  H   UNL     1     -20.546  -1.911   3.814  0.00  0.00    +0.000 HD
ENDROOT
BRANCH   1   4
ATOM      4  C   UNL     1     -20.537  -3.256   5.498  0.00  0.00    +0.000 C 
ATOM      5  H   UNL     1     -19.531  -3.124   5.914  0.00  0.00    +0.000 HD
ATOM      6  H   UNL     1     -21.205  -3.464   6.343  0.00  0.00    +0.000 HD
BRANCH   4   7
ATOM      7  C   UNL     1     -20.534  -4.462   4.553  0.00  0.00    +0.000 C 
ATOM      8  H   UNL     1     -21.357  -5.133   4.827  0.00  0.00    +0.000 HD
ATOM      9  H   UNL     1     -20.736  -4.115   3.531  0.00  0.00    +0.000 HD
BRANCH   7  10
ATOM     10  C   UNL     1     -19.220  -5.247   4.572  0.00  0.00    +0.000 C 
ATOM     11  H   UNL     1     -18.626  -4.947   5.444  0.00  0.00    +0.000 HD
ATOM     12  H   UNL     1     -19.437  -6.317   4.681  0.00  0.00    +0.000 HD
BRANCH  10  13
ATOM     13  C   UNL     1     -18.415  -5.011   3.294  0.00  0.00    +0.000 C 
ATOM     14  H   UNL     1     -17.888  -5.930   3.010  0.00  0.00    +0.000 HD
ATOM     15  H   UNL     1     -17.653  -4.242   3.469  0.00  0.00    +0.000 HD
BRANCH  13  16
ATOM     16  C   UNL     1     -19.309  -4.572   2.145  0.00  0.00    +0.000 C 
ATOM     17  H   UNL     1     -19.425  -3.483   2.132  0.00  0.00    +0.000 HD
ATOM     18  H   UNL     1     -18.875  -4.879   1.188  0.00  0.00    +0.000 HD
ATOM     19  H   UNL     1     -20.303  -5.022   2.228  0.00  0.00    +0.000 HD
ENDBRANCH  13  16
ENDBRANCH  10  13
ENDBRANCH   7  10
ENDBRANCH   4   7
ENDBRANCH   1   4
BRANCH   1  20
ATOM     20  C   UNL     1     -20.577  -0.700   5.599  0.00  0.00    +0.000 C 
ATOM     21  H   UNL     1     -19.735  -0.218   5.086  0.00  0.00    +0.000 HD
ATOM     22  H   UNL     1     -21.410   0.013   5.581  0.00  0.00    +0.000 HD
BRANCH  20  23
ATOM     23  C   UNL     1     -20.188  -0.985   7.052  0.00  0.00    +0.000 C 
ATOM     24  H   UNL     1     -20.039  -2.063   7.187  0.00  0.00    +0.000 HD
ATOM     25  H   UNL     1     -19.233  -0.495   7.276  0.00  0.00    +0.000 HD
BRANCH  23  26
ATOM     26  C   UNL     1     -21.263  -0.488   8.019  0.00  0.00    +0.000 C 
ATOM     27  H   UNL     1     -20.789  -0.127   8.940  0.00  0.00    +0.000 HD
ATOM     28  H   UNL     1     -21.785   0.369   7.574  0.00  0.00    +0.000 HD
BRANCH  26  29
ATOM     29  C   UNL     1     -22.262  -1.591   8.352  0.00  0.00    +0.000 C 
ATOM     30  H   UNL     1     -22.375  -1.703   9.435  0.00  0.00    +0.000 HD
ATOM     31  H   UNL     1     -21.939  -2.549   7.932  0.00  0.00    +0.000 HD
BRANCH  29  33
ATOM     32  O   UNL     1     -23.950  -1.575   6.635  0.00  0.00    +0.000 OA
ATOM     33  C   UNL     1     -23.612  -1.262   7.772  0.00  0.00    +0.000 C 
ATOM     34  H   UNL     1     -24.296  -0.710   8.438  0.00  0.00    +0.000 HD
ENDBRANCH  29  33
ENDBRANCH  26  29
ENDBRANCH  23  26
ENDBRANCH  20  23
ENDBRANCH   1  20
TORSDOF 10
ENDMDL
MODEL 9
REMARK VINA RESULT:    -4.200     13.987     15.743
REMARK INTER + INTRA:          -7.510
REMARK INTER:                  -6.533
REMARK INTRA:                  -0.978
REMARK UNBOUND:                -0.978
REMARK  Name = 8186
REMARK  10 active torsions:
REMARK  status: ('A' for Active; 'I' for Inactive)
REMARK    1  A    between atoms: C_2  and  C_3
REMARK    2  A    between atoms: C_2  and  C_4
REMARK    3  A    between atoms: C_3  and  C_5
REMARK    4  A    between atoms: C_4  and  C_6
REMARK    5  A    between atoms: C_5  and  C_7
REMARK    6  A    between atoms: C_6  and  C_8
REMARK    7  A    between atoms: C_7  and  C_9
REMARK    8  A    between atoms: C_8  and  C_10
REMARK    9  A    between atoms: C_9  and  C_11
REMARK   10  A    between atoms: C_10  and  C_12
REMARK                            x       y       z     vdW  Elec       q    Type
REMARK                         _______ _______ _______ _____ _____    ______ ____
ROOT
ATOM      1  C   UNL     1      -3.055   7.067  -9.661  0.00  0.00    +0.000 C 
ATOM      2  H   UNL     1      -2.657   6.206  -9.111  0.00  0.00    +0.000 HD
ATOM      3  H   UNL     1      -2.426   7.194 -10.551  0.00  0.00    +0.000 HD
ENDROOT
BRANCH   1   4
ATOM      4  C   UNL     1      -2.946   8.319  -8.788  0.00  0.00    +0.000 C 
ATOM      5  H   UNL     1      -3.840   8.403  -8.158  0.00  0.00    +0.000 HD
ATOM      6  H   UNL     1      -2.090   8.208  -8.110  0.00  0.00    +0.000 HD
BRANCH   4   7
ATOM      7  C   UNL     1      -2.781   9.610  -9.598  0.00  0.00    +0.000 C 
ATOM      8  H   UNL     1      -3.448   9.574 -10.467  0.00  0.00    +0.000 HD
ATOM      9  H   UNL     1      -3.107  10.460  -8.984  0.00  0.00    +0.000 HD
BRANCH   7  10
ATOM     10  C   UNL     1      -1.347   9.849 -10.076  0.00  0.00    +0.000 C 
ATOM     11  H   UNL     1      -0.966  10.782  -9.644  0.00  0.00    +0.000 HD
ATOM     12  H   UNL     1      -0.703   9.038  -9.713  0.00  0.00    +0.000 HD
BRANCH  10  13
ATOM     13  C   UNL     1      -1.276   9.920 -11.601  0.00  0.00    +0.000 C 
ATOM     14  H   UNL     1      -1.017  10.938 -11.915  0.00  0.00    +0.000 HD
ATOM     15  H   UNL     1      -2.257   9.687 -12.032  0.00  0.00    +0.000 HD
BRANCH  13  16
ATOM     16  C   UNL     1      -0.247   8.948 -12.157  0.00  0.00    +0.000 C 
ATOM     17  H   UNL     1       0.504   9.473 -12.757  0.00  0.00    +0.000 HD
ATOM     18  H   UNL     1       0.268   8.434 -11.341  0.00  0.00    +0.000 HD
ATOM     19  H   UNL     1      -0.724   8.192 -12.789  0.00  0.00    +0.000 HD
ENDBRANCH  13  16
ENDBRANCH  10  13
ENDBRANCH   7  10
ENDBRANCH   4   7
ENDBRANCH   1   4
BRANCH   1  20
ATOM     20  C   UNL     1      -4.490   6.760 -10.103  0.00  0.00    +0.000 C 
ATOM     21  H   UNL     1      -4.774   5.768  -9.730  0.00  0.00    +0.000 HD
ATOM     22  H   UNL     1      -5.170   7.481  -9.632  0.00  0.00    +0.000 HD
BRANCH  20  23
ATOM     23  C   UNL     1      -4.681   6.804 -11.621  0.00  0.00    +0.000 C 
ATOM     24  H   UNL     1      -5.194   5.894 -11.952  0.00  0.00    +0.000 HD
ATOM     25  H   UNL     1      -5.325   7.652 -11.882  0.00  0.00    +0.000 HD
BRANCH  23  26
ATOM     26  C   UNL     1      -3.339   6.933 -12.343  0.00  0.00    +0.000 C 
ATOM     27  H   UNL     1      -2.948   7.950 -12.212  0.00  0.00    +0.000 HD
ATOM     28  H   UNL     1      -2.612   6.252 -11.884  0.00  0.00    +0.000 HD
BRANCH  26  29
ATOM     29  C   UNL     1      -3.478   6.624 -13.829  0.00  0.00    +0.000 C 
ATOM     30  H   UNL     1      -4.529   6.627 -14.135  0.00  0.00    +0.000 HD
ATOM     31  H   UNL     1      -3.047   5.645 -14.065  0.00  0.00    +0.000 HD
BRANCH  29  33
ATOM     32  O   UNL     1      -1.619   7.491 -15.091  0.00  0.00    +0.000 OA
ATOM     33  C   UNL     1      -2.751   7.659 -14.646  0.00  0.00    +0.000 C 
ATOM     34  H   UNL     1      -3.299   8.598 -14.824  0.00  0.00    +0.000 HD
ENDBRANCH  29  33
ENDBRANCH  26  29
ENDBRANCH  23  26
ENDBRANCH  20  23
ENDBRANCH   1  20
TORSDOF 10
ENDMDL
MODEL 10
REMARK VINA RESULT:    -4.192     13.439     15.241
REMARK INTER + INTRA:          -7.497
REMARK INTER:                  -6.227
REMARK INTRA:                  -1.271
REMARK UNBOUND:                -0.978
REMARK  Name = 8186
REMARK  10 active torsions:
REMARK  status: ('A' for Active; 'I' for Inactive)
REMARK    1  A    between atoms: C_2  and  C_3
REMARK    2  A    between atoms: C_2  and  C_4
REMARK    3  A    between atoms: C_3  and  C_5
REMARK    4  A    between atoms: C_4  and  C_6
REMARK    5  A    between atoms: C_5  and  C_7
REMARK    6  A    between atoms: C_6  and  C_8
REMARK    7  A    between atoms: C_7  and  C_9
REMARK    8  A    between atoms: C_8  and  C_10
REMARK    9  A    between atoms: C_9  and  C_11
REMARK   10  A    between atoms: C_10  and  C_12
REMARK                            x       y       z     vdW  Elec       q    Type
REMARK                         _______ _______ _______ _____ _____    ______ ____
ROOT
ATOM      1  C   UNL     1      -3.174   8.046  -8.680  0.00  0.00    +0.000 C 
ATOM      2  H   UNL     1      -2.517   7.776  -7.844  0.00  0.00    +0.000 HD
ATOM      3  H   UNL     1      -4.194   8.099  -8.278  0.00  0.00    +0.000 HD
ENDROOT
BRANCH   1   4
ATOM      4  C   UNL     1      -3.113   6.949  -9.745  0.00  0.00    +0.000 C 
ATOM      5  H   UNL     1      -2.309   7.176 -10.455  0.00  0.00    +0.000 HD
ATOM      6  H   UNL     1      -2.850   5.998  -9.263  0.00  0.00    +0.000 HD
BRANCH   4   7
ATOM      7  C   UNL     1      -4.427   6.776 -10.513  0.00  0.00    +0.000 C 
ATOM      8  H   UNL     1      -4.816   5.766 -10.334  0.00  0.00    +0.000 HD
ATOM      9  H   UNL     1      -5.170   7.477 -10.111  0.00  0.00    +0.000 HD
BRANCH   7  10
ATOM     10  C   UNL     1      -4.284   6.998 -12.021  0.00  0.00    +0.000 C 
ATOM     11  H   UNL     1      -3.311   6.619 -12.357  0.00  0.00    +0.000 HD
ATOM     12  H   UNL     1      -5.055   6.422 -12.548  0.00  0.00    +0.000 HD
BRANCH  10  13
ATOM     13  C   UNL     1      -4.412   8.479 -12.377  0.00  0.00    +0.000 C 
ATOM     14  H   UNL     1      -3.738   9.073 -11.750  0.00  0.00    +0.000 HD
ATOM     15  H   UNL     1      -5.433   8.825 -12.174  0.00  0.00    +0.000 HD
BRANCH  13  16
ATOM     16  C   UNL     1      -4.085   8.730 -13.841  0.00  0.00    +0.000 C 
ATOM     17  H   UNL     1      -3.992   9.802 -14.043  0.00  0.00    +0.000 HD
ATOM     18  H   UNL     1      -3.138   8.250 -14.105  0.00  0.00    +0.000 HD
ATOM     19  H   UNL     1      -4.866   8.324 -14.492  0.00  0.00    +0.000 HD
ENDBRANCH  13  16
ENDBRANCH  10  13
ENDBRANCH   7  10
ENDBRANCH   4   7
ENDBRANCH   1   4
BRANCH   1  20
ATOM     20  C   UNL     1      -2.772   9.427  -9.209  0.00  0.00    +0.000 C 
ATOM     21  H   UNL     1      -3.536   9.775  -9.914  0.00  0.00    +0.000 HD
ATOM     22  H   UNL     1      -2.762  10.140  -8.375  0.00  0.00    +0.000 HD
BRANCH  20  23
ATOM     23  C   UNL     1      -1.404   9.438  -9.897  0.00  0.00    +0.000 C 
ATOM     24  H   UNL     1      -0.634   9.740  -9.178  0.00  0.00    +0.000 HD
ATOM     25  H   UNL     1      -1.157   8.423 -10.231  0.00  0.00    +0.000 HD
BRANCH  23  26
ATOM     26  C   UNL     1      -1.395  10.392 -11.093  0.00  0.00    +0.000 C 
ATOM     27  H   UNL     1      -2.415  10.750 -11.284  0.00  0.00    +0.000 HD
ATOM     28  H   UNL     1      -0.790  11.274 -10.850  0.00  0.00    +0.000 HD
BRANCH  26  29
ATOM     29  C   UNL     1      -0.847   9.711 -12.341  0.00  0.00    +0.000 C 
ATOM     30  H   UNL     1       0.093  10.174 -12.660  0.00  0.00    +0.000 HD
ATOM     31  H   UNL     1      -1.564   9.772 -13.166  0.00  0.00    +0.000 HD
BRANCH  29  33
ATOM     32  O   UNL     1      -0.999   7.347 -12.778  0.00  0.00    +0.000 OA
ATOM     33  C   UNL     1      -0.581   8.255 -12.065  0.00  0.00    +0.000 C 
ATOM     34  H   UNL     1       0.021   8.041 -11.167  0.00  0.00    +0.000 HD
ENDBRANCH  29  33
ENDBRANCH  26  29
ENDBRANCH  23  26
ENDBRANCH  20  23
ENDBRANCH   1  20
TORSDOF 10
ENDMDL
