MODEL 1
REMARK VINA RESULT:    -5.218      0.000      0.000
REMARK INTER + INTRA:          -6.330
REMARK INTER:                  -6.122
REMARK INTRA:                  -0.209
REMARK UNBOUND:                -0.197
REMARK  Name = 17100
REMARK  5 active torsions:
REMARK  status: ('A' for Active; 'I' for Inactive)
REMARK    1  A    between atoms: O_1  and  C_3
REMARK    2  A    between atoms: C_2  and  C_3
REMARK    3  A    between atoms: C_3  and  C_9
REMARK    4  A    between atoms: C_3  and  C_10
REMARK    5  A    between atoms: C_7  and  C_11
REMARK                            x       y       z     vdW  Elec       q    Type
REMARK                         _______ _______ _______ _____ _____    ______ ____
ROOT
ATOM      1  C   UNL     1      -2.076   7.898 -10.996  0.00  0.00    +0.000 C 
ATOM      2  C   UNL     1      -2.490   8.523  -9.659  0.00  0.00    +0.000 C 
ATOM      3  C   UNL     1      -3.319   7.452 -11.781  0.00  0.00    +0.000 C 
ATOM      4  C   UNL     1      -3.289   7.530  -8.808  0.00  0.00    +0.000 C 
ATOM      5  C   UNL     1      -4.320   6.754  -9.589  0.00  0.00    +0.000 C 
ATOM      6  C   UNL     1      -4.331   6.739 -10.932  0.00  0.00    +0.000 C 
ATOM      7  H   UNL     1      -1.472   7.006 -10.774  0.00  0.00    +0.000 HD
ATOM      8  H   UNL     1      -3.099   9.419  -9.829  0.00  0.00    +0.000 HD
ATOM      9  H   UNL     1      -1.626   8.830  -9.061  0.00  0.00    +0.000 HD
ATOM     10  H   UNL     1      -3.020   6.764 -12.580  0.00  0.00    +0.000 HD
ATOM     11  H   UNL     1      -3.827   8.299 -12.258  0.00  0.00    +0.000 HD
ATOM     12  H   UNL     1      -3.775   8.085  -7.996  0.00  0.00    +0.000 HD
ATOM     13  H   UNL     1      -2.599   6.816  -8.340  0.00  0.00    +0.000 HD
ATOM     14  H   UNL     1      -5.103   6.185 -11.460  0.00  0.00    +0.000 HD
ENDROOT
BRANCH   5  15
ATOM     15  C   UNL     1      -5.331   5.998  -8.778  0.00  0.00    +0.000 C 
ATOM     16  H   UNL     1      -6.170   5.690  -9.409  0.00  0.00    +0.000 HD
ATOM     17  H   UNL     1      -5.734   6.599  -7.955  0.00  0.00    +0.000 HD
ATOM     18  H   UNL     1      -4.876   5.102  -8.342  0.00  0.00    +0.000 HD
ENDBRANCH   5  15
BRANCH   1  19
ATOM     19  C   UNL     1      -1.234   8.869 -11.821  0.00  0.00    +0.000 C 
BRANCH  19  20
ATOM     20  C   UNL     1      -0.970  10.158 -11.044  0.00  0.00    +0.000 C 
ATOM     21  H   UNL     1      -1.796  10.870 -11.146  0.00  0.00    +0.000 HD
ATOM     22  H   UNL     1      -0.057  10.646 -11.405  0.00  0.00    +0.000 HD
ATOM     23  H   UNL     1      -0.792   9.967  -9.981  0.00  0.00    +0.000 HD
ENDBRANCH  19  20
BRANCH  19  24
ATOM     24  C   UNL     1      -1.916   9.176 -13.153  0.00  0.00    +0.000 C 
ATOM     25  H   UNL     1      -1.731  10.201 -13.491  0.00  0.00    +0.000 HD
ATOM     26  H   UNL     1      -1.617   8.473 -13.937  0.00  0.00    +0.000 HD
ATOM     27  H   UNL     1      -3.007   9.109 -13.048  0.00  0.00    +0.000 HD
ENDBRANCH  19  24
BRANCH  19  28
ATOM     28  O   UNL     1       0.019   8.250 -12.113  0.00  0.00    +0.000 OA
ATOM     29  H   UNL     1       0.146   7.515 -11.488  0.00  0.00    +0.000 HD
ENDBRANCH  19  28
ENDBRANCH   1  19
TORSDOF 5
ENDMDL
MODEL 2
REMARK VINA RESULT:    -5.033      1.185      2.068
REMARK INTER + INTRA:          -6.113
REMARK INTER:                  -5.960
REMARK INTRA:                  -0.153
REMARK UNBOUND:                -0.197
REMARK  Name = 17100
REMARK  5 active torsions:
REMARK  status: ('A' for Active; 'I' for Inactive)
REMARK    1  A    between atoms: O_1  and  C_3
REMARK    2  A    between atoms: C_2  and  C_3
REMARK    3  A    between atoms: C_3  and  C_9
REMARK    4  A    between atoms: C_3  and  C_10
REMARK    5  A    between atoms: C_7  and  C_11
REMARK                            x       y       z     vdW  Elec       q    Type
REMARK                         _______ _______ _______ _____ _____    ______ ____
ROOT
ATOM      1  C   UNL     1      -1.772   8.708 -12.062  0.00  0.00    +0.000 C 
ATOM      2  C   UNL     1      -1.629   7.198 -11.843  0.00  0.00    +0.000 C 
ATOM      3  C   UNL     1      -1.704   9.449 -10.717  0.00  0.00    +0.000 C 
ATOM      4  C   UNL     1      -2.733   6.666 -10.922  0.00  0.00    +0.000 C 
ATOM      5  C   UNL     1      -3.001   7.544  -9.726  0.00  0.00    +0.000 C 
ATOM      6  C   UNL     1      -2.518   8.795  -9.640  0.00  0.00    +0.000 C 
ATOM      7  H   UNL     1      -2.763   8.888 -12.503  0.00  0.00    +0.000 HD
ATOM      8  H   UNL     1      -0.652   6.967 -11.400  0.00  0.00    +0.000 HD
ATOM      9  H   UNL     1      -1.698   6.636 -12.779  0.00  0.00    +0.000 HD
ATOM     10  H   UNL     1      -2.085  10.469 -10.842  0.00  0.00    +0.000 HD
ATOM     11  H   UNL     1      -0.674   9.532 -10.348  0.00  0.00    +0.000 HD
ATOM     12  H   UNL     1      -2.450   5.660 -10.590  0.00  0.00    +0.000 HD
ATOM     13  H   UNL     1      -3.665   6.566 -11.494  0.00  0.00    +0.000 HD
ATOM     14  H   UNL     1      -2.715   9.391  -8.752  0.00  0.00    +0.000 HD
ENDROOT
BRANCH   5  15
ATOM     15  C   UNL     1      -3.841   6.941  -8.639  0.00  0.00    +0.000 C 
ATOM     16  H   UNL     1      -4.311   7.729  -8.041  0.00  0.00    +0.000 HD
ATOM     17  H   UNL     1      -3.251   6.314  -7.961  0.00  0.00    +0.000 HD
ATOM     18  H   UNL     1      -4.629   6.315  -9.071  0.00  0.00    +0.000 HD
ENDBRANCH   5  15
BRANCH   1  19
ATOM     19  C   UNL     1      -0.705   9.229 -13.022  0.00  0.00    +0.000 C 
BRANCH  19  20
ATOM     20  C   UNL     1      -0.689  10.757 -13.044  0.00  0.00    +0.000 C 
ATOM     21  H   UNL     1       0.332  11.152 -13.084  0.00  0.00    +0.000 HD
ATOM     22  H   UNL     1      -1.172  11.161 -12.148  0.00  0.00    +0.000 HD
ATOM     23  H   UNL     1      -1.261  11.160 -13.887  0.00  0.00    +0.000 HD
ENDBRANCH  19  20
BRANCH  19  24
ATOM     24  C   UNL     1      -0.929   8.675 -14.428  0.00  0.00    +0.000 C 
ATOM     25  H   UNL     1       0.010   8.413 -14.929  0.00  0.00    +0.000 HD
ATOM     26  H   UNL     1      -1.594   7.805 -14.424  0.00  0.00    +0.000 HD
ATOM     27  H   UNL     1      -1.386   9.437 -15.071  0.00  0.00    +0.000 HD
ENDBRANCH  19  24
BRANCH  19  28
ATOM     28  O   UNL     1       0.572   8.768 -12.578  0.00  0.00    +0.000 OA
ATOM     29  H   UNL     1       0.934   8.178 -13.262  0.00  0.00    +0.000 HD
ENDBRANCH  19  28
ENDBRANCH   1  19
TORSDOF 5
ENDMDL
MODEL 3
REMARK VINA RESULT:    -4.832      7.593      8.791
REMARK INTER + INTRA:          -5.877
REMARK INTER:                  -5.715
REMARK INTRA:                  -0.162
REMARK UNBOUND:                -0.197
REMARK  Name = 17100
REMARK  5 active torsions:
REMARK  status: ('A' for Active; 'I' for Inactive)
REMARK    1  A    between atoms: O_1  and  C_3
REMARK    2  A    between atoms: C_2  and  C_3
REMARK    3  A    between atoms: C_3  and  C_9
REMARK    4  A    between atoms: C_3  and  C_10
REMARK    5  A    between atoms: C_7  and  C_11
REMARK                            x       y       z     vdW  Elec       q    Type
REMARK                         _______ _______ _______ _____ _____    ______ ____
ROOT
ATOM      1  C   UNL     1      -9.461   6.265  -6.339  0.00  0.00    +0.000 C 
ATOM      2  C   UNL     1      -9.440   7.500  -5.432  0.00  0.00    +0.000 C 
ATOM      3  C   UNL     1      -9.013   6.641  -7.760  0.00  0.00    +0.000 C 
ATOM      4  C   UNL     1     -10.362   8.599  -5.973  0.00  0.00    +0.000 C 
ATOM      5  C   UNL     1     -10.258   8.799  -7.464  0.00  0.00    +0.000 C 
ATOM      6  C   UNL     1      -9.633   7.913  -8.258  0.00  0.00    +0.000 C 
ATOM      7  H   UNL     1     -10.500   5.907  -6.390  0.00  0.00    +0.000 HD
ATOM      8  H   UNL     1      -8.420   7.897  -5.352  0.00  0.00    +0.000 HD
ATOM      9  H   UNL     1      -9.778   7.273  -4.417  0.00  0.00    +0.000 HD
ATOM     10  H   UNL     1      -9.299   5.843  -8.456  0.00  0.00    +0.000 HD
ATOM     11  H   UNL     1      -7.925   6.756  -7.829  0.00  0.00    +0.000 HD
ATOM     12  H   UNL     1     -10.125   9.535  -5.453  0.00  0.00    +0.000 HD
ATOM     13  H   UNL     1     -11.403   8.351  -5.729  0.00  0.00    +0.000 HD
ATOM     14  H   UNL     1      -9.561   8.103  -9.326  0.00  0.00    +0.000 HD
ENDROOT
BRANCH   5  15
ATOM     15  C   UNL     1     -10.896  10.043  -8.009  0.00  0.00    +0.000 C 
ATOM     16  H   UNL     1     -11.868   9.807  -8.454  0.00  0.00    +0.000 HD
ATOM     17  H   UNL     1     -10.281  10.518  -8.782  0.00  0.00    +0.000 HD
ATOM     18  H   UNL     1     -11.047  10.775  -7.208  0.00  0.00    +0.000 HD
ENDBRANCH   5  15
BRANCH   1  19
ATOM     19  C   UNL     1      -8.584   5.150  -5.772  0.00  0.00    +0.000 C 
BRANCH  19  20
ATOM     20  C   UNL     1      -7.749   4.499  -6.874  0.00  0.00    +0.000 C 
ATOM     21  H   UNL     1      -7.948   3.425  -6.953  0.00  0.00    +0.000 HD
ATOM     22  H   UNL     1      -6.679   4.629  -6.675  0.00  0.00    +0.000 HD
ATOM     23  H   UNL     1      -7.920   4.967  -7.849  0.00  0.00    +0.000 HD
ENDBRANCH  19  20
BRANCH  19  24
ATOM     24  C   UNL     1      -9.438   4.104  -5.058  0.00  0.00    +0.000 C 
ATOM     25  H   UNL     1      -9.014   3.805  -4.094  0.00  0.00    +0.000 HD
ATOM     26  H   UNL     1     -10.468   4.446  -4.914  0.00  0.00    +0.000 HD
ATOM     27  H   UNL     1      -9.477   3.177  -5.645  0.00  0.00    +0.000 HD
ENDBRANCH  19  24
BRANCH  19  28
ATOM     28  O   UNL     1      -7.699   5.715  -4.804  0.00  0.00    +0.000 OA
ATOM     29  H   UNL     1      -6.787   5.535  -5.090  0.00  0.00    +0.000 HD
ENDBRANCH  19  28
ENDBRANCH   1  19
TORSDOF 5
ENDMDL
MODEL 4
REMARK VINA RESULT:    -4.805      7.026      9.508
REMARK INTER + INTRA:          -5.845
REMARK INTER:                  -5.681
REMARK INTRA:                  -0.164
REMARK UNBOUND:                -0.197
REMARK  Name = 17100
REMARK  5 active torsions:
REMARK  status: ('A' for Active; 'I' for Inactive)
REMARK    1  A    between atoms: O_1  and  C_3
REMARK    2  A    between atoms: C_2  and  C_3
REMARK    3  A    between atoms: C_3  and  C_9
REMARK    4  A    between atoms: C_3  and  C_10
REMARK    5  A    between atoms: C_7  and  C_11
REMARK                            x       y       z     vdW  Elec       q    Type
REMARK                         _______ _______ _______ _____ _____    ______ ____
ROOT
ATOM      1  C   UNL     1      -9.451   5.288  -5.910  0.00  0.00    +0.000 C 
ATOM      2  C   UNL     1      -8.998   4.236  -4.891  0.00  0.00    +0.000 C 
ATOM      3  C   UNL     1     -10.936   5.624  -5.702  0.00  0.00    +0.000 C 
ATOM      4  C   UNL     1      -9.824   2.951  -5.018  0.00  0.00    +0.000 C 
ATOM      5  C   UNL     1     -11.303   3.195  -5.192  0.00  0.00    +0.000 C 
ATOM      6  C   UNL     1     -11.793   4.411  -5.487  0.00  0.00    +0.000 C 
ATOM      7  H   UNL     1      -9.335   4.851  -6.913  0.00  0.00    +0.000 HD
ATOM      8  H   UNL     1      -9.098   4.626  -3.871  0.00  0.00    +0.000 HD
ATOM      9  H   UNL     1      -7.950   3.954  -5.027  0.00  0.00    +0.000 HD
ATOM     10  H   UNL     1     -11.321   6.143  -6.588  0.00  0.00    +0.000 HD
ATOM     11  H   UNL     1     -11.088   6.291  -4.845  0.00  0.00    +0.000 HD
ATOM     12  H   UNL     1      -9.649   2.339  -4.125  0.00  0.00    +0.000 HD
ATOM     13  H   UNL     1      -9.465   2.373  -5.880  0.00  0.00    +0.000 HD
ATOM     14  H   UNL     1     -12.866   4.552  -5.584  0.00  0.00    +0.000 HD
ENDROOT
BRANCH   5  15
ATOM     15  C   UNL     1     -12.193   2.000  -5.019  0.00  0.00    +0.000 C 
ATOM     16  H   UNL     1     -12.903   2.171  -4.203  0.00  0.00    +0.000 HD
ATOM     17  H   UNL     1     -11.626   1.093  -4.783  0.00  0.00    +0.000 HD
ATOM     18  H   UNL     1     -12.758   1.810  -5.938  0.00  0.00    +0.000 HD
ENDBRANCH   5  15
BRANCH   1  19
ATOM     19  C   UNL     1      -8.593   6.547  -5.820  0.00  0.00    +0.000 C 
BRANCH  19  20
ATOM     20  C   UNL     1      -9.466   7.802  -5.788  0.00  0.00    +0.000 C 
ATOM     21  H   UNL     1      -9.001   8.604  -5.204  0.00  0.00    +0.000 HD
ATOM     22  H   UNL     1     -10.442   7.581  -5.341  0.00  0.00    +0.000 HD
ATOM     23  H   UNL     1      -9.686   8.174  -6.793  0.00  0.00    +0.000 HD
ENDBRANCH  19  20
BRANCH  19  24
ATOM     24  C   UNL     1      -7.606   6.611  -6.985  0.00  0.00    +0.000 C 
ATOM     25  H   UNL     1      -6.826   7.364  -6.831  0.00  0.00    +0.000 HD
ATOM     26  H   UNL     1      -7.142   5.639  -7.181  0.00  0.00    +0.000 HD
ATOM     27  H   UNL     1      -8.119   6.924  -7.903  0.00  0.00    +0.000 HD
ENDBRANCH  19  24
BRANCH  19  28
ATOM     28  O   UNL     1      -7.830   6.494  -4.614  0.00  0.00    +0.000 OA
ATOM     29  H   UNL     1      -7.640   5.560  -4.419  0.00  0.00    +0.000 HD
ENDBRANCH  19  28
ENDBRANCH   1  19
TORSDOF 5
ENDMDL
MODEL 5
REMARK VINA RESULT:    -4.744     17.853     19.547
REMARK INTER + INTRA:          -5.773
REMARK INTER:                  -5.581
REMARK INTRA:                  -0.192
REMARK UNBOUND:                -0.197
REMARK  Name = 17100
REMARK  5 active torsions:
REMARK  status: ('A' for Active; 'I' for Inactive)
REMARK    1  A    between atoms: O_1  and  C_3
REMARK    2  A    between atoms: C_2  and  C_3
REMARK    3  A    between atoms: C_3  and  C_9
REMARK    4  A    between atoms: C_3  and  C_10
REMARK    5  A    between atoms: C_7  and  C_11
REMARK                            x       y       z     vdW  Elec       q    Type
REMARK                         _______ _______ _______ _____ _____    ______ ____
ROOT
ATOM      1  C   UNL     1      -8.869  11.268   7.319  0.00  0.00    +0.000 C 
ATOM      2  C   UNL     1      -7.711  11.899   8.100  0.00  0.00    +0.000 C 
ATOM      3  C   UNL     1      -8.398  10.847   5.918  0.00  0.00    +0.000 C 
ATOM      4  C   UNL     1      -7.155  13.126   7.370  0.00  0.00    +0.000 C 
ATOM      5  C   UNL     1      -6.997  12.927   5.883  0.00  0.00    +0.000 C 
ATOM      6  C   UNL     1      -7.552  11.885   5.242  0.00  0.00    +0.000 C 
ATOM      7  H   UNL     1      -9.649  12.035   7.203  0.00  0.00    +0.000 HD
ATOM      8  H   UNL     1      -6.904  11.169   8.240  0.00  0.00    +0.000 HD
ATOM      9  H   UNL     1      -8.018  12.233   9.096  0.00  0.00    +0.000 HD
ATOM     10  H   UNL     1      -9.270  10.668   5.278  0.00  0.00    +0.000 HD
ATOM     11  H   UNL     1      -7.820   9.916   5.944  0.00  0.00    +0.000 HD
ATOM     12  H   UNL     1      -6.188  13.385   7.817  0.00  0.00    +0.000 HD
ATOM     13  H   UNL     1      -7.825  13.980   7.535  0.00  0.00    +0.000 HD
ATOM     14  H   UNL     1      -7.398  11.764   4.173  0.00  0.00    +0.000 HD
ENDROOT
BRANCH   5  15
ATOM     15  C   UNL     1      -6.185  13.963   5.162  0.00  0.00    +0.000 C 
ATOM     16  H   UNL     1      -6.293  14.937   5.650  0.00  0.00    +0.000 HD
ATOM     17  H   UNL     1      -6.495  14.076   4.117  0.00  0.00    +0.000 HD
ATOM     18  H   UNL     1      -5.125  13.686   5.167  0.00  0.00    +0.000 HD
ENDBRANCH   5  15
BRANCH   1  19
ATOM     19  C   UNL     1      -9.459  10.078   8.073  0.00  0.00    +0.000 C 
BRANCH  19  20
ATOM     20  C   UNL     1      -8.413   8.978   8.259  0.00  0.00    +0.000 C 
ATOM     21  H   UNL     1      -8.678   8.069   7.707  0.00  0.00    +0.000 HD
ATOM     22  H   UNL     1      -8.316   8.713   9.318  0.00  0.00    +0.000 HD
ATOM     23  H   UNL     1      -7.415   9.305   7.951  0.00  0.00    +0.000 HD
ENDBRANCH  19  20
BRANCH  19  24
ATOM     24  C   UNL     1     -10.686   9.532   7.344  0.00  0.00    +0.000 C 
ATOM     25  H   UNL     1     -10.931  10.111   6.447  0.00  0.00    +0.000 HD
ATOM     26  H   UNL     1     -10.568   8.477   7.077  0.00  0.00    +0.000 HD
ATOM     27  H   UNL     1     -11.576   9.615   7.981  0.00  0.00    +0.000 HD
ENDBRANCH  19  24
BRANCH  19  28
ATOM     28  O   UNL     1      -9.886  10.521   9.362  0.00  0.00    +0.000 OA
ATOM     29  H   UNL     1     -10.706  10.047   9.585  0.00  0.00    +0.000 HD
ENDBRANCH  19  28
ENDBRANCH   1  19
TORSDOF 5
ENDMDL
MODEL 6
REMARK VINA RESULT:    -4.636     26.491     27.510
REMARK INTER + INTRA:          -5.647
REMARK INTER:                  -5.445
REMARK INTRA:                  -0.202
REMARK UNBOUND:                -0.197
REMARK  Name = 17100
REMARK  5 active torsions:
REMARK  status: ('A' for Active; 'I' for Inactive)
REMARK    1  A    between atoms: O_1  and  C_3
REMARK    2  A    between atoms: C_2  and  C_3
REMARK    3  A    between atoms: C_3  and  C_9
REMARK    4  A    between atoms: C_3  and  C_10
REMARK    5  A    between atoms: C_7  and  C_11
REMARK                            x       y       z     vdW  Elec       q    Type
REMARK                         _______ _______ _______ _____ _____    ______ ____
ROOT
ATOM      1  C   UNL     1      14.984  -3.555   6.650  0.00  0.00    +0.000 C 
ATOM      2  C   UNL     1      13.520  -3.735   6.231  0.00  0.00    +0.000 C 
ATOM      3  C   UNL     1      15.211  -4.141   8.052  0.00  0.00    +0.000 C 
ATOM      4  C   UNL     1      12.574  -3.045   7.220  0.00  0.00    +0.000 C 
ATOM      5  C   UNL     1      12.941  -3.267   8.666  0.00  0.00    +0.000 C 
ATOM      6  C   UNL     1      14.130  -3.776   9.027  0.00  0.00    +0.000 C 
ATOM      7  H   UNL     1      15.188  -2.475   6.692  0.00  0.00    +0.000 HD
ATOM      8  H   UNL     1      13.267  -4.801   6.177  0.00  0.00    +0.000 HD
ATOM      9  H   UNL     1      13.317  -3.306   5.245  0.00  0.00    +0.000 HD
ATOM     10  H   UNL     1      16.158  -3.765   8.456  0.00  0.00    +0.000 HD
ATOM     11  H   UNL     1      15.281  -5.235   8.031  0.00  0.00    +0.000 HD
ATOM     12  H   UNL     1      11.556  -3.409   7.034  0.00  0.00    +0.000 HD
ATOM     13  H   UNL     1      12.570  -1.965   7.026  0.00  0.00    +0.000 HD
ATOM     14  H   UNL     1      14.351  -3.941  10.079  0.00  0.00    +0.000 HD
ENDROOT
BRANCH   5  15
ATOM     15  C   UNL     1      11.901  -2.883   9.677  0.00  0.00    +0.000 C 
ATOM     16  H   UNL     1      11.545  -1.865   9.488  0.00  0.00    +0.000 HD
ATOM     17  H   UNL     1      12.289  -2.916  10.701  0.00  0.00    +0.000 HD
ATOM     18  H   UNL     1      11.047  -3.566   9.622  0.00  0.00    +0.000 HD
ENDBRANCH   5  15
BRANCH   1  19
ATOM     19  C   UNL     1      15.929  -4.195   5.636  0.00  0.00    +0.000 C 
BRANCH  19  20
ATOM     20  C   UNL     1      15.376  -5.532   5.141  0.00  0.00    +0.000 C 
ATOM     21  H   UNL     1      14.288  -5.499   5.016  0.00  0.00    +0.000 HD
ATOM     22  H   UNL     1      15.610  -6.333   5.852  0.00  0.00    +0.000 HD
ATOM     23  H   UNL     1      15.835  -5.841   4.197  0.00  0.00    +0.000 HD
ENDBRANCH  19  20
BRANCH  19  24
ATOM     24  C   UNL     1      17.320  -4.382   6.239  0.00  0.00    +0.000 C 
ATOM     25  H   UNL     1      17.283  -4.719   7.281  0.00  0.00    +0.000 HD
ATOM     26  H   UNL     1      17.931  -5.076   5.652  0.00  0.00    +0.000 HD
ATOM     27  H   UNL     1      17.853  -3.423   6.275  0.00  0.00    +0.000 HD
ENDBRANCH  19  24
BRANCH  19  28
ATOM     28  O   UNL     1      16.061  -3.317   4.517  0.00  0.00    +0.000 OA
ATOM     29  H   UNL     1      16.715  -3.701   3.909  0.00  0.00    +0.000 HD
ENDBRANCH  19  28
ENDBRANCH   1  19
TORSDOF 5
ENDMDL
MODEL 7
REMARK VINA RESULT:    -4.635     32.462     33.934
REMARK INTER + INTRA:          -5.646
REMARK INTER:                  -5.448
REMARK INTRA:                  -0.197
REMARK UNBOUND:                -0.197
REMARK  Name = 17100
REMARK  5 active torsions:
REMARK  status: ('A' for Active; 'I' for Inactive)
REMARK    1  A    between atoms: O_1  and  C_3
REMARK    2  A    between atoms: C_2  and  C_3
REMARK    3  A    between atoms: C_3  and  C_9
REMARK    4  A    between atoms: C_3  and  C_10
REMARK    5  A    between atoms: C_7  and  C_11
REMARK                            x       y       z     vdW  Elec       q    Type
REMARK                         _______ _______ _______ _____ _____    ______ ____
ROOT
ATOM      1  C   UNL     1      -9.434 -11.306  16.340  0.00  0.00    +0.000 C 
ATOM      2  C   UNL     1     -10.153 -10.227  15.522  0.00  0.00    +0.000 C 
ATOM      3  C   UNL     1     -10.182 -12.643  16.228  0.00  0.00    +0.000 C 
ATOM      4  C   UNL     1     -11.595 -10.036  16.005  0.00  0.00    +0.000 C 
ATOM      5  C   UNL     1     -12.318 -11.330  16.282  0.00  0.00    +0.000 C 
ATOM      6  C   UNL     1     -11.669 -12.503  16.366  0.00  0.00    +0.000 C 
ATOM      7  H   UNL     1      -9.451 -10.991  17.394  0.00  0.00    +0.000 HD
ATOM      8  H   UNL     1     -10.164 -10.499  14.459  0.00  0.00    +0.000 HD
ATOM      9  H   UNL     1      -9.660  -9.253  15.600  0.00  0.00    +0.000 HD
ATOM     10  H   UNL     1      -9.842 -13.320  17.021  0.00  0.00    +0.000 HD
ATOM     11  H   UNL     1      -9.985 -13.143  15.272  0.00  0.00    +0.000 HD
ATOM     12  H   UNL     1     -12.138  -9.459  15.247  0.00  0.00    +0.000 HD
ATOM     13  H   UNL     1     -11.593  -9.436  16.924  0.00  0.00    +0.000 HD
ATOM     14  H   UNL     1     -12.228 -13.418  16.546  0.00  0.00    +0.000 HD
ENDROOT
BRANCH   5  15
ATOM     15  C   UNL     1     -13.805 -11.229  16.460  0.00  0.00    +0.000 C 
ATOM     16  H   UNL     1     -14.169 -10.272  16.073  0.00  0.00    +0.000 HD
ATOM     17  H   UNL     1     -14.100 -11.298  17.514  0.00  0.00    +0.000 HD
ATOM     18  H   UNL     1     -14.308 -12.038  15.920  0.00  0.00    +0.000 HD
ENDBRANCH   5  15
BRANCH   1  19
ATOM     19  C   UNL     1      -7.981 -11.458  15.895  0.00  0.00    +0.000 C 
BRANCH  19  20
ATOM     20  C   UNL     1      -7.891 -11.647  14.381  0.00  0.00    +0.000 C 
ATOM     21  H   UNL     1      -8.674 -12.315  14.008  0.00  0.00    +0.000 HD
ATOM     22  H   UNL     1      -6.921 -12.075  14.103  0.00  0.00    +0.000 HD
ATOM     23  H   UNL     1      -7.949 -10.694  13.845  0.00  0.00    +0.000 HD
ENDBRANCH  19  20
BRANCH  19  24
ATOM     24  C   UNL     1      -7.315 -12.626  16.622  0.00  0.00    +0.000 C 
ATOM     25  H   UNL     1      -7.028 -12.371  17.647  0.00  0.00    +0.000 HD
ATOM     26  H   UNL     1      -7.951 -13.517  16.632  0.00  0.00    +0.000 HD
ATOM     27  H   UNL     1      -6.374 -12.896  16.127  0.00  0.00    +0.000 HD
ENDBRANCH  19  24
BRANCH  19  28
ATOM     28  O   UNL     1      -7.270 -10.271  16.249  0.00  0.00    +0.000 OA
ATOM     29  H   UNL     1      -6.576 -10.127  15.582  0.00  0.00    +0.000 HD
ENDBRANCH  19  28
ENDBRANCH   1  19
TORSDOF 5
ENDMDL
MODEL 8
REMARK VINA RESULT:    -4.628      6.095      7.995
REMARK INTER + INTRA:          -5.637
REMARK INTER:                  -5.429
REMARK INTRA:                  -0.208
REMARK UNBOUND:                -0.197
REMARK  Name = 17100
REMARK  5 active torsions:
REMARK  status: ('A' for Active; 'I' for Inactive)
REMARK    1  A    between atoms: O_1  and  C_3
REMARK    2  A    between atoms: C_2  and  C_3
REMARK    3  A    between atoms: C_3  and  C_9
REMARK    4  A    between atoms: C_3  and  C_10
REMARK    5  A    between atoms: C_7  and  C_11
REMARK                            x       y       z     vdW  Elec       q    Type
REMARK                         _______ _______ _______ _____ _____    ______ ____
ROOT
ATOM      1  C   UNL     1      -7.950   5.946  -6.750  0.00  0.00    +0.000 C 
ATOM      2  C   UNL     1      -7.645   4.526  -7.240  0.00  0.00    +0.000 C 
ATOM      3  C   UNL     1      -8.853   6.674  -7.757  0.00  0.00    +0.000 C 
ATOM      4  C   UNL     1      -6.952   4.550  -8.607  0.00  0.00    +0.000 C 
ATOM      5  C   UNL     1      -7.558   5.532  -9.578  0.00  0.00    +0.000 C 
ATOM      6  C   UNL     1      -8.427   6.478  -9.182  0.00  0.00    +0.000 C 
ATOM      7  H   UNL     1      -6.995   6.489  -6.689  0.00  0.00    +0.000 HD
ATOM      8  H   UNL     1      -8.571   3.943  -7.319  0.00  0.00    +0.000 HD
ATOM      9  H   UNL     1      -6.982   3.986  -6.557  0.00  0.00    +0.000 HD
ATOM     10  H   UNL     1      -8.833   7.751  -7.554  0.00  0.00    +0.000 HD
ATOM     11  H   UNL     1      -9.898   6.350  -7.677  0.00  0.00    +0.000 HD
ATOM     12  H   UNL     1      -6.986   3.539  -9.029  0.00  0.00    +0.000 HD
ATOM     13  H   UNL     1      -5.893   4.806  -8.472  0.00  0.00    +0.000 HD
ATOM     14  H   UNL     1      -8.860   7.155  -9.915  0.00  0.00    +0.000 HD
ENDROOT
BRANCH   5  15
ATOM     15  C   UNL     1      -7.133   5.393 -11.010  0.00  0.00    +0.000 C 
ATOM     16  H   UNL     1      -7.332   4.378 -11.368  0.00  0.00    +0.000 HD
ATOM     17  H   UNL     1      -6.063   5.590 -11.144  0.00  0.00    +0.000 HD
ATOM     18  H   UNL     1      -7.683   6.099 -11.640  0.00  0.00    +0.000 HD
ENDBRANCH   5  15
BRANCH   1  19
ATOM     19  C   UNL     1      -8.591   5.924  -5.364  0.00  0.00    +0.000 C 
BRANCH  19  20
ATOM     20  C   UNL     1      -8.894   4.491  -4.925  0.00  0.00    +0.000 C 
ATOM     21  H   UNL     1      -8.464   3.757  -5.614  0.00  0.00    +0.000 HD
ATOM     22  H   UNL     1      -9.976   4.322  -4.882  0.00  0.00    +0.000 HD
ATOM     23  H   UNL     1      -8.530   4.287  -3.913  0.00  0.00    +0.000 HD
ENDBRANCH  19  20
BRANCH  19  24
ATOM     24  C   UNL     1      -9.863   6.770  -5.346  0.00  0.00    +0.000 C 
ATOM     25  H   UNL     1      -9.886   7.508  -6.155  0.00  0.00    +0.000 HD
ATOM     26  H   UNL     1     -10.766   6.152  -5.390  0.00  0.00    +0.000 HD
ATOM     27  H   UNL     1      -9.914   7.364  -4.425  0.00  0.00    +0.000 HD
ENDBRANCH  19  24
BRANCH  19  28
ATOM     28  O   UNL     1      -7.678   6.502  -4.430  0.00  0.00    +0.000 OA
ATOM     29  H   UNL     1      -6.776   6.367  -4.768  0.00  0.00    +0.000 HD
ENDBRANCH  19  28
ENDBRANCH   1  19
TORSDOF 5
ENDMDL
MODEL 9
REMARK VINA RESULT:    -4.610     19.743     21.095
REMARK INTER + INTRA:          -5.616
REMARK INTER:                  -5.444
REMARK INTRA:                  -0.172
REMARK UNBOUND:                -0.197
REMARK  Name = 17100
REMARK  5 active torsions:
REMARK  status: ('A' for Active; 'I' for Inactive)
REMARK    1  A    between atoms: O_1  and  C_3
REMARK    2  A    between atoms: C_2  and  C_3
REMARK    3  A    between atoms: C_3  and  C_9
REMARK    4  A    between atoms: C_3  and  C_10
REMARK    5  A    between atoms: C_7  and  C_11
REMARK                            x       y       z     vdW  Elec       q    Type
REMARK                         _______ _______ _______ _____ _____    ______ ____
ROOT
ATOM      1  C   UNL     1       9.375  11.063   6.059  0.00  0.00    +0.000 C 
ATOM      2  C   UNL     1       9.672  10.811   4.576  0.00  0.00    +0.000 C 
ATOM      3  C   UNL     1       8.841  12.489   6.259  0.00  0.00    +0.000 C 
ATOM      4  C   UNL     1      10.703  11.811   4.041  0.00  0.00    +0.000 C 
ATOM      5  C   UNL     1      10.467  13.229   4.496  0.00  0.00    +0.000 C 
ATOM      6  C   UNL     1       9.611  13.523   5.490  0.00  0.00    +0.000 C 
ATOM      7  H   UNL     1      10.324  10.972   6.608  0.00  0.00    +0.000 HD
ATOM      8  H   UNL     1       8.752  10.894   3.984  0.00  0.00    +0.000 HD
ATOM      9  H   UNL     1      10.079   9.811   4.400  0.00  0.00    +0.000 HD
ATOM     10  H   UNL     1       8.903  12.757   7.320  0.00  0.00    +0.000 HD
ATOM     11  H   UNL     1       7.788  12.577   5.964  0.00  0.00    +0.000 HD
ATOM     12  H   UNL     1      10.692  11.764   2.945  0.00  0.00    +0.000 HD
ATOM     13  H   UNL     1      11.706  11.506   4.366  0.00  0.00    +0.000 HD
ATOM     14  H   UNL     1       9.451  14.559   5.777  0.00  0.00    +0.000 HD
ENDROOT
BRANCH   5  15
ATOM     15  C   UNL     1      11.244  14.292   3.777  0.00  0.00    +0.000 C 
ATOM     16  H   UNL     1      11.936  13.836   3.061  0.00  0.00    +0.000 HD
ATOM     17  H   UNL     1      11.833  14.909   4.464  0.00  0.00    +0.000 HD
ATOM     18  H   UNL     1      10.565  14.955   3.231  0.00  0.00    +0.000 HD
ENDBRANCH   5  15
BRANCH   1  19
ATOM     19  C   UNL     1       8.389  10.033   6.606  0.00  0.00    +0.000 C 
BRANCH  19  20
ATOM     20  C   UNL     1       8.992   9.273   7.787  0.00  0.00    +0.000 C 
ATOM     21  H   UNL     1       9.693   9.895   8.355  0.00  0.00    +0.000 HD
ATOM     22  H   UNL     1       9.535   8.386   7.438  0.00  0.00    +0.000 HD
ATOM     23  H   UNL     1       8.222   8.891   8.465  0.00  0.00    +0.000 HD
ENDBRANCH  19  20
BRANCH  19  24
ATOM     24  C   UNL     1       7.959   9.063   5.507  0.00  0.00    +0.000 C 
ATOM     25  H   UNL     1       8.466   8.095   5.582  0.00  0.00    +0.000 HD
ATOM     26  H   UNL     1       6.875   8.908   5.499  0.00  0.00    +0.000 HD
ATOM     27  H   UNL     1       8.244   9.451   4.521  0.00  0.00    +0.000 HD
ENDBRANCH  19  24
BRANCH  19  28
ATOM     28  O   UNL     1       7.219  10.717   7.056  0.00  0.00    +0.000 OA
ATOM     29  H   UNL     1       7.462  11.641   7.239  0.00  0.00    +0.000 HD
ENDBRANCH  19  28
ENDBRANCH   1  19
TORSDOF 5
ENDMDL
MODEL 10
REMARK VINA RESULT:    -4.502     10.151     10.610
REMARK INTER + INTRA:          -5.489
REMARK INTER:                  -5.336
REMARK INTRA:                  -0.153
REMARK UNBOUND:                -0.197
REMARK  Name = 17100
REMARK  5 active torsions:
REMARK  status: ('A' for Active; 'I' for Inactive)
REMARK    1  A    between atoms: O_1  and  C_3
REMARK    2  A    between atoms: C_2  and  C_3
REMARK    3  A    between atoms: C_3  and  C_9
REMARK    4  A    between atoms: C_3  and  C_10
REMARK    5  A    between atoms: C_7  and  C_11
REMARK                            x       y       z     vdW  Elec       q    Type
REMARK                         _______ _______ _______ _____ _____    ______ ____
ROOT
ATOM      1  C   UNL     1       2.522  -0.854 -14.044  0.00  0.00    +0.000 C 
ATOM      2  C   UNL     1       1.922  -2.066 -13.324  0.00  0.00    +0.000 C 
ATOM      3  C   UNL     1       2.307   0.419 -13.212  0.00  0.00    +0.000 C 
ATOM      4  C   UNL     1       0.421  -1.877 -13.078  0.00  0.00    +0.000 C 
ATOM      5  C   UNL     1       0.055  -0.497 -12.592  0.00  0.00    +0.000 C 
ATOM      6  C   UNL     1       0.922   0.528 -12.644  0.00  0.00    +0.000 C 
ATOM      7  H   UNL     1       1.986  -0.735 -14.998  0.00  0.00    +0.000 HD
ATOM      8  H   UNL     1       2.425  -2.225 -12.361  0.00  0.00    +0.000 HD
ATOM      9  H   UNL     1       2.036  -2.989 -13.901  0.00  0.00    +0.000 HD
ATOM     10  H   UNL     1       2.473   1.301 -13.842  0.00  0.00    +0.000 HD
ATOM     11  H   UNL     1       3.012   0.484 -12.374  0.00  0.00    +0.000 HD
ATOM     12  H   UNL     1       0.093  -2.629 -12.350  0.00  0.00    +0.000 HD
ATOM     13  H   UNL     1      -0.126  -2.072 -14.009  0.00  0.00    +0.000 HD
ATOM     14  H   UNL     1       0.629   1.504 -12.265  0.00  0.00    +0.000 HD
ENDROOT
BRANCH   5  15
ATOM     15  C   UNL     1      -1.334  -0.336 -12.048  0.00  0.00    +0.000 C 
ATOM     16  H   UNL     1      -1.653   0.708 -12.126  0.00  0.00    +0.000 HD
ATOM     17  H   UNL     1      -1.401  -0.627 -10.993  0.00  0.00    +0.000 HD
ATOM     18  H   UNL     1      -2.037  -0.959 -12.610  0.00  0.00    +0.000 HD
ENDBRANCH   5  15
BRANCH   1  19
ATOM     19  C   UNL     1       4.005  -1.066 -14.337  0.00  0.00    +0.000 C 
BRANCH  19  20
ATOM     20  C   UNL     1       4.631   0.197 -14.929  0.00  0.00    +0.000 C 
ATOM     21  H   UNL     1       3.922   1.032 -14.944  0.00  0.00    +0.000 HD
ATOM     22  H   UNL     1       4.963   0.017 -15.958  0.00  0.00    +0.000 HD
ATOM     23  H   UNL     1       5.531   0.503 -14.385  0.00  0.00    +0.000 HD
ENDBRANCH  19  20
BRANCH  19  24
ATOM     24  C   UNL     1       4.205  -2.253 -15.277  0.00  0.00    +0.000 C 
ATOM     25  H   UNL     1       3.663  -2.135 -16.222  0.00  0.00    +0.000 HD
ATOM     26  H   UNL     1       5.264  -2.438 -15.485  0.00  0.00    +0.000 HD
ATOM     27  H   UNL     1       3.791  -3.167 -14.832  0.00  0.00    +0.000 HD
ENDBRANCH  19  24
BRANCH  19  28
ATOM     28  O   UNL     1       4.673  -1.372 -13.112  0.00  0.00    +0.000 OA
ATOM     29  H   UNL     1       4.302  -2.203 -12.767  0.00  0.00    +0.000 HD
ENDBRANCH  19  28
ENDBRANCH   1  19
TORSDOF 5
ENDMDL
