MODEL 1
REMARK VINA RESULT:    -4.317      0.000      0.000
REMARK INTER + INTRA:          -4.773
REMARK INTER:                  -4.726
REMARK INTRA:                  -0.047
REMARK UNBOUND:                -0.078
REMARK  Name = 12756
REMARK  2 active torsions:
REMARK  status: ('A' for Active; 'I' for Inactive)
REMARK    1  A    between atoms: C_3  and  C_6
REMARK    2  A    between atoms: C_6  and  C_8
REMARK                            x       y       z     vdW  Elec       q    Type
REMARK                         _______ _______ _______ _____ _____    ______ ____
ROOT
ATOM      1  O   UNL     1       3.343  10.095   2.212  0.00  0.00    +0.000 OA
ATOM      2  O   UNL     1       2.949  11.770   0.695  0.00  0.00    +0.000 OA
ATOM      3  C   UNL     1       3.914   8.780   2.150  0.00  0.00    +0.000 C 
ATOM      4  C   UNL     1       4.865   8.839   0.976  0.00  0.00    +0.000 C 
ATOM      5  C   UNL     1       4.149   9.773   0.030  0.00  0.00    +0.000 C 
ATOM      6  C   UNL     1       3.425  10.682   0.978  0.00  0.00    +0.000 C 
ATOM      7  H   UNL     1       3.100   8.070   1.956  0.00  0.00    +0.000 HD
ATOM      8  H   UNL     1       5.071   7.857   0.540  0.00  0.00    +0.000 HD
ATOM      9  H   UNL     1       5.823   9.286   1.270  0.00  0.00    +0.000 HD
ATOM     10  H   UNL     1       4.851  10.331  -0.593  0.00  0.00    +0.000 HD
ATOM     11  H   UNL     1       3.417   9.245  -0.588  0.00  0.00    +0.000 HD
ENDROOT
BRANCH   3  12
ATOM     12  C   UNL     1       4.601   8.454   3.462  0.00  0.00    +0.000 C 
ATOM     13  H   UNL     1       5.280   9.269   3.740  0.00  0.00    +0.000 HD
ATOM     14  H   UNL     1       3.858   8.353   4.264  0.00  0.00    +0.000 HD
BRANCH  12  15
ATOM     15  C   UNL     1       5.387   7.157   3.380  0.00  0.00    +0.000 C 
ATOM     16  H   UNL     1       5.396   6.759   2.360  0.00  0.00    +0.000 HD
ATOM     17  H   UNL     1       6.424   7.304   3.701  0.00  0.00    +0.000 HD
ATOM     18  H   UNL     1       4.936   6.400   4.030  0.00  0.00    +0.000 HD
ENDBRANCH  12  15
ENDBRANCH   3  12
TORSDOF 2
ENDMDL
MODEL 2
REMARK VINA RESULT:    -4.236      2.285      3.546
REMARK INTER + INTRA:          -4.685
REMARK INTER:                  -4.640
REMARK INTRA:                  -0.046
REMARK UNBOUND:                -0.078
REMARK  Name = 12756
REMARK  2 active torsions:
REMARK  status: ('A' for Active; 'I' for Inactive)
REMARK    1  A    between atoms: C_3  and  C_6
REMARK    2  A    between atoms: C_6  and  C_8
REMARK                            x       y       z     vdW  Elec       q    Type
REMARK                         _______ _______ _______ _____ _____    ______ ____
ROOT
ATOM      1  O   UNL     1       4.983  11.785   0.093  0.00  0.00    +0.000 OA
ATOM      2  O   UNL     1       2.839  11.629   0.896  0.00  0.00    +0.000 OA
ATOM      3  C   UNL     1       6.120  10.911   0.053  0.00  0.00    +0.000 C 
ATOM      4  C   UNL     1       5.526   9.521   0.071  0.00  0.00    +0.000 C 
ATOM      5  C   UNL     1       4.309   9.704   0.947  0.00  0.00    +0.000 C 
ATOM      6  C   UNL     1       3.923  11.122   0.651  0.00  0.00    +0.000 C 
ATOM      7  H   UNL     1       6.713  11.092   0.957  0.00  0.00    +0.000 HD
ATOM      8  H   UNL     1       6.218   8.762   0.447  0.00  0.00    +0.000 HD
ATOM      9  H   UNL     1       5.206   9.218  -0.934  0.00  0.00    +0.000 HD
ATOM     10  H   UNL     1       3.509   9.012   0.675  0.00  0.00    +0.000 HD
ATOM     11  H   UNL     1       4.555   9.614   2.009  0.00  0.00    +0.000 HD
ENDROOT
BRANCH   3  12
ATOM     12  C   UNL     1       6.944  11.195  -1.189  0.00  0.00    +0.000 C 
ATOM     13  H   UNL     1       6.304  11.156  -2.078  0.00  0.00    +0.000 HD
ATOM     14  H   UNL     1       7.376  12.202  -1.134  0.00  0.00    +0.000 HD
BRANCH  12  15
ATOM     15  C   UNL     1       8.081  10.200  -1.350  0.00  0.00    +0.000 C 
ATOM     16  H   UNL     1       8.938  10.468  -0.725  0.00  0.00    +0.000 HD
ATOM     17  H   UNL     1       7.761   9.189  -1.079  0.00  0.00    +0.000 HD
ATOM     18  H   UNL     1       8.419  10.180  -2.391  0.00  0.00    +0.000 HD
ENDBRANCH  12  15
ENDBRANCH   3  12
TORSDOF 2
ENDMDL
MODEL 3
REMARK VINA RESULT:    -4.176      1.780      2.142
REMARK INTER + INTRA:          -4.620
REMARK INTER:                  -4.520
REMARK INTRA:                  -0.101
REMARK UNBOUND:                -0.078
REMARK  Name = 12756
REMARK  2 active torsions:
REMARK  status: ('A' for Active; 'I' for Inactive)
REMARK    1  A    between atoms: C_3  and  C_6
REMARK    2  A    between atoms: C_6  and  C_8
REMARK                            x       y       z     vdW  Elec       q    Type
REMARK                         _______ _______ _______ _____ _____    ______ ____
ROOT
ATOM      1  O   UNL     1       4.545   9.422   1.118  0.00  0.00    +0.000 OA
ATOM      2  O   UNL     1       3.219  11.268   1.430  0.00  0.00    +0.000 OA
ATOM      3  C   UNL     1       5.680   9.112   0.296  0.00  0.00    +0.000 C 
ATOM      4  C   UNL     1       6.349  10.448   0.061  0.00  0.00    +0.000 C 
ATOM      5  C   UNL     1       5.170  11.389  -0.001  0.00  0.00    +0.000 C 
ATOM      6  C   UNL     1       4.197  10.733   0.931  0.00  0.00    +0.000 C 
ATOM      7  H   UNL     1       5.307   8.693  -0.646  0.00  0.00    +0.000 HD
ATOM      8  H   UNL     1       6.965  10.467  -0.843  0.00  0.00    +0.000 HD
ATOM      9  H   UNL     1       6.987  10.722   0.911  0.00  0.00    +0.000 HD
ATOM     10  H   UNL     1       5.435  12.391   0.346  0.00  0.00    +0.000 HD
ATOM     11  H   UNL     1       4.733  11.430  -1.003  0.00  0.00    +0.000 HD
ENDROOT
BRANCH   3  12
ATOM     12  C   UNL     1       6.572   8.112   1.007  0.00  0.00    +0.000 C 
ATOM     13  H   UNL     1       6.022   7.179   1.180  0.00  0.00    +0.000 HD
ATOM     14  H   UNL     1       7.444   7.873   0.385  0.00  0.00    +0.000 HD
BRANCH  12  15
ATOM     15  C   UNL     1       7.072   8.649   2.337  0.00  0.00    +0.000 C 
ATOM     16  H   UNL     1       7.665   7.900   2.873  0.00  0.00    +0.000 HD
ATOM     17  H   UNL     1       7.692   9.540   2.195  0.00  0.00    +0.000 HD
ATOM     18  H   UNL     1       6.226   8.924   2.975  0.00  0.00    +0.000 HD
ENDBRANCH  12  15
ENDBRANCH   3  12
TORSDOF 2
ENDMDL
MODEL 4
REMARK VINA RESULT:    -4.105     13.826     14.106
REMARK INTER + INTRA:          -4.542
REMARK INTER:                  -4.513
REMARK INTRA:                  -0.030
REMARK UNBOUND:                -0.078
REMARK  Name = 12756
REMARK  2 active torsions:
REMARK  status: ('A' for Active; 'I' for Inactive)
REMARK    1  A    between atoms: C_3  and  C_6
REMARK    2  A    between atoms: C_6  and  C_8
REMARK                            x       y       z     vdW  Elec       q    Type
REMARK                         _______ _______ _______ _____ _____    ______ ____
ROOT
ATOM      1  O   UNL     1      -1.632   7.817 -11.285  0.00  0.00    +0.000 OA
ATOM      2  O   UNL     1      -0.128   9.088 -12.463  0.00  0.00    +0.000 OA
ATOM      3  C   UNL     1      -2.423   8.012 -10.104  0.00  0.00    +0.000 C 
ATOM      4  C   UNL     1      -2.631   9.508 -10.034  0.00  0.00    +0.000 C 
ATOM      5  C   UNL     1      -1.331  10.039 -10.586  0.00  0.00    +0.000 C 
ATOM      6  C   UNL     1      -0.948   8.970 -11.566  0.00  0.00    +0.000 C 
ATOM      7  H   UNL     1      -1.836   7.660  -9.246  0.00  0.00    +0.000 HD
ATOM      8  H   UNL     1      -2.849   9.864  -9.023  0.00  0.00    +0.000 HD
ATOM      9  H   UNL     1      -3.456   9.819 -10.687  0.00  0.00    +0.000 HD
ATOM     10  H   UNL     1      -1.468  11.001 -11.085  0.00  0.00    +0.000 HD
ATOM     11  H   UNL     1      -0.559  10.109  -9.815  0.00  0.00    +0.000 HD
ENDROOT
BRANCH   3  12
ATOM     12  C   UNL     1      -3.717   7.230 -10.217  0.00  0.00    +0.000 C 
ATOM     13  H   UNL     1      -4.528   7.895 -10.538  0.00  0.00    +0.000 HD
ATOM     14  H   UNL     1      -3.618   6.439 -10.971  0.00  0.00    +0.000 HD
BRANCH  12  15
ATOM     15  C   UNL     1      -4.100   6.580  -8.898  0.00  0.00    +0.000 C 
ATOM     16  H   UNL     1      -4.001   7.281  -8.063  0.00  0.00    +0.000 HD
ATOM     17  H   UNL     1      -5.132   6.218  -8.922  0.00  0.00    +0.000 HD
ATOM     18  H   UNL     1      -3.447   5.725  -8.695  0.00  0.00    +0.000 HD
ENDBRANCH  12  15
ENDBRANCH   3  12
TORSDOF 2
ENDMDL
MODEL 5
REMARK VINA RESULT:    -4.071     13.545     14.397
REMARK INTER + INTRA:          -4.506
REMARK INTER:                  -4.409
REMARK INTRA:                  -0.097
REMARK UNBOUND:                -0.078
REMARK  Name = 12756
REMARK  2 active torsions:
REMARK  status: ('A' for Active; 'I' for Inactive)
REMARK    1  A    between atoms: C_3  and  C_6
REMARK    2  A    between atoms: C_6  and  C_8
REMARK                            x       y       z     vdW  Elec       q    Type
REMARK                         _______ _______ _______ _____ _____    ______ ____
ROOT
ATOM      1  O   UNL     1      -2.675   8.838 -10.894  0.00  0.00    +0.000 OA
ATOM      2  O   UNL     1      -0.847  10.217 -11.037  0.00  0.00    +0.000 OA
ATOM      3  C   UNL     1      -3.035   7.565 -11.449  0.00  0.00    +0.000 C 
ATOM      4  C   UNL     1      -1.712   6.877 -11.699  0.00  0.00    +0.000 C 
ATOM      5  C   UNL     1      -0.818   8.031 -12.082  0.00  0.00    +0.000 C 
ATOM      6  C   UNL     1      -1.402   9.157 -11.283  0.00  0.00    +0.000 C 
ATOM      7  H   UNL     1      -3.562   7.750 -12.394  0.00  0.00    +0.000 HD
ATOM      8  H   UNL     1      -1.770   6.101 -12.467  0.00  0.00    +0.000 HD
ATOM      9  H   UNL     1      -1.332   6.414 -10.779  0.00  0.00    +0.000 HD
ATOM     10  H   UNL     1       0.221   7.845 -11.802  0.00  0.00    +0.000 HD
ATOM     11  H   UNL     1      -0.895   8.270 -13.146  0.00  0.00    +0.000 HD
ENDROOT
BRANCH   3  12
ATOM     12  C   UNL     1      -3.929   6.815 -10.481  0.00  0.00    +0.000 C 
ATOM     13  H   UNL     1      -4.922   7.281 -10.452  0.00  0.00    +0.000 HD
ATOM     14  H   UNL     1      -4.059   5.777 -10.810  0.00  0.00    +0.000 HD
BRANCH  12  15
ATOM     15  C   UNL     1      -3.348   6.797  -9.077  0.00  0.00    +0.000 C 
ATOM     16  H   UNL     1      -3.631   7.693  -8.515  0.00  0.00    +0.000 HD
ATOM     17  H   UNL     1      -3.692   5.920  -8.519  0.00  0.00    +0.000 HD
ATOM     18  H   UNL     1      -2.255   6.762  -9.121  0.00  0.00    +0.000 HD
ENDBRANCH  12  15
ENDBRANCH   3  12
TORSDOF 2
ENDMDL
MODEL 6
REMARK VINA RESULT:    -3.954     27.283     28.627
REMARK INTER + INTRA:          -4.379
REMARK INTER:                  -4.318
REMARK INTRA:                  -0.061
REMARK UNBOUND:                -0.078
REMARK  Name = 12756
REMARK  2 active torsions:
REMARK  status: ('A' for Active; 'I' for Inactive)
REMARK    1  A    between atoms: C_3  and  C_6
REMARK    2  A    between atoms: C_6  and  C_8
REMARK                            x       y       z     vdW  Elec       q    Type
REMARK                         _______ _______ _______ _____ _____    ______ ____
ROOT
ATOM      1  O   UNL     1     -10.242 -10.945  15.217  0.00  0.00    +0.000 OA
ATOM      2  O   UNL     1      -9.089  -9.833  13.575  0.00  0.00    +0.000 OA
ATOM      3  C   UNL     1      -9.972 -12.069  16.067  0.00  0.00    +0.000 C 
ATOM      4  C   UNL     1      -8.466 -12.090  16.194  0.00  0.00    +0.000 C 
ATOM      5  C   UNL     1      -8.023 -11.608  14.834  0.00  0.00    +0.000 C 
ATOM      6  C   UNL     1      -9.138 -10.680  14.454  0.00  0.00    +0.000 C 
ATOM      7  H   UNL     1     -10.332 -12.970  15.554  0.00  0.00    +0.000 HD
ATOM      8  H   UNL     1      -8.070 -13.077  16.453  0.00  0.00    +0.000 HD
ATOM      9  H   UNL     1      -8.127 -11.380  16.958  0.00  0.00    +0.000 HD
ATOM     10  H   UNL     1      -7.069 -11.078  14.885  0.00  0.00    +0.000 HD
ATOM     11  H   UNL     1      -7.974 -12.424  14.108  0.00  0.00    +0.000 HD
ENDROOT
BRANCH   3  12
ATOM     12  C   UNL     1     -10.684 -11.894  17.395  0.00  0.00    +0.000 C 
ATOM     13  H   UNL     1     -10.816 -10.827  17.610  0.00  0.00    +0.000 HD
ATOM     14  H   UNL     1     -11.682 -12.350  17.353  0.00  0.00    +0.000 HD
BRANCH  12  15
ATOM     15  C   UNL     1      -9.916 -12.541  18.535  0.00  0.00    +0.000 C 
ATOM     16  H   UNL     1     -10.523 -12.597  19.444  0.00  0.00    +0.000 HD
ATOM     17  H   UNL     1      -9.597 -13.554  18.271  0.00  0.00    +0.000 HD
ATOM     18  H   UNL     1      -9.021 -11.954  18.767  0.00  0.00    +0.000 HD
ENDBRANCH  12  15
ENDBRANCH   3  12
TORSDOF 2
ENDMDL
MODEL 7
REMARK VINA RESULT:    -3.917      2.922      4.316
REMARK INTER + INTRA:          -4.339
REMARK INTER:                  -4.280
REMARK INTRA:                  -0.059
REMARK UNBOUND:                -0.078
REMARK  Name = 12756
REMARK  2 active torsions:
REMARK  status: ('A' for Active; 'I' for Inactive)
REMARK    1  A    between atoms: C_3  and  C_6
REMARK    2  A    between atoms: C_6  and  C_8
REMARK                            x       y       z     vdW  Elec       q    Type
REMARK                         _______ _______ _______ _____ _____    ______ ____
ROOT
ATOM      1  O   UNL     1       5.661   9.997   0.901  0.00  0.00    +0.000 OA
ATOM      2  O   UNL     1       7.739   9.071   1.197  0.00  0.00    +0.000 OA
ATOM      3  C   UNL     1       5.102  10.979   0.017  0.00  0.00    +0.000 C 
ATOM      4  C   UNL     1       5.973  10.913  -1.217  0.00  0.00    +0.000 C 
ATOM      5  C   UNL     1       7.331  10.603  -0.635  0.00  0.00    +0.000 C 
ATOM      6  C   UNL     1       6.974   9.789   0.573  0.00  0.00    +0.000 C 
ATOM      7  H   UNL     1       5.192  11.958   0.505  0.00  0.00    +0.000 HD
ATOM      8  H   UNL     1       5.955  11.835  -1.805  0.00  0.00    +0.000 HD
ATOM      9  H   UNL     1       5.663  10.089  -1.871  0.00  0.00    +0.000 HD
ATOM     10  H   UNL     1       7.946  10.029  -1.331  0.00  0.00    +0.000 HD
ATOM     11  H   UNL     1       7.853  11.510  -0.314  0.00  0.00    +0.000 HD
ENDROOT
BRANCH   3  12
ATOM     12  C   UNL     1       3.646  10.655  -0.257  0.00  0.00    +0.000 C 
ATOM     13  H   UNL     1       3.494   9.569  -0.230  0.00  0.00    +0.000 HD
ATOM     14  H   UNL     1       3.006  11.099   0.516  0.00  0.00    +0.000 HD
BRANCH  12  15
ATOM     15  C   UNL     1       3.195  11.187  -1.607  0.00  0.00    +0.000 C 
ATOM     16  H   UNL     1       2.221  10.778  -1.893  0.00  0.00    +0.000 HD
ATOM     17  H   UNL     1       3.120  12.279  -1.595  0.00  0.00    +0.000 HD
ATOM     18  H   UNL     1       3.916  10.907  -2.382  0.00  0.00    +0.000 HD
ENDBRANCH  12  15
ENDBRANCH   3  12
TORSDOF 2
ENDMDL
MODEL 8
REMARK VINA RESULT:    -3.809     27.573     28.004
REMARK INTER + INTRA:          -4.221
REMARK INTER:                  -4.145
REMARK INTRA:                  -0.077
REMARK UNBOUND:                -0.078
REMARK  Name = 12756
REMARK  2 active torsions:
REMARK  status: ('A' for Active; 'I' for Inactive)
REMARK    1  A    between atoms: C_3  and  C_6
REMARK    2  A    between atoms: C_6  and  C_8
REMARK                            x       y       z     vdW  Elec       q    Type
REMARK                         _______ _______ _______ _____ _____    ______ ____
ROOT
ATOM      1  O   UNL     1     -20.459  -3.648   5.959  0.00  0.00    +0.000 OA
ATOM      2  O   UNL     1     -20.405  -1.780   7.291  0.00  0.00    +0.000 OA
ATOM      3  C   UNL     1     -21.008  -3.964   4.672  0.00  0.00    +0.000 C 
ATOM      4  C   UNL     1     -21.047  -2.638   3.945  0.00  0.00    +0.000 C 
ATOM      5  C   UNL     1     -21.350  -1.669   5.063  0.00  0.00    +0.000 C 
ATOM      6  C   UNL     1     -20.683  -2.326   6.234  0.00  0.00    +0.000 C 
ATOM      7  H   UNL     1     -22.022  -4.353   4.827  0.00  0.00    +0.000 HD
ATOM      8  H   UNL     1     -21.786  -2.612   3.139  0.00  0.00    +0.000 HD
ATOM      9  H   UNL     1     -20.067  -2.399   3.514  0.00  0.00    +0.000 HD
ATOM     10  H   UNL     1     -20.924  -0.683   4.867  0.00  0.00    +0.000 HD
ATOM     11  H   UNL     1     -22.424  -1.595   5.258  0.00  0.00    +0.000 HD
ENDROOT
BRANCH   3  12
ATOM     12  C   UNL     1     -20.141  -5.000   3.983  0.00  0.00    +0.000 C 
ATOM     13  H   UNL     1     -20.737  -5.893   3.755  0.00  0.00    +0.000 HD
ATOM     14  H   UNL     1     -19.759  -4.605   3.033  0.00  0.00    +0.000 HD
BRANCH  12  15
ATOM     15  C   UNL     1     -18.953  -5.401   4.841  0.00  0.00    +0.000 C 
ATOM     16  H   UNL     1     -19.191  -5.339   5.907  0.00  0.00    +0.000 HD
ATOM     17  H   UNL     1     -18.634  -6.425   4.619  0.00  0.00    +0.000 HD
ATOM     18  H   UNL     1     -18.106  -4.735   4.647  0.00  0.00    +0.000 HD
ENDBRANCH  12  15
ENDBRANCH   3  12
TORSDOF 2
ENDMDL
MODEL 9
REMARK VINA RESULT:    -3.797     27.895     28.460
REMARK INTER + INTRA:          -4.208
REMARK INTER:                  -4.123
REMARK INTRA:                  -0.085
REMARK UNBOUND:                -0.078
REMARK  Name = 12756
REMARK  2 active torsions:
REMARK  status: ('A' for Active; 'I' for Inactive)
REMARK    1  A    between atoms: C_3  and  C_6
REMARK    2  A    between atoms: C_6  and  C_8
REMARK                            x       y       z     vdW  Elec       q    Type
REMARK                         _______ _______ _______ _____ _____    ______ ____
ROOT
ATOM      1  O   UNL     1     -21.985  -2.611   6.667  0.00  0.00    +0.000 OA
ATOM      2  O   UNL     1     -22.318  -2.552   8.936  0.00  0.00    +0.000 OA
ATOM      3  C   UNL     1     -21.422  -1.714   5.698  0.00  0.00    +0.000 C 
ATOM      4  C   UNL     1     -20.434  -0.884   6.485  0.00  0.00    +0.000 C 
ATOM      5  C   UNL     1     -21.112  -0.766   7.829  0.00  0.00    +0.000 C 
ATOM      6  C   UNL     1     -21.859  -2.063   7.916  0.00  0.00    +0.000 C 
ATOM      7  H   UNL     1     -22.235  -1.088   5.310  0.00  0.00    +0.000 HD
ATOM      8  H   UNL     1     -20.221   0.084   6.022  0.00  0.00    +0.000 HD
ATOM      9  H   UNL     1     -19.482  -1.417   6.606  0.00  0.00    +0.000 HD
ATOM     10  H   UNL     1     -20.387  -0.673   8.640  0.00  0.00    +0.000 HD
ATOM     11  H   UNL     1     -21.828   0.061   7.853  0.00  0.00    +0.000 HD
ENDROOT
BRANCH   3  12
ATOM     12  C   UNL     1     -20.780  -2.507   4.576  0.00  0.00    +0.000 C 
ATOM     13  H   UNL     1     -21.467  -2.570   3.723  0.00  0.00    +0.000 HD
ATOM     14  H   UNL     1     -19.867  -2.006   4.231  0.00  0.00    +0.000 HD
BRANCH  12  15
ATOM     15  C   UNL     1     -20.409  -3.912   5.019  0.00  0.00    +0.000 C 
ATOM     16  H   UNL     1     -20.681  -4.086   6.065  0.00  0.00    +0.000 HD
ATOM     17  H   UNL     1     -20.911  -4.665   4.404  0.00  0.00    +0.000 HD
ATOM     18  H   UNL     1     -19.329  -4.064   4.925  0.00  0.00    +0.000 HD
ENDBRANCH  12  15
ENDBRANCH   3  12
TORSDOF 2
ENDMDL
MODEL 10
REMARK VINA RESULT:    -3.737     27.954     28.481
REMARK INTER + INTRA:          -4.143
REMARK INTER:                  -4.065
REMARK INTRA:                  -0.078
REMARK UNBOUND:                -0.078
REMARK  Name = 12756
REMARK  2 active torsions:
REMARK  status: ('A' for Active; 'I' for Inactive)
REMARK    1  A    between atoms: C_3  and  C_6
REMARK    2  A    between atoms: C_6  and  C_8
REMARK                            x       y       z     vdW  Elec       q    Type
REMARK                         _______ _______ _______ _____ _____    ______ ____
ROOT
ATOM      1  O   UNL     1     -21.527  -2.608   7.114  0.00  0.00    +0.000 OA
ATOM      2  O   UNL     1     -22.034  -4.114   5.459  0.00  0.00    +0.000 OA
ATOM      3  C   UNL     1     -20.735  -1.414   7.195  0.00  0.00    +0.000 C 
ATOM      4  C   UNL     1     -20.739  -0.864   5.787  0.00  0.00    +0.000 C 
ATOM      5  C   UNL     1     -20.750  -2.122   4.952  0.00  0.00    +0.000 C 
ATOM      6  C   UNL     1     -21.517  -3.070   5.825  0.00  0.00    +0.000 C 
ATOM      7  H   UNL     1     -19.721  -1.706   7.496  0.00  0.00    +0.000 HD
ATOM      8  H   UNL     1     -19.885  -0.214   5.577  0.00  0.00    +0.000 HD
ATOM      9  H   UNL     1     -21.655  -0.293   5.592  0.00  0.00    +0.000 HD
ATOM     10  H   UNL     1     -21.257  -1.967   3.997  0.00  0.00    +0.000 HD
ATOM     11  H   UNL     1     -19.742  -2.517   4.796  0.00  0.00    +0.000 HD
ENDROOT
BRANCH   3  12
ATOM     12  C   UNL     1     -21.338  -0.465   8.212  0.00  0.00    +0.000 C 
ATOM     13  H   UNL     1     -20.625  -0.289   9.027  0.00  0.00    +0.000 HD
ATOM     14  H   UNL     1     -21.554   0.504   7.745  0.00  0.00    +0.000 HD
BRANCH  12  15
ATOM     15  C   UNL     1     -22.632  -1.009   8.793  0.00  0.00    +0.000 C 
ATOM     16  H   UNL     1     -22.639  -0.946   9.885  0.00  0.00    +0.000 HD
ATOM     17  H   UNL     1     -23.498  -0.458   8.411  0.00  0.00    +0.000 HD
ATOM     18  H   UNL     1     -22.755  -2.062   8.518  0.00  0.00    +0.000 HD
ENDBRANCH  12  15
ENDBRANCH   3  12
TORSDOF 2
ENDMDL
