MODEL 1
REMARK VINA RESULT:    -3.907      0.000      0.000
REMARK INTER + INTRA:          -4.619
REMARK INTER:                  -4.616
REMARK INTRA:                  -0.003
REMARK UNBOUND:                -0.026
REMARK  Name = 263
REMARK  4 active torsions:
REMARK  status: ('A' for Active; 'I' for Inactive)
REMARK    1  A    between atoms: O_1  and  C_4
REMARK    2  A    between atoms: C_2  and  C_3
REMARK    3  A    between atoms: C_2  and  C_4
REMARK    4  A    between atoms: C_3  and  C_5
REMARK                            x       y       z     vdW  Elec       q    Type
REMARK                         _______ _______ _______ _____ _____    ______ ____
ROOT
ATOM      1  C   UNL     1       5.125  -6.300  -9.760  0.00  0.00    +0.000 C 
ATOM      2  H   UNL     1       5.009  -5.232  -9.535  0.00  0.00    +0.000 HD
ATOM      3  H   UNL     1       4.808  -6.423 -10.804  0.00  0.00    +0.000 HD
ENDROOT
BRANCH   1   4
ATOM      4  C   UNL     1       6.585  -6.717  -9.604  0.00  0.00    +0.000 C 
ATOM      5  H   UNL     1       7.158  -6.403 -10.485  0.00  0.00    +0.000 HD
ATOM      6  H   UNL     1       6.656  -7.809  -9.543  0.00  0.00    +0.000 HD
BRANCH   4   7
ATOM      7  C   UNL     1       7.211  -6.103  -8.363  0.00  0.00    +0.000 C 
ATOM      8  H   UNL     1       8.137  -6.619  -8.093  0.00  0.00    +0.000 HD
ATOM      9  H   UNL     1       7.441  -5.044  -8.523  0.00  0.00    +0.000 HD
ATOM     10  H   UNL     1       6.522  -6.176  -7.515  0.00  0.00    +0.000 HD
ENDBRANCH   4   7
ENDBRANCH   1   4
BRANCH   1  11
ATOM     11  C   UNL     1       4.210  -7.111  -8.855  0.00  0.00    +0.000 C 
ATOM     12  H   UNL     1       4.736  -7.957  -8.402  0.00  0.00    +0.000 HD
ATOM     13  H   UNL     1       3.798  -6.489  -8.053  0.00  0.00    +0.000 HD
BRANCH  11  14
ATOM     14  O   UNL     1       3.127  -7.611  -9.627  0.00  0.00    +0.000 OA
ATOM     15  H   UNL     1       3.052  -8.563  -9.445  0.00  0.00    +0.000 HD
ENDBRANCH  11  14
ENDBRANCH   1  11
TORSDOF 4
ENDMDL
MODEL 2
REMARK VINA RESULT:    -3.495      5.724      6.786
REMARK INTER + INTRA:          -4.134
REMARK INTER:                  -4.131
REMARK INTRA:                  -0.003
REMARK UNBOUND:                -0.026
REMARK  Name = 263
REMARK  4 active torsions:
REMARK  status: ('A' for Active; 'I' for Inactive)
REMARK    1  A    between atoms: O_1  and  C_4
REMARK    2  A    between atoms: C_2  and  C_3
REMARK    3  A    between atoms: C_2  and  C_4
REMARK    4  A    between atoms: C_3  and  C_5
REMARK                            x       y       z     vdW  Elec       q    Type
REMARK                         _______ _______ _______ _____ _____    ______ ____
ROOT
ATOM      1  C   UNL     1      -0.737  -5.087  -6.433  0.00  0.00    +0.000 C 
ATOM      2  H   UNL     1      -0.242  -4.116  -6.570  0.00  0.00    +0.000 HD
ATOM      3  H   UNL     1      -1.813  -4.889  -6.515  0.00  0.00    +0.000 HD
ENDROOT
BRANCH   1   4
ATOM      4  C   UNL     1      -0.299  -6.060  -7.524  0.00  0.00    +0.000 C 
ATOM      5  H   UNL     1      -0.867  -5.870  -8.442  0.00  0.00    +0.000 HD
ATOM      6  H   UNL     1      -0.516  -7.089  -7.214  0.00  0.00    +0.000 HD
BRANCH   4   7
ATOM      7  C   UNL     1       1.185  -5.930  -7.824  0.00  0.00    +0.000 C 
ATOM      8  H   UNL     1       1.384  -5.060  -8.458  0.00  0.00    +0.000 HD
ATOM      9  H   UNL     1       1.764  -5.822  -6.900  0.00  0.00    +0.000 HD
ATOM     10  H   UNL     1       1.546  -6.821  -8.348  0.00  0.00    +0.000 HD
ENDBRANCH   4   7
ENDBRANCH   1   4
BRANCH   1  11
ATOM     11  C   UNL     1      -0.426  -5.623  -5.043  0.00  0.00    +0.000 C 
ATOM     12  H   UNL     1      -0.247  -6.702  -5.058  0.00  0.00    +0.000 HD
ATOM     13  H   UNL     1       0.456  -5.131  -4.620  0.00  0.00    +0.000 HD
BRANCH  11  14
ATOM     14  O   UNL     1      -1.532  -5.358  -4.191  0.00  0.00    +0.000 OA
ATOM     15  H   UNL     1      -2.098  -6.149  -4.190  0.00  0.00    +0.000 HD
ENDBRANCH  11  14
ENDBRANCH   1  11
TORSDOF 4
ENDMDL
MODEL 3
REMARK VINA RESULT:    -3.224      3.463      4.003
REMARK INTER + INTRA:          -3.816
REMARK INTER:                  -3.811
REMARK INTRA:                  -0.005
REMARK UNBOUND:                -0.026
REMARK  Name = 263
REMARK  4 active torsions:
REMARK  status: ('A' for Active; 'I' for Inactive)
REMARK    1  A    between atoms: O_1  and  C_4
REMARK    2  A    between atoms: C_2  and  C_3
REMARK    3  A    between atoms: C_2  and  C_4
REMARK    4  A    between atoms: C_3  and  C_5
REMARK                            x       y       z     vdW  Elec       q    Type
REMARK                         _______ _______ _______ _____ _____    ______ ____
ROOT
ATOM      1  C   UNL     1       3.550  -4.448 -12.083  0.00  0.00    +0.000 C 
ATOM      2  H   UNL     1       3.049  -5.172 -11.428  0.00  0.00    +0.000 HD
ATOM      3  H   UNL     1       3.067  -3.482 -11.887  0.00  0.00    +0.000 HD
ENDROOT
BRANCH   1   4
ATOM      4  C   UNL     1       5.036  -4.368 -11.742  0.00  0.00    +0.000 C 
ATOM      5  H   UNL     1       5.302  -3.337 -11.477  0.00  0.00    +0.000 HD
ATOM      6  H   UNL     1       5.634  -4.643 -12.618  0.00  0.00    +0.000 HD
BRANCH   4   7
ATOM      7  C   UNL     1       5.392  -5.284 -10.583  0.00  0.00    +0.000 C 
ATOM      8  H   UNL     1       5.678  -6.278 -10.941  0.00  0.00    +0.000 HD
ATOM      9  H   UNL     1       6.226  -4.875 -10.001  0.00  0.00    +0.000 HD
ATOM     10  H   UNL     1       4.535  -5.399  -9.912  0.00  0.00    +0.000 HD
ENDBRANCH   4   7
ENDBRANCH   1   4
BRANCH   1  11
ATOM     11  C   UNL     1       3.328  -4.840 -13.536  0.00  0.00    +0.000 C 
ATOM     12  H   UNL     1       3.020  -3.983 -14.142  0.00  0.00    +0.000 HD
ATOM     13  H   UNL     1       4.238  -5.264 -13.973  0.00  0.00    +0.000 HD
BRANCH  11  14
ATOM     14  O   UNL     1       2.307  -5.827 -13.594  0.00  0.00    +0.000 OA
ATOM     15  H   UNL     1       2.739  -6.690 -13.709  0.00  0.00    +0.000 HD
ENDBRANCH  11  14
ENDBRANCH   1  11
TORSDOF 4
ENDMDL
MODEL 4
REMARK VINA RESULT:    -3.212      2.404      4.017
REMARK INTER + INTRA:          -3.802
REMARK INTER:                  -3.769
REMARK INTRA:                  -0.033
REMARK UNBOUND:                -0.026
REMARK  Name = 263
REMARK  4 active torsions:
REMARK  status: ('A' for Active; 'I' for Inactive)
REMARK    1  A    between atoms: O_1  and  C_4
REMARK    2  A    between atoms: C_2  and  C_3
REMARK    3  A    between atoms: C_2  and  C_4
REMARK    4  A    between atoms: C_3  and  C_5
REMARK                            x       y       z     vdW  Elec       q    Type
REMARK                         _______ _______ _______ _____ _____    ______ ____
ROOT
ATOM      1  C   UNL     1       2.996  -6.440  -7.380  0.00  0.00    +0.000 C 
ATOM      2  H   UNL     1       3.679  -5.764  -6.850  0.00  0.00    +0.000 HD
ATOM      3  H   UNL     1       2.517  -7.051  -6.604  0.00  0.00    +0.000 HD
ENDROOT
BRANCH   1   4
ATOM      4  C   UNL     1       1.942  -5.637  -8.138  0.00  0.00    +0.000 C 
ATOM      5  H   UNL     1       1.976  -5.892  -9.203  0.00  0.00    +0.000 HD
ATOM      6  H   UNL     1       2.158  -4.566  -8.052  0.00  0.00    +0.000 HD
BRANCH   4   7
ATOM      7  C   UNL     1       0.544  -5.911  -7.607  0.00  0.00    +0.000 C 
ATOM      8  H   UNL     1       0.434  -6.959  -7.311  0.00  0.00    +0.000 HD
ATOM      9  H   UNL     1       0.325  -5.283  -6.737  0.00  0.00    +0.000 HD
ATOM     10  H   UNL     1      -0.203  -5.696  -8.378  0.00  0.00    +0.000 HD
ENDBRANCH   4   7
ENDBRANCH   1   4
BRANCH   1  11
ATOM     11  C   UNL     1       3.794  -7.341  -8.311  0.00  0.00    +0.000 C 
ATOM     12  H   UNL     1       4.760  -6.897  -8.570  0.00  0.00    +0.000 HD
ATOM     13  H   UNL     1       3.973  -8.319  -7.854  0.00  0.00    +0.000 HD
BRANCH  11  14
ATOM     14  O   UNL     1       3.050  -7.540  -9.506  0.00  0.00    +0.000 OA
ATOM     15  H   UNL     1       3.186  -8.461  -9.786  0.00  0.00    +0.000 HD
ENDBRANCH  11  14
ENDBRANCH   1  11
TORSDOF 4
ENDMDL
MODEL 5
REMARK VINA RESULT:    -3.148      4.257      5.243
REMARK INTER + INTRA:          -3.727
REMARK INTER:                  -3.695
REMARK INTRA:                  -0.032
REMARK UNBOUND:                -0.026
REMARK  Name = 263
REMARK  4 active torsions:
REMARK  status: ('A' for Active; 'I' for Inactive)
REMARK    1  A    between atoms: O_1  and  C_4
REMARK    2  A    between atoms: C_2  and  C_3
REMARK    3  A    between atoms: C_2  and  C_4
REMARK    4  A    between atoms: C_3  and  C_5
REMARK                            x       y       z     vdW  Elec       q    Type
REMARK                         _______ _______ _______ _____ _____    ______ ____
ROOT
ATOM      1  C   UNL     1       1.119  -4.824  -6.839  0.00  0.00    +0.000 C 
ATOM      2  H   UNL     1       2.048  -4.239  -6.822  0.00  0.00    +0.000 HD
ATOM      3  H   UNL     1       0.325  -4.116  -7.107  0.00  0.00    +0.000 HD
ENDROOT
BRANCH   1   4
ATOM      4  C   UNL     1       1.211  -5.929  -7.887  0.00  0.00    +0.000 C 
ATOM      5  H   UNL     1       0.940  -5.531  -8.872  0.00  0.00    +0.000 HD
ATOM      6  H   UNL     1       0.496  -6.726  -7.651  0.00  0.00    +0.000 HD
BRANCH   4   7
ATOM      7  C   UNL     1       2.611  -6.516  -7.958  0.00  0.00    +0.000 C 
ATOM      8  H   UNL     1       2.999  -6.485  -8.981  0.00  0.00    +0.000 HD
ATOM      9  H   UNL     1       3.301  -5.963  -7.311  0.00  0.00    +0.000 HD
ATOM     10  H   UNL     1       2.602  -7.560  -7.630  0.00  0.00    +0.000 HD
ENDBRANCH   4   7
ENDBRANCH   1   4
BRANCH   1  11
ATOM     11  C   UNL     1       0.849  -5.386  -5.451  0.00  0.00    +0.000 C 
ATOM     12  H   UNL     1       0.067  -4.823  -4.933  0.00  0.00    +0.000 HD
ATOM     13  H   UNL     1       0.542  -6.436  -5.505  0.00  0.00    +0.000 HD
BRANCH  11  14
ATOM     14  O   UNL     1       2.044  -5.313  -4.685  0.00  0.00    +0.000 OA
ATOM     15  H   UNL     1       2.723  -5.830  -5.151  0.00  0.00    +0.000 HD
ENDBRANCH  11  14
ENDBRANCH   1  11
TORSDOF 4
ENDMDL
MODEL 6
REMARK VINA RESULT:    -3.081     25.091     25.321
REMARK INTER + INTRA:          -3.648
REMARK INTER:                  -3.629
REMARK INTRA:                  -0.019
REMARK UNBOUND:                -0.026
REMARK  Name = 263
REMARK  4 active torsions:
REMARK  status: ('A' for Active; 'I' for Inactive)
REMARK    1  A    between atoms: O_1  and  C_4
REMARK    2  A    between atoms: C_2  and  C_3
REMARK    3  A    between atoms: C_2  and  C_4
REMARK    4  A    between atoms: C_3  and  C_5
REMARK                            x       y       z     vdW  Elec       q    Type
REMARK                         _______ _______ _______ _____ _____    ______ ____
ROOT
ATOM      1  C   UNL     1     -15.775 -15.513   3.270  0.00  0.00    +0.000 C 
ATOM      2  H   UNL     1     -16.738 -15.907   3.620  0.00  0.00    +0.000 HD
ATOM      3  H   UNL     1     -15.898 -14.423   3.217  0.00  0.00    +0.000 HD
ENDROOT
BRANCH   1   4
ATOM      4  C   UNL     1     -14.668 -15.867   4.259  0.00  0.00    +0.000 C 
ATOM      5  H   UNL     1     -13.834 -16.343   3.729  0.00  0.00    +0.000 HD
ATOM      6  H   UNL     1     -15.042 -16.591   4.992  0.00  0.00    +0.000 HD
BRANCH   4   7
ATOM      7  C   UNL     1     -14.154 -14.636   4.986  0.00  0.00    +0.000 C 
ATOM      8  H   UNL     1     -13.749 -14.899   5.968  0.00  0.00    +0.000 HD
ATOM      9  H   UNL     1     -13.365 -14.140   4.409  0.00  0.00    +0.000 HD
ATOM     10  H   UNL     1     -14.966 -13.917   5.135  0.00  0.00    +0.000 HD
ENDBRANCH   4   7
ENDBRANCH   1   4
BRANCH   1  11
ATOM     11  C   UNL     1     -15.482 -16.056   1.879  0.00  0.00    +0.000 C 
ATOM     12  H   UNL     1     -14.750 -16.869   1.910  0.00  0.00    +0.000 HD
ATOM     13  H   UNL     1     -16.394 -16.428   1.401  0.00  0.00    +0.000 HD
BRANCH  11  14
ATOM     14  O   UNL     1     -14.959 -15.005   1.077  0.00  0.00    +0.000 OA
ATOM     15  H   UNL     1     -15.010 -14.186   1.597  0.00  0.00    +0.000 HD
ENDBRANCH  11  14
ENDBRANCH   1  11
TORSDOF 4
ENDMDL
MODEL 7
REMARK VINA RESULT:    -3.048      5.638      5.973
REMARK INTER + INTRA:          -3.609
REMARK INTER:                  -3.577
REMARK INTRA:                  -0.032
REMARK UNBOUND:                -0.026
REMARK  Name = 263
REMARK  4 active torsions:
REMARK  status: ('A' for Active; 'I' for Inactive)
REMARK    1  A    between atoms: O_1  and  C_4
REMARK    2  A    between atoms: C_2  and  C_3
REMARK    3  A    between atoms: C_2  and  C_4
REMARK    4  A    between atoms: C_3  and  C_5
REMARK                            x       y       z     vdW  Elec       q    Type
REMARK                         _______ _______ _______ _____ _____    ______ ____
ROOT
ATOM      1  C   UNL     1      -0.362  -5.989  -7.221  0.00  0.00    +0.000 C 
ATOM      2  H   UNL     1       0.292  -6.842  -7.449  0.00  0.00    +0.000 HD
ATOM      3  H   UNL     1      -1.384  -6.333  -7.422  0.00  0.00    +0.000 HD
ENDROOT
BRANCH   1   4
ATOM      4  C   UNL     1      -0.222  -5.595  -5.753  0.00  0.00    +0.000 C 
ATOM      5  H   UNL     1      -0.666  -6.368  -5.116  0.00  0.00    +0.000 HD
ATOM      6  H   UNL     1      -0.769  -4.664  -5.564  0.00  0.00    +0.000 HD
BRANCH   4   7
ATOM      7  C   UNL     1       1.235  -5.409  -5.362  0.00  0.00    +0.000 C 
ATOM      8  H   UNL     1       1.828  -5.053  -6.211  0.00  0.00    +0.000 HD
ATOM      9  H   UNL     1       1.333  -4.684  -4.547  0.00  0.00    +0.000 HD
ATOM     10  H   UNL     1       1.662  -6.359  -5.025  0.00  0.00    +0.000 HD
ENDBRANCH   4   7
ENDBRANCH   1   4
BRANCH   1  11
ATOM     11  C   UNL     1      -0.025  -4.831  -8.149  0.00  0.00    +0.000 C 
ATOM     12  H   UNL     1      -0.837  -4.632  -8.856  0.00  0.00    +0.000 HD
ATOM     13  H   UNL     1       0.171  -3.916  -7.581  0.00  0.00    +0.000 HD
BRANCH  11  14
ATOM     14  O   UNL     1       1.147  -5.157  -8.884  0.00  0.00    +0.000 OA
ATOM     15  H   UNL     1       1.006  -6.029  -9.290  0.00  0.00    +0.000 HD
ENDBRANCH  11  14
ENDBRANCH   1  11
TORSDOF 4
ENDMDL
MODEL 8
REMARK VINA RESULT:    -3.045      5.111      6.108
REMARK INTER + INTRA:          -3.606
REMARK INTER:                  -3.604
REMARK INTRA:                  -0.002
REMARK UNBOUND:                -0.026
REMARK  Name = 263
REMARK  4 active torsions:
REMARK  status: ('A' for Active; 'I' for Inactive)
REMARK    1  A    between atoms: O_1  and  C_4
REMARK    2  A    between atoms: C_2  and  C_3
REMARK    3  A    between atoms: C_2  and  C_4
REMARK    4  A    between atoms: C_3  and  C_5
REMARK                            x       y       z     vdW  Elec       q    Type
REMARK                         _______ _______ _______ _____ _____    ______ ____
ROOT
ATOM      1  C   UNL     1       3.685  -4.606 -13.770  0.00  0.00    +0.000 C 
ATOM      2  H   UNL     1       4.501  -5.179 -14.228  0.00  0.00    +0.000 HD
ATOM      3  H   UNL     1       3.683  -3.631 -14.273  0.00  0.00    +0.000 HD
ENDROOT
BRANCH   1   4
ATOM      4  C   UNL     1       2.352  -5.314 -13.996  0.00  0.00    +0.000 C 
ATOM      5  H   UNL     1       1.744  -5.263 -13.085  0.00  0.00    +0.000 HD
ATOM      6  H   UNL     1       2.525  -6.374 -14.211  0.00  0.00    +0.000 HD
BRANCH   4   7
ATOM      7  C   UNL     1       1.576  -4.689 -15.144  0.00  0.00    +0.000 C 
ATOM      8  H   UNL     1       2.254  -4.278 -15.898  0.00  0.00    +0.000 HD
ATOM      9  H   UNL     1       0.929  -5.428 -15.628  0.00  0.00    +0.000 HD
ATOM     10  H   UNL     1       0.944  -3.875 -14.776  0.00  0.00    +0.000 HD
ENDBRANCH   4   7
ENDBRANCH   1   4
BRANCH   1  11
ATOM     11  C   UNL     1       3.973  -4.409 -12.289  0.00  0.00    +0.000 C 
ATOM     12  H   UNL     1       3.074  -4.115 -11.739  0.00  0.00    +0.000 HD
ATOM     13  H   UNL     1       4.369  -5.326 -11.840  0.00  0.00    +0.000 HD
BRANCH  11  14
ATOM     14  O   UNL     1       4.950  -3.387 -12.143  0.00  0.00    +0.000 OA
ATOM     15  H   UNL     1       5.825  -3.807 -12.201  0.00  0.00    +0.000 HD
ENDBRANCH  11  14
ENDBRANCH   1  11
TORSDOF 4
ENDMDL
MODEL 9
REMARK VINA RESULT:    -3.020     12.904     13.351
REMARK INTER + INTRA:          -3.576
REMARK INTER:                  -3.571
REMARK INTRA:                  -0.005
REMARK UNBOUND:                -0.026
REMARK  Name = 263
REMARK  4 active torsions:
REMARK  status: ('A' for Active; 'I' for Inactive)
REMARK    1  A    between atoms: O_1  and  C_4
REMARK    2  A    between atoms: C_2  and  C_3
REMARK    3  A    between atoms: C_2  and  C_4
REMARK    4  A    between atoms: C_3  and  C_5
REMARK                            x       y       z     vdW  Elec       q    Type
REMARK                         _______ _______ _______ _____ _____    ______ ____
ROOT
ATOM      1  C   UNL     1      17.236  -6.059  -3.081  0.00  0.00    +0.000 C 
ATOM      2  H   UNL     1      16.310  -6.604  -3.307  0.00  0.00    +0.000 HD
ATOM      3  H   UNL     1      17.690  -6.579  -2.228  0.00  0.00    +0.000 HD
ENDROOT
BRANCH   1   4
ATOM      4  C   UNL     1      18.179  -6.101  -4.281  0.00  0.00    +0.000 C 
ATOM      5  H   UNL     1      19.117  -6.593  -3.999  0.00  0.00    +0.000 HD
ATOM      6  H   UNL     1      18.428  -5.081  -4.594  0.00  0.00    +0.000 HD
BRANCH   4   7
ATOM      7  C   UNL     1      17.560  -6.848  -5.451  0.00  0.00    +0.000 C 
ATOM      8  H   UNL     1      16.470  -6.891  -5.358  0.00  0.00    +0.000 HD
ATOM      9  H   UNL     1      17.805  -6.361  -6.401  0.00  0.00    +0.000 HD
ATOM     10  H   UNL     1      17.938  -7.875  -5.488  0.00  0.00    +0.000 HD
ENDBRANCH   4   7
ENDBRANCH   1   4
BRANCH   1  11
ATOM     11  C   UNL     1      16.899  -4.630  -2.681  0.00  0.00    +0.000 C 
ATOM     12  H   UNL     1      17.468  -4.312  -1.802  0.00  0.00    +0.000 HD
ATOM     13  H   UNL     1      17.107  -3.933  -3.499  0.00  0.00    +0.000 HD
BRANCH  11  14
ATOM     14  O   UNL     1      15.513  -4.554  -2.376  0.00  0.00    +0.000 OA
ATOM     15  H   UNL     1      15.067  -4.146  -3.137  0.00  0.00    +0.000 HD
ENDBRANCH  11  14
ENDBRANCH   1  11
TORSDOF 4
ENDMDL
MODEL 10
REMARK VINA RESULT:    -2.897     24.553     25.168
REMARK INTER + INTRA:          -3.431
REMARK INTER:                  -3.405
REMARK INTRA:                  -0.026
REMARK UNBOUND:                -0.026
REMARK  Name = 263
REMARK  4 active torsions:
REMARK  status: ('A' for Active; 'I' for Inactive)
REMARK    1  A    between atoms: O_1  and  C_4
REMARK    2  A    between atoms: C_2  and  C_3
REMARK    3  A    between atoms: C_2  and  C_4
REMARK    4  A    between atoms: C_3  and  C_5
REMARK                            x       y       z     vdW  Elec       q    Type
REMARK                         _______ _______ _______ _____ _____    ______ ____
ROOT
ATOM      1  C   UNL     1      13.583  16.857 -11.032  0.00  0.00    +0.000 C 
ATOM      2  H   UNL     1      14.564  17.143 -11.433  0.00  0.00    +0.000 HD
ATOM      3  H   UNL     1      13.788  16.267 -10.130  0.00  0.00    +0.000 HD
ENDROOT
BRANCH   1   4
ATOM      4  C   UNL     1      12.777  18.102 -10.671  0.00  0.00    +0.000 C 
ATOM      5  H   UNL     1      13.448  18.965 -10.579  0.00  0.00    +0.000 HD
ATOM      6  H   UNL     1      12.292  17.962  -9.698  0.00  0.00    +0.000 HD
BRANCH   4   7
ATOM      7  C   UNL     1      11.720  18.406 -11.720  0.00  0.00    +0.000 C 
ATOM      8  H   UNL     1      10.795  18.760 -11.254  0.00  0.00    +0.000 HD
ATOM      9  H   UNL     1      12.070  19.173 -12.419  0.00  0.00    +0.000 HD
ATOM     10  H   UNL     1      11.486  17.504 -12.295  0.00  0.00    +0.000 HD
ENDBRANCH   4   7
ENDBRANCH   1   4
BRANCH   1  11
ATOM     11  C   UNL     1      12.853  15.991 -12.048  0.00  0.00    +0.000 C 
ATOM     12  H   UNL     1      12.235  15.231 -11.560  0.00  0.00    +0.000 HD
ATOM     13  H   UNL     1      12.210  16.598 -12.693  0.00  0.00    +0.000 HD
BRANCH  11  14
ATOM     14  O   UNL     1      13.813  15.338 -12.868  0.00  0.00    +0.000 OA
ATOM     15  H   UNL     1      14.030  15.939 -13.601  0.00  0.00    +0.000 HD
ENDBRANCH  11  14
ENDBRANCH   1  11
TORSDOF 4
ENDMDL
