MODEL 1
REMARK VINA RESULT:    -4.048      0.000      0.000
REMARK INTER + INTRA:          -7.072
REMARK INTER:                  -6.291
REMARK INTRA:                  -0.781
REMARK UNBOUND:                -0.895
REMARK  Name = 8174
REMARK  10 active torsions:
REMARK  status: ('A' for Active; 'I' for Inactive)
REMARK    1  A    between atoms: O_1  and  C_10
REMARK    2  A    between atoms: C_2  and  C_3
REMARK    3  A    between atoms: C_2  and  C_4
REMARK    4  A    between atoms: C_3  and  C_5
REMARK    5  A    between atoms: C_4  and  C_6
REMARK    6  A    between atoms: C_5  and  C_7
REMARK    7  A    between atoms: C_6  and  C_8
REMARK    8  A    between atoms: C_7  and  C_9
REMARK    9  A    between atoms: C_8  and  C_10
REMARK   10  A    between atoms: C_9  and  C_11
REMARK                            x       y       z     vdW  Elec       q    Type
REMARK                         _______ _______ _______ _____ _____    ______ ____
ROOT
ATOM      1  C   UNL     1      17.219  -5.029  -3.200  0.00  0.00    +0.000 C 
ATOM      2  H   UNL     1      17.971  -5.076  -2.403  0.00  0.00    +0.000 HD
ATOM      3  H   UNL     1      17.379  -4.081  -3.730  0.00  0.00    +0.000 HD
ENDROOT
BRANCH   1   4
ATOM      4  C   UNL     1      15.825  -5.017  -2.566  0.00  0.00    +0.000 C 
ATOM      5  H   UNL     1      15.091  -4.697  -3.316  0.00  0.00    +0.000 HD
ATOM      6  H   UNL     1      15.807  -4.266  -1.767  0.00  0.00    +0.000 HD
BRANCH   4   7
ATOM      7  C   UNL     1      15.405  -6.371  -1.992  0.00  0.00    +0.000 C 
ATOM      8  H   UNL     1      14.381  -6.603  -2.306  0.00  0.00    +0.000 HD
ATOM      9  H   UNL     1      16.055  -7.157  -2.399  0.00  0.00    +0.000 HD
BRANCH   7  10
ATOM     10  C   UNL     1      15.494  -6.376  -0.464  0.00  0.00    +0.000 C 
ATOM     11  H   UNL     1      14.498  -6.551  -0.038  0.00  0.00    +0.000 HD
ATOM     12  H   UNL     1      15.825  -5.391  -0.113  0.00  0.00    +0.000 HD
BRANCH  10  13
ATOM     13  C   UNL     1      16.463  -7.447   0.035  0.00  0.00    +0.000 C 
ATOM     14  H   UNL     1      16.316  -8.376  -0.530  0.00  0.00    +0.000 HD
ATOM     15  H   UNL     1      16.259  -7.672   1.088  0.00  0.00    +0.000 HD
BRANCH  13  16
ATOM     16  C   UNL     1      17.909  -7.002  -0.111  0.00  0.00    +0.000 C 
ATOM     17  H   UNL     1      18.587  -7.705   0.384  0.00  0.00    +0.000 HD
ATOM     18  H   UNL     1      18.061  -6.010   0.327  0.00  0.00    +0.000 HD
ATOM     19  H   UNL     1      18.185  -6.952  -1.170  0.00  0.00    +0.000 HD
ENDBRANCH  13  16
ENDBRANCH  10  13
ENDBRANCH   7  10
ENDBRANCH   4   7
ENDBRANCH   1   4
BRANCH   1  20
ATOM     20  C   UNL     1      17.436  -6.189  -4.174  0.00  0.00    +0.000 C 
ATOM     21  H   UNL     1      17.090  -5.896  -5.172  0.00  0.00    +0.000 HD
ATOM     22  H   UNL     1      16.831  -7.049  -3.860  0.00  0.00    +0.000 HD
BRANCH  20  23
ATOM     23  C   UNL     1      18.911  -6.593  -4.234  0.00  0.00    +0.000 C 
ATOM     24  H   UNL     1      19.331  -6.318  -5.209  0.00  0.00    +0.000 HD
ATOM     25  H   UNL     1      18.999  -7.682  -4.139  0.00  0.00    +0.000 HD
BRANCH  23  26
ATOM     26  C   UNL     1      19.717  -5.918  -3.119  0.00  0.00    +0.000 C 
ATOM     27  H   UNL     1      19.171  -5.049  -2.733  0.00  0.00    +0.000 HD
ATOM     28  H   UNL     1      19.832  -6.602  -2.269  0.00  0.00    +0.000 HD
BRANCH  26  29
ATOM     29  C   UNL     1      21.096  -5.475  -3.593  0.00  0.00    +0.000 C 
ATOM     30  H   UNL     1      21.676  -6.335  -3.946  0.00  0.00    +0.000 HD
ATOM     31  H   UNL     1      21.646  -4.989  -2.780  0.00  0.00    +0.000 HD
BRANCH  29  32
ATOM     32  O   UNL     1      20.967  -4.552  -4.664  0.00  0.00    +0.000 OA
ATOM     33  H   UNL     1      20.720  -3.696  -4.275  0.00  0.00    +0.000 HD
ENDBRANCH  29  32
ENDBRANCH  26  29
ENDBRANCH  23  26
ENDBRANCH  20  23
ENDBRANCH   1  20
TORSDOF 10
ENDMDL
MODEL 2
REMARK VINA RESULT:    -4.018     36.404     38.388
REMARK INTER + INTRA:          -7.027
REMARK INTER:                  -6.340
REMARK INTRA:                  -0.687
REMARK UNBOUND:                -0.895
REMARK  Name = 8174
REMARK  10 active torsions:
REMARK  status: ('A' for Active; 'I' for Inactive)
REMARK    1  A    between atoms: O_1  and  C_10
REMARK    2  A    between atoms: C_2  and  C_3
REMARK    3  A    between atoms: C_2  and  C_4
REMARK    4  A    between atoms: C_3  and  C_5
REMARK    5  A    between atoms: C_4  and  C_6
REMARK    6  A    between atoms: C_5  and  C_7
REMARK    7  A    between atoms: C_6  and  C_8
REMARK    8  A    between atoms: C_7  and  C_9
REMARK    9  A    between atoms: C_8  and  C_10
REMARK   10  A    between atoms: C_9  and  C_11
REMARK                            x       y       z     vdW  Elec       q    Type
REMARK                         _______ _______ _______ _____ _____    ______ ____
ROOT
ATOM      1  C   UNL     1      -5.948   4.674  25.733  0.00  0.00    +0.000 C 
ATOM      2  H   UNL     1      -6.437   3.692  25.708  0.00  0.00    +0.000 HD
ATOM      3  H   UNL     1      -6.734   5.423  25.575  0.00  0.00    +0.000 HD
ENDROOT
BRANCH   1   4
ATOM      4  C   UNL     1      -4.942   4.755  24.580  0.00  0.00    +0.000 C 
ATOM      5  H   UNL     1      -5.046   5.725  24.079  0.00  0.00    +0.000 HD
ATOM      6  H   UNL     1      -5.193   3.988  23.838  0.00  0.00    +0.000 HD
BRANCH   4   7
ATOM      7  C   UNL     1      -3.491   4.567  25.024  0.00  0.00    +0.000 C 
ATOM      8  H   UNL     1      -3.427   4.639  26.116  0.00  0.00    +0.000 HD
ATOM      9  H   UNL     1      -3.152   3.561  24.746  0.00  0.00    +0.000 HD
BRANCH   7  10
ATOM     10  C   UNL     1      -2.575   5.611  24.381  0.00  0.00    +0.000 C 
ATOM     11  H   UNL     1      -3.161   6.252  23.710  0.00  0.00    +0.000 HD
ATOM     12  H   UNL     1      -1.819   5.107  23.765  0.00  0.00    +0.000 HD
BRANCH  10  13
ATOM     13  C   UNL     1      -1.881   6.470  25.438  0.00  0.00    +0.000 C 
ATOM     14  H   UNL     1      -2.404   7.429  25.541  0.00  0.00    +0.000 HD
ATOM     15  H   UNL     1      -0.855   6.693  25.121  0.00  0.00    +0.000 HD
BRANCH  13  16
ATOM     16  C   UNL     1      -1.849   5.774  26.788  0.00  0.00    +0.000 C 
ATOM     17  H   UNL     1      -2.182   4.735  26.701  0.00  0.00    +0.000 HD
ATOM     18  H   UNL     1      -2.497   6.284  27.508  0.00  0.00    +0.000 HD
ATOM     19  H   UNL     1      -0.830   5.772  27.190  0.00  0.00    +0.000 HD
ENDBRANCH  13  16
ENDBRANCH  10  13
ENDBRANCH   7  10
ENDBRANCH   4   7
ENDBRANCH   1   4
BRANCH   1  20
ATOM     20  C   UNL     1      -5.316   4.894  27.109  0.00  0.00    +0.000 C 
ATOM     21  H   UNL     1      -5.710   5.819  27.546  0.00  0.00    +0.000 HD
ATOM     22  H   UNL     1      -4.233   5.023  26.999  0.00  0.00    +0.000 HD
BRANCH  20  23
ATOM     23  C   UNL     1      -5.602   3.717  28.044  0.00  0.00    +0.000 C 
ATOM     24  H   UNL     1      -6.410   3.102  27.629  0.00  0.00    +0.000 HD
ATOM     25  H   UNL     1      -5.947   4.092  29.015  0.00  0.00    +0.000 HD
BRANCH  23  26
ATOM     26  C   UNL     1      -4.353   2.852  28.246  0.00  0.00    +0.000 C 
ATOM     27  H   UNL     1      -3.932   2.566  27.274  0.00  0.00    +0.000 HD
ATOM     28  H   UNL     1      -3.571   3.431  28.753  0.00  0.00    +0.000 HD
BRANCH  26  29
ATOM     29  C   UNL     1      -4.647   1.596  29.057  0.00  0.00    +0.000 C 
ATOM     30  H   UNL     1      -3.858   1.422  29.796  0.00  0.00    +0.000 HD
ATOM     31  H   UNL     1      -4.717   0.721  28.402  0.00  0.00    +0.000 HD
BRANCH  29  32
ATOM     32  O   UNL     1      -5.881   1.742  29.745  0.00  0.00    +0.000 OA
ATOM     33  H   UNL     1      -5.844   1.159  30.523  0.00  0.00    +0.000 HD
ENDBRANCH  29  32
ENDBRANCH  26  29
ENDBRANCH  23  26
ENDBRANCH  20  23
ENDBRANCH   1  20
TORSDOF 10
ENDMDL
MODEL 3
REMARK VINA RESULT:    -3.998     23.427     25.039
REMARK INTER + INTRA:          -6.996
REMARK INTER:                  -6.704
REMARK INTRA:                  -0.292
REMARK UNBOUND:                -0.895
REMARK  Name = 8174
REMARK  10 active torsions:
REMARK  status: ('A' for Active; 'I' for Inactive)
REMARK    1  A    between atoms: O_1  and  C_10
REMARK    2  A    between atoms: C_2  and  C_3
REMARK    3  A    between atoms: C_2  and  C_4
REMARK    4  A    between atoms: C_3  and  C_5
REMARK    5  A    between atoms: C_4  and  C_6
REMARK    6  A    between atoms: C_5  and  C_7
REMARK    7  A    between atoms: C_6  and  C_8
REMARK    8  A    between atoms: C_7  and  C_9
REMARK    9  A    between atoms: C_8  and  C_10
REMARK   10  A    between atoms: C_9  and  C_11
REMARK                            x       y       z     vdW  Elec       q    Type
REMARK                         _______ _______ _______ _____ _____    ______ ____
ROOT
ATOM      1  C   UNL     1       3.138   6.091 -20.064  0.00  0.00    +0.000 C 
ATOM      2  H   UNL     1       3.174   5.064 -20.449  0.00  0.00    +0.000 HD
ATOM      3  H   UNL     1       3.294   6.756 -20.924  0.00  0.00    +0.000 HD
ENDROOT
BRANCH   1   4
ATOM      4  C   UNL     1       4.283   6.287 -19.067  0.00  0.00    +0.000 C 
ATOM      5  H   UNL     1       3.884   6.233 -18.046  0.00  0.00    +0.000 HD
ATOM      6  H   UNL     1       4.691   7.297 -19.192  0.00  0.00    +0.000 HD
BRANCH   4   7
ATOM      7  C   UNL     1       5.411   5.267 -19.226  0.00  0.00    +0.000 C 
ATOM      8  H   UNL     1       5.007   4.330 -19.628  0.00  0.00    +0.000 HD
ATOM      9  H   UNL     1       6.142   5.642 -19.952  0.00  0.00    +0.000 HD
BRANCH   7  10
ATOM     10  C   UNL     1       6.108   4.999 -17.889  0.00  0.00    +0.000 C 
ATOM     11  H   UNL     1       5.540   4.253 -17.320  0.00  0.00    +0.000 HD
ATOM     12  H   UNL     1       6.120   5.919 -17.292  0.00  0.00    +0.000 HD
BRANCH  10  13
ATOM     13  C   UNL     1       7.540   4.507 -18.097  0.00  0.00    +0.000 C 
ATOM     14  H   UNL     1       8.129   4.679 -17.188  0.00  0.00    +0.000 HD
ATOM     15  H   UNL     1       8.016   5.077 -18.904  0.00  0.00    +0.000 HD
BRANCH  13  16
ATOM     16  C   UNL     1       7.577   3.027 -18.439  0.00  0.00    +0.000 C 
ATOM     17  H   UNL     1       7.982   2.442 -17.607  0.00  0.00    +0.000 HD
ATOM     18  H   UNL     1       8.197   2.843 -19.323  0.00  0.00    +0.000 HD
ATOM     19  H   UNL     1       6.567   2.662 -18.651  0.00  0.00    +0.000 HD
ENDBRANCH  13  16
ENDBRANCH  10  13
ENDBRANCH   7  10
ENDBRANCH   4   7
ENDBRANCH   1   4
BRANCH   1  20
ATOM     20  C   UNL     1       1.755   6.362 -19.467  0.00  0.00    +0.000 C 
ATOM     21  H   UNL     1       1.526   7.431 -19.549  0.00  0.00    +0.000 HD
ATOM     22  H   UNL     1       1.762   6.113 -18.399  0.00  0.00    +0.000 HD
BRANCH  20  23
ATOM     23  C   UNL     1       0.675   5.545 -20.179  0.00  0.00    +0.000 C 
ATOM     24  H   UNL     1       0.472   5.979 -21.165  0.00  0.00    +0.000 HD
ATOM     25  H   UNL     1      -0.260   5.592 -19.606  0.00  0.00    +0.000 HD
BRANCH  23  26
ATOM     26  C   UNL     1       1.101   4.082 -20.341  0.00  0.00    +0.000 C 
ATOM     27  H   UNL     1       1.378   3.884 -21.383  0.00  0.00    +0.000 HD
ATOM     28  H   UNL     1       2.003   3.884 -19.748  0.00  0.00    +0.000 HD
BRANCH  26  29
ATOM     29  C   UNL     1       0.004   3.113 -19.918  0.00  0.00    +0.000 C 
ATOM     30  H   UNL     1       0.344   2.077 -20.022  0.00  0.00    +0.000 HD
ATOM     31  H   UNL     1      -0.892   3.252 -20.531  0.00  0.00    +0.000 HD
BRANCH  29  32
ATOM     32  O   UNL     1      -0.342   3.336 -18.559  0.00  0.00    +0.000 OA
ATOM     33  H   UNL     1      -0.896   2.587 -18.279  0.00  0.00    +0.000 HD
ENDBRANCH  29  32
ENDBRANCH  26  29
ENDBRANCH  23  26
ENDBRANCH  20  23
ENDBRANCH   1  20
TORSDOF 10
ENDMDL
MODEL 4
REMARK VINA RESULT:    -3.989      3.377      5.605
REMARK INTER + INTRA:          -6.983
REMARK INTER:                  -6.405
REMARK INTRA:                  -0.577
REMARK UNBOUND:                -0.895
REMARK  Name = 8174
REMARK  10 active torsions:
REMARK  status: ('A' for Active; 'I' for Inactive)
REMARK    1  A    between atoms: O_1  and  C_10
REMARK    2  A    between atoms: C_2  and  C_3
REMARK    3  A    between atoms: C_2  and  C_4
REMARK    4  A    between atoms: C_3  and  C_5
REMARK    5  A    between atoms: C_4  and  C_6
REMARK    6  A    between atoms: C_5  and  C_7
REMARK    7  A    between atoms: C_6  and  C_8
REMARK    8  A    between atoms: C_7  and  C_9
REMARK    9  A    between atoms: C_8  and  C_10
REMARK   10  A    between atoms: C_9  and  C_11
REMARK                            x       y       z     vdW  Elec       q    Type
REMARK                         _______ _______ _______ _____ _____    ______ ____
ROOT
ATOM      1  C   UNL     1      15.331  -6.339  -2.037  0.00  0.00    +0.000 C 
ATOM      2  H   UNL     1      15.849  -7.075  -2.665  0.00  0.00    +0.000 HD
ATOM      3  H   UNL     1      14.274  -6.357  -2.334  0.00  0.00    +0.000 HD
ENDROOT
BRANCH   1   4
ATOM      4  C   UNL     1      15.907  -4.949  -2.323  0.00  0.00    +0.000 C 
ATOM      5  H   UNL     1      16.400  -4.571  -1.419  0.00  0.00    +0.000 HD
ATOM      6  H   UNL     1      15.080  -4.263  -2.543  0.00  0.00    +0.000 HD
BRANCH   4   7
ATOM      7  C   UNL     1      16.898  -4.930  -3.488  0.00  0.00    +0.000 C 
ATOM      8  H   UNL     1      16.466  -5.452  -4.349  0.00  0.00    +0.000 HD
ATOM      9  H   UNL     1      17.078  -3.892  -3.795  0.00  0.00    +0.000 HD
BRANCH   7  10
ATOM     10  C   UNL     1      18.226  -5.584  -3.096  0.00  0.00    +0.000 C 
ATOM     11  H   UNL     1      18.120  -6.078  -2.122  0.00  0.00    +0.000 HD
ATOM     12  H   UNL     1      18.996  -4.811  -2.983  0.00  0.00    +0.000 HD
BRANCH  10  13
ATOM     13  C   UNL     1      18.675  -6.602  -4.144  0.00  0.00    +0.000 C 
ATOM     14  H   UNL     1      18.840  -7.577  -3.670  0.00  0.00    +0.000 HD
ATOM     15  H   UNL     1      19.630  -6.288  -4.581  0.00  0.00    +0.000 HD
BRANCH  13  16
ATOM     16  C   UNL     1      17.644  -6.756  -5.249  0.00  0.00    +0.000 C 
ATOM     17  H   UNL     1      17.178  -5.794  -5.487  0.00  0.00    +0.000 HD
ATOM     18  H   UNL     1      16.856  -7.458  -4.957  0.00  0.00    +0.000 HD
ATOM     19  H   UNL     1      18.118  -7.138  -6.159  0.00  0.00    +0.000 HD
ENDBRANCH  13  16
ENDBRANCH  10  13
ENDBRANCH   7  10
ENDBRANCH   4   7
ENDBRANCH   1   4
BRANCH   1  20
ATOM     20  C   UNL     1      15.443  -6.755  -0.568  0.00  0.00    +0.000 C 
ATOM     21  H   UNL     1      16.171  -7.570  -0.476  0.00  0.00    +0.000 HD
ATOM     22  H   UNL     1      14.477  -7.141  -0.222  0.00  0.00    +0.000 HD
BRANCH  20  23
ATOM     23  C   UNL     1      15.871  -5.577   0.309  0.00  0.00    +0.000 C 
ATOM     24  H   UNL     1      15.482  -4.642  -0.111  0.00  0.00    +0.000 HD
ATOM     25  H   UNL     1      16.965  -5.499   0.315  0.00  0.00    +0.000 HD
BRANCH  23  26
ATOM     26  C   UNL     1      15.366  -5.742   1.746  0.00  0.00    +0.000 C 
ATOM     27  H   UNL     1      16.098  -5.333   2.453  0.00  0.00    +0.000 HD
ATOM     28  H   UNL     1      14.448  -5.158   1.894  0.00  0.00    +0.000 HD
BRANCH  26  29
ATOM     29  C   UNL     1      15.090  -7.200   2.096  0.00  0.00    +0.000 C 
ATOM     30  H   UNL     1      15.708  -7.866   1.486  0.00  0.00    +0.000 HD
ATOM     31  H   UNL     1      14.036  -7.444   1.927  0.00  0.00    +0.000 HD
BRANCH  29  32
ATOM     32  O   UNL     1      15.392  -7.435   3.463  0.00  0.00    +0.000 OA
ATOM     33  H   UNL     1      15.923  -8.250   3.502  0.00  0.00    +0.000 HD
ENDBRANCH  29  32
ENDBRANCH  26  29
ENDBRANCH  23  26
ENDBRANCH  20  23
ENDBRANCH   1  20
TORSDOF 10
ENDMDL
MODEL 5
REMARK VINA RESULT:    -3.957     32.754     34.853
REMARK INTER + INTRA:          -6.934
REMARK INTER:                  -6.477
REMARK INTRA:                  -0.457
REMARK UNBOUND:                -0.895
REMARK  Name = 8174
REMARK  10 active torsions:
REMARK  status: ('A' for Active; 'I' for Inactive)
REMARK    1  A    between atoms: O_1  and  C_10
REMARK    2  A    between atoms: C_2  and  C_3
REMARK    3  A    between atoms: C_2  and  C_4
REMARK    4  A    between atoms: C_3  and  C_5
REMARK    5  A    between atoms: C_4  and  C_6
REMARK    6  A    between atoms: C_5  and  C_7
REMARK    7  A    between atoms: C_6  and  C_8
REMARK    8  A    between atoms: C_7  and  C_9
REMARK    9  A    between atoms: C_8  and  C_10
REMARK   10  A    between atoms: C_9  and  C_11
REMARK                            x       y       z     vdW  Elec       q    Type
REMARK                         _______ _______ _______ _____ _____    ______ ____
ROOT
ATOM      1  C   UNL     1     -16.009  -5.778  -2.873  0.00  0.00    +0.000 C 
ATOM      2  H   UNL     1     -15.965  -4.683  -2.814  0.00  0.00    +0.000 HD
ATOM      3  H   UNL     1     -15.093  -6.157  -2.400  0.00  0.00    +0.000 HD
ENDROOT
BRANCH   1   4
ATOM      4  C   UNL     1     -16.019  -6.195  -4.347  0.00  0.00    +0.000 C 
ATOM      5  H   UNL     1     -16.515  -5.415  -4.937  0.00  0.00    +0.000 HD
ATOM      6  H   UNL     1     -16.623  -7.104  -4.453  0.00  0.00    +0.000 HD
BRANCH   4   7
ATOM      7  C   UNL     1     -14.623  -6.452  -4.916  0.00  0.00    +0.000 C 
ATOM      8  H   UNL     1     -14.529  -7.506  -5.200  0.00  0.00    +0.000 HD
ATOM      9  H   UNL     1     -14.486  -5.857  -5.828  0.00  0.00    +0.000 HD
BRANCH   7  10
ATOM     10  C   UNL     1     -13.535  -6.089  -3.902  0.00  0.00    +0.000 C 
ATOM     11  H   UNL     1     -13.146  -7.004  -3.437  0.00  0.00    +0.000 HD
ATOM     12  H   UNL     1     -13.970  -5.481  -3.099  0.00  0.00    +0.000 HD
BRANCH  10  13
ATOM     13  C   UNL     1     -12.391  -5.320  -4.562  0.00  0.00    +0.000 C 
ATOM     14  H   UNL     1     -11.594  -6.014  -4.854  0.00  0.00    +0.000 HD
ATOM     15  H   UNL     1     -11.958  -4.611  -3.846  0.00  0.00    +0.000 HD
BRANCH  13  16
ATOM     16  C   UNL     1     -12.866  -4.563  -5.792  0.00  0.00    +0.000 C 
ATOM     17  H   UNL     1     -12.641  -3.495  -5.705  0.00  0.00    +0.000 HD
ATOM     18  H   UNL     1     -13.945  -4.677  -5.931  0.00  0.00    +0.000 HD
ATOM     19  H   UNL     1     -12.365  -4.944  -6.687  0.00  0.00    +0.000 HD
ENDBRANCH  13  16
ENDBRANCH  10  13
ENDBRANCH   7  10
ENDBRANCH   4   7
ENDBRANCH   1   4
BRANCH   1  20
ATOM     20  C   UNL     1     -17.222  -6.283  -2.089  0.00  0.00    +0.000 C 
ATOM     21  H   UNL     1     -17.576  -5.492  -1.417  0.00  0.00    +0.000 HD
ATOM     22  H   UNL     1     -16.925  -7.132  -1.462  0.00  0.00    +0.000 HD
BRANCH  20  23
ATOM     23  C   UNL     1     -18.351  -6.708  -3.030  0.00  0.00    +0.000 C 
ATOM     24  H   UNL     1     -18.343  -7.798  -3.150  0.00  0.00    +0.000 HD
ATOM     25  H   UNL     1     -18.187  -6.271  -4.023  0.00  0.00    +0.000 HD
BRANCH  23  26
ATOM     26  C   UNL     1     -19.717  -6.261  -2.497  0.00  0.00    +0.000 C 
ATOM     27  H   UNL     1     -19.645  -6.030  -1.427  0.00  0.00    +0.000 HD
ATOM     28  H   UNL     1     -20.026  -5.328  -2.984  0.00  0.00    +0.000 HD
BRANCH  26  29
ATOM     29  C   UNL     1     -20.793  -7.318  -2.714  0.00  0.00    +0.000 C 
ATOM     30  H   UNL     1     -21.176  -7.273  -3.738  0.00  0.00    +0.000 HD
ATOM     31  H   UNL     1     -21.627  -7.167  -2.019  0.00  0.00    +0.000 HD
BRANCH  29  32
ATOM     32  O   UNL     1     -20.253  -8.612  -2.493  0.00  0.00    +0.000 OA
ATOM     33  H   UNL     1     -19.795  -8.873  -3.311  0.00  0.00    +0.000 HD
ENDBRANCH  29  32
ENDBRANCH  26  29
ENDBRANCH  23  26
ENDBRANCH  20  23
ENDBRANCH   1  20
TORSDOF 10
ENDMDL
MODEL 6
REMARK VINA RESULT:    -3.923     23.329     24.891
REMARK INTER + INTRA:          -6.883
REMARK INTER:                  -6.330
REMARK INTRA:                  -0.553
REMARK UNBOUND:                -0.895
REMARK  Name = 8174
REMARK  10 active torsions:
REMARK  status: ('A' for Active; 'I' for Inactive)
REMARK    1  A    between atoms: O_1  and  C_10
REMARK    2  A    between atoms: C_2  and  C_3
REMARK    3  A    between atoms: C_2  and  C_4
REMARK    4  A    between atoms: C_3  and  C_5
REMARK    5  A    between atoms: C_4  and  C_6
REMARK    6  A    between atoms: C_5  and  C_7
REMARK    7  A    between atoms: C_6  and  C_8
REMARK    8  A    between atoms: C_7  and  C_9
REMARK    9  A    between atoms: C_8  and  C_10
REMARK   10  A    between atoms: C_9  and  C_11
REMARK                            x       y       z     vdW  Elec       q    Type
REMARK                         _______ _______ _______ _____ _____    ______ ____
ROOT
ATOM      1  C   UNL     1       3.715   4.107 -20.320  0.00  0.00    +0.000 C 
ATOM      2  H   UNL     1       2.839   4.637 -20.716  0.00  0.00    +0.000 HD
ATOM      3  H   UNL     1       3.811   4.397 -19.266  0.00  0.00    +0.000 HD
ENDROOT
BRANCH   1   4
ATOM      4  C   UNL     1       4.960   4.572 -21.082  0.00  0.00    +0.000 C 
ATOM      5  H   UNL     1       4.678   5.370 -21.780  0.00  0.00    +0.000 HD
ATOM      6  H   UNL     1       5.334   3.739 -21.689  0.00  0.00    +0.000 HD
BRANCH   4   7
ATOM      7  C   UNL     1       6.082   5.070 -20.169  0.00  0.00    +0.000 C 
ATOM      8  H   UNL     1       6.896   4.336 -20.151  0.00  0.00    +0.000 HD
ATOM      9  H   UNL     1       6.495   6.002 -20.574  0.00  0.00    +0.000 HD
BRANCH   7  10
ATOM     10  C   UNL     1       5.571   5.314 -18.746  0.00  0.00    +0.000 C 
ATOM     11  H   UNL     1       4.521   5.002 -18.674  0.00  0.00    +0.000 HD
ATOM     12  H   UNL     1       5.604   6.387 -18.523  0.00  0.00    +0.000 HD
BRANCH  10  13
ATOM     13  C   UNL     1       6.406   4.553 -17.717  0.00  0.00    +0.000 C 
ATOM     14  H   UNL     1       5.748   4.089 -16.972  0.00  0.00    +0.000 HD
ATOM     15  H   UNL     1       7.061   5.250 -17.181  0.00  0.00    +0.000 HD
BRANCH  13  16
ATOM     16  C   UNL     1       7.251   3.473 -18.372  0.00  0.00    +0.000 C 
ATOM     17  H   UNL     1       8.252   3.436 -17.929  0.00  0.00    +0.000 HD
ATOM     18  H   UNL     1       7.357   3.656 -19.447  0.00  0.00    +0.000 HD
ATOM     19  H   UNL     1       6.783   2.493 -18.239  0.00  0.00    +0.000 HD
ENDBRANCH  13  16
ENDBRANCH  10  13
ENDBRANCH   7  10
ENDBRANCH   4   7
ENDBRANCH   1   4
BRANCH   1  20
ATOM     20  C   UNL     1       3.478   2.598 -20.404  0.00  0.00    +0.000 C 
ATOM     21  H   UNL     1       4.175   2.082 -19.733  0.00  0.00    +0.000 HD
ATOM     22  H   UNL     1       3.690   2.250 -21.422  0.00  0.00    +0.000 HD
BRANCH  20  23
ATOM     23  C   UNL     1       2.038   2.242 -20.028  0.00  0.00    +0.000 C 
ATOM     24  H   UNL     1       2.021   1.758 -19.044  0.00  0.00    +0.000 HD
ATOM     25  H   UNL     1       1.635   1.522 -20.751  0.00  0.00    +0.000 HD
BRANCH  23  26
ATOM     26  C   UNL     1       1.147   3.489 -20.002  0.00  0.00    +0.000 C 
ATOM     27  H   UNL     1       0.916   3.764 -18.966  0.00  0.00    +0.000 HD
ATOM     28  H   UNL     1       1.684   4.346 -20.427  0.00  0.00    +0.000 HD
BRANCH  26  29
ATOM     29  C   UNL     1      -0.153   3.284 -20.771  0.00  0.00    +0.000 C 
ATOM     30  H   UNL     1      -0.054   2.457 -21.481  0.00  0.00    +0.000 HD
ATOM     31  H   UNL     1      -0.422   4.192 -21.322  0.00  0.00    +0.000 HD
BRANCH  29  32
ATOM     32  O   UNL     1      -1.205   2.977 -19.869  0.00  0.00    +0.000 OA
ATOM     33  H   UNL     1      -1.430   3.800 -19.401  0.00  0.00    +0.000 HD
ENDBRANCH  29  32
ENDBRANCH  26  29
ENDBRANCH  23  26
ENDBRANCH  20  23
ENDBRANCH   1  20
TORSDOF 10
ENDMDL
MODEL 7
REMARK VINA RESULT:    -3.923     35.238     37.116
REMARK INTER + INTRA:          -6.882
REMARK INTER:                  -6.458
REMARK INTRA:                  -0.424
REMARK UNBOUND:                -0.895
REMARK  Name = 8174
REMARK  10 active torsions:
REMARK  status: ('A' for Active; 'I' for Inactive)
REMARK    1  A    between atoms: O_1  and  C_10
REMARK    2  A    between atoms: C_2  and  C_3
REMARK    3  A    between atoms: C_2  and  C_4
REMARK    4  A    between atoms: C_3  and  C_5
REMARK    5  A    between atoms: C_4  and  C_6
REMARK    6  A    between atoms: C_5  and  C_7
REMARK    7  A    between atoms: C_6  and  C_8
REMARK    8  A    between atoms: C_7  and  C_9
REMARK    9  A    between atoms: C_8  and  C_10
REMARK   10  A    between atoms: C_9  and  C_11
REMARK                            x       y       z     vdW  Elec       q    Type
REMARK                         _______ _______ _______ _____ _____    ______ ____
ROOT
ATOM      1  C   UNL     1      -2.241   5.957  25.514  0.00  0.00    +0.000 C 
ATOM      2  H   UNL     1      -2.354   6.996  25.850  0.00  0.00    +0.000 HD
ATOM      3  H   UNL     1      -1.266   5.610  25.880  0.00  0.00    +0.000 HD
ENDROOT
BRANCH   1   4
ATOM      4  C   UNL     1      -2.239   5.929  23.983  0.00  0.00    +0.000 C 
ATOM      5  H   UNL     1      -3.183   6.347  23.614  0.00  0.00    +0.000 HD
ATOM      6  H   UNL     1      -2.203   4.885  23.649  0.00  0.00    +0.000 HD
BRANCH   4   7
ATOM      7  C   UNL     1      -1.069   6.694  23.363  0.00  0.00    +0.000 C 
ATOM      8  H   UNL     1      -0.462   7.147  24.156  0.00  0.00    +0.000 HD
ATOM      9  H   UNL     1      -0.422   5.993  22.820  0.00  0.00    +0.000 HD
BRANCH   7  10
ATOM     10  C   UNL     1      -1.564   7.780  22.404  0.00  0.00    +0.000 C 
ATOM     11  H   UNL     1      -2.660   7.786  22.389  0.00  0.00    +0.000 HD
ATOM     12  H   UNL     1      -1.230   7.549  21.384  0.00  0.00    +0.000 HD
BRANCH  10  13
ATOM     13  C   UNL     1      -1.046   9.160  22.809  0.00  0.00    +0.000 C 
ATOM     14  H   UNL     1      -0.679   9.695  21.925  0.00  0.00    +0.000 HD
ATOM     15  H   UNL     1      -0.199   9.052  23.498  0.00  0.00    +0.000 HD
BRANCH  13  16
ATOM     16  C   UNL     1      -2.131   9.989  23.476  0.00  0.00    +0.000 C 
ATOM     17  H   UNL     1      -2.610   9.429  24.286  0.00  0.00    +0.000 HD
ATOM     18  H   UNL     1      -2.903  10.278  22.755  0.00  0.00    +0.000 HD
ATOM     19  H   UNL     1      -1.704  10.902  23.901  0.00  0.00    +0.000 HD
ENDBRANCH  13  16
ENDBRANCH  10  13
ENDBRANCH   7  10
ENDBRANCH   4   7
ENDBRANCH   1   4
BRANCH   1  20
ATOM     20  C   UNL     1      -3.344   5.098  26.138  0.00  0.00    +0.000 C 
ATOM     21  H   UNL     1      -3.942   5.713  26.820  0.00  0.00    +0.000 HD
ATOM     22  H   UNL     1      -2.891   4.297  26.735  0.00  0.00    +0.000 HD
BRANCH  20  23
ATOM     23  C   UNL     1      -4.247   4.490  25.062  0.00  0.00    +0.000 C 
ATOM     24  H   UNL     1      -4.104   3.403  25.030  0.00  0.00    +0.000 HD
ATOM     25  H   UNL     1      -3.963   4.884  24.078  0.00  0.00    +0.000 HD
BRANCH  23  26
ATOM     26  C   UNL     1      -5.722   4.806  25.331  0.00  0.00    +0.000 C 
ATOM     27  H   UNL     1      -6.039   5.665  24.727  0.00  0.00    +0.000 HD
ATOM     28  H   UNL     1      -6.352   3.966  25.013  0.00  0.00    +0.000 HD
BRANCH  26  29
ATOM     29  C   UNL     1      -5.989   5.099  26.802  0.00  0.00    +0.000 C 
ATOM     30  H   UNL     1      -5.104   5.539  27.274  0.00  0.00    +0.000 HD
ATOM     31  H   UNL     1      -6.254   4.181  27.337  0.00  0.00    +0.000 HD
BRANCH  29  32
ATOM     32  O   UNL     1      -7.064   6.018  26.925  0.00  0.00    +0.000 OA
ATOM     33  H   UNL     1      -6.962   6.464  27.784  0.00  0.00    +0.000 HD
ENDBRANCH  29  32
ENDBRANCH  26  29
ENDBRANCH  23  26
ENDBRANCH  20  23
ENDBRANCH   1  20
TORSDOF 10
ENDMDL
MODEL 8
REMARK VINA RESULT:    -3.867     37.359     39.784
REMARK INTER + INTRA:          -6.796
REMARK INTER:                  -6.223
REMARK INTRA:                  -0.574
REMARK UNBOUND:                -0.895
REMARK  Name = 8174
REMARK  10 active torsions:
REMARK  status: ('A' for Active; 'I' for Inactive)
REMARK    1  A    between atoms: O_1  and  C_10
REMARK    2  A    between atoms: C_2  and  C_3
REMARK    3  A    between atoms: C_2  and  C_4
REMARK    4  A    between atoms: C_3  and  C_5
REMARK    5  A    between atoms: C_4  and  C_6
REMARK    6  A    between atoms: C_5  and  C_7
REMARK    7  A    between atoms: C_6  and  C_8
REMARK    8  A    between atoms: C_7  and  C_9
REMARK    9  A    between atoms: C_8  and  C_10
REMARK   10  A    between atoms: C_9  and  C_11
REMARK                            x       y       z     vdW  Elec       q    Type
REMARK                         _______ _______ _______ _____ _____    ______ ____
ROOT
ATOM      1  C   UNL     1      -5.277   4.083  27.207  0.00  0.00    +0.000 C 
ATOM      2  H   UNL     1      -4.422   3.510  26.825  0.00  0.00    +0.000 HD
ATOM      3  H   UNL     1      -5.991   3.354  27.609  0.00  0.00    +0.000 HD
ENDROOT
BRANCH   1   4
ATOM      4  C   UNL     1      -5.931   4.832  26.042  0.00  0.00    +0.000 C 
ATOM      5  H   UNL     1      -5.893   5.910  26.241  0.00  0.00    +0.000 HD
ATOM      6  H   UNL     1      -6.992   4.557  25.997  0.00  0.00    +0.000 HD
BRANCH   4   7
ATOM      7  C   UNL     1      -5.279   4.542  24.689  0.00  0.00    +0.000 C 
ATOM      8  H   UNL     1      -5.785   3.695  24.211  0.00  0.00    +0.000 HD
ATOM      9  H   UNL     1      -5.407   5.410  24.030  0.00  0.00    +0.000 HD
BRANCH   7  10
ATOM     10  C   UNL     1      -3.788   4.235  24.847  0.00  0.00    +0.000 C 
ATOM     11  H   UNL     1      -3.511   3.404  24.186  0.00  0.00    +0.000 HD
ATOM     12  H   UNL     1      -3.587   3.910  25.875  0.00  0.00    +0.000 HD
BRANCH  10  13
ATOM     13  C   UNL     1      -2.930   5.458  24.523  0.00  0.00    +0.000 C 
ATOM     14  H   UNL     1      -3.568   6.281  24.179  0.00  0.00    +0.000 HD
ATOM     15  H   UNL     1      -2.238   5.221  23.706  0.00  0.00    +0.000 HD
BRANCH  13  16
ATOM     16  C   UNL     1      -2.137   5.919  25.735  0.00  0.00    +0.000 C 
ATOM     17  H   UNL     1      -2.753   6.541  26.393  0.00  0.00    +0.000 HD
ATOM     18  H   UNL     1      -1.260   6.502  25.432  0.00  0.00    +0.000 HD
ATOM     19  H   UNL     1      -1.788   5.056  26.310  0.00  0.00    +0.000 HD
ENDBRANCH  13  16
ENDBRANCH  10  13
ENDBRANCH   7  10
ENDBRANCH   4   7
ENDBRANCH   1   4
BRANCH   1  20
ATOM     20  C   UNL     1      -4.809   5.002  28.337  0.00  0.00    +0.000 C 
ATOM     21  H   UNL     1      -4.843   6.043  27.997  0.00  0.00    +0.000 HD
ATOM     22  H   UNL     1      -3.765   4.775  28.585  0.00  0.00    +0.000 HD
BRANCH  20  23
ATOM     23  C   UNL     1      -5.682   4.835  29.583  0.00  0.00    +0.000 C 
ATOM     24  H   UNL     1      -5.051   4.835  30.480  0.00  0.00    +0.000 HD
ATOM     25  H   UNL     1      -6.194   3.865  29.547  0.00  0.00    +0.000 HD
BRANCH  23  26
ATOM     26  C   UNL     1      -6.722   5.955  29.687  0.00  0.00    +0.000 C 
ATOM     27  H   UNL     1      -6.290   6.823  30.200  0.00  0.00    +0.000 HD
ATOM     28  H   UNL     1      -7.000   6.307  28.686  0.00  0.00    +0.000 HD
BRANCH  26  29
ATOM     29  C   UNL     1      -7.978   5.509  30.425  0.00  0.00    +0.000 C 
ATOM     30  H   UNL     1      -8.467   6.363  30.905  0.00  0.00    +0.000 HD
ATOM     31  H   UNL     1      -7.732   4.766  31.192  0.00  0.00    +0.000 HD
BRANCH  29  32
ATOM     32  O   UNL     1      -8.894   4.924  29.511  0.00  0.00    +0.000 OA
ATOM     33  H   UNL     1      -9.328   4.186  29.974  0.00  0.00    +0.000 HD
ENDBRANCH  29  32
ENDBRANCH  26  29
ENDBRANCH  23  26
ENDBRANCH  20  23
ENDBRANCH   1  20
TORSDOF 10
ENDMDL
MODEL 9
REMARK VINA RESULT:    -3.809      2.004      3.038
REMARK INTER + INTRA:          -6.708
REMARK INTER:                  -5.917
REMARK INTRA:                  -0.792
REMARK UNBOUND:                -0.895
REMARK  Name = 8174
REMARK  10 active torsions:
REMARK  status: ('A' for Active; 'I' for Inactive)
REMARK    1  A    between atoms: O_1  and  C_10
REMARK    2  A    between atoms: C_2  and  C_3
REMARK    3  A    between atoms: C_2  and  C_4
REMARK    4  A    between atoms: C_3  and  C_5
REMARK    5  A    between atoms: C_4  and  C_6
REMARK    6  A    between atoms: C_5  and  C_7
REMARK    7  A    between atoms: C_6  and  C_8
REMARK    8  A    between atoms: C_7  and  C_9
REMARK    9  A    between atoms: C_8  and  C_10
REMARK   10  A    between atoms: C_9  and  C_11
REMARK                            x       y       z     vdW  Elec       q    Type
REMARK                         _______ _______ _______ _____ _____    ______ ____
ROOT
ATOM      1  C   UNL     1      19.416  -6.623  -3.925  0.00  0.00    +0.000 C 
ATOM      2  H   UNL     1      19.739  -7.662  -4.066  0.00  0.00    +0.000 HD
ATOM      3  H   UNL     1      19.402  -6.440  -2.843  0.00  0.00    +0.000 HD
ENDROOT
BRANCH   1   4
ATOM      4  C   UNL     1      17.995  -6.467  -4.477  0.00  0.00    +0.000 C 
ATOM      5  H   UNL     1      17.676  -7.417  -4.921  0.00  0.00    +0.000 HD
ATOM      6  H   UNL     1      18.010  -5.728  -5.287  0.00  0.00    +0.000 HD
BRANCH   4   7
ATOM      7  C   UNL     1      16.977  -6.032  -3.421  0.00  0.00    +0.000 C 
ATOM      8  H   UNL     1      16.669  -4.997  -3.611  0.00  0.00    +0.000 HD
ATOM      9  H   UNL     1      16.079  -6.658  -3.502  0.00  0.00    +0.000 HD
BRANCH   7  10
ATOM     10  C   UNL     1      17.557  -6.151  -2.010  0.00  0.00    +0.000 C 
ATOM     11  H   UNL     1      18.639  -5.972  -2.040  0.00  0.00    +0.000 HD
ATOM     12  H   UNL     1      17.410  -7.172  -1.637  0.00  0.00    +0.000 HD
BRANCH  10  13
ATOM     13  C   UNL     1      16.898  -5.159  -1.051  0.00  0.00    +0.000 C 
ATOM     14  H   UNL     1      17.590  -4.337  -0.832  0.00  0.00    +0.000 HD
ATOM     15  H   UNL     1      16.672  -5.655  -0.100  0.00  0.00    +0.000 HD
BRANCH  13  16
ATOM     16  C   UNL     1      15.617  -4.588  -1.635  0.00  0.00    +0.000 C 
ATOM     17  H   UNL     1      15.386  -3.612  -1.193  0.00  0.00    +0.000 HD
ATOM     18  H   UNL     1      14.769  -5.257  -1.453  0.00  0.00    +0.000 HD
ATOM     19  H   UNL     1      15.719  -4.455  -2.717  0.00  0.00    +0.000 HD
ENDBRANCH  13  16
ENDBRANCH  10  13
ENDBRANCH   7  10
ENDBRANCH   4   7
ENDBRANCH   1   4
BRANCH   1  20
ATOM     20  C   UNL     1      20.430  -5.681  -4.579  0.00  0.00    +0.000 C 
ATOM     21  H   UNL     1      19.939  -5.118  -5.381  0.00  0.00    +0.000 HD
ATOM     22  H   UNL     1      21.232  -6.270  -5.039  0.00  0.00    +0.000 HD
BRANCH  20  23
ATOM     23  C   UNL     1      21.025  -4.712  -3.555  0.00  0.00    +0.000 C 
ATOM     24  H   UNL     1      21.904  -4.216  -3.982  0.00  0.00    +0.000 HD
ATOM     25  H   UNL     1      21.364  -5.270  -2.673  0.00  0.00    +0.000 HD
BRANCH  23  26
ATOM     26  C   UNL     1      19.999  -3.658  -3.126  0.00  0.00    +0.000 C 
ATOM     27  H   UNL     1      20.137  -2.740  -3.711  0.00  0.00    +0.000 HD
ATOM     28  H   UNL     1      18.983  -4.006  -3.351  0.00  0.00    +0.000 HD
BRANCH  26  29
ATOM     29  C   UNL     1      20.096  -3.329  -1.642  0.00  0.00    +0.000 C 
ATOM     30  H   UNL     1      21.132  -3.110  -1.363  0.00  0.00    +0.000 HD
ATOM     31  H   UNL     1      19.737  -4.168  -1.036  0.00  0.00    +0.000 HD
BRANCH  29  32
ATOM     32  O   UNL     1      19.302  -2.190  -1.345  0.00  0.00    +0.000 OA
ATOM     33  H   UNL     1      18.682  -2.449  -0.642  0.00  0.00    +0.000 HD
ENDBRANCH  29  32
ENDBRANCH  26  29
ENDBRANCH  23  26
ENDBRANCH  20  23
ENDBRANCH   1  20
TORSDOF 10
ENDMDL
MODEL 10
REMARK VINA RESULT:    -3.686     25.319     27.022
REMARK INTER + INTRA:          -6.520
REMARK INTER:                  -5.625
REMARK INTRA:                  -0.895
REMARK UNBOUND:                -0.895
REMARK  Name = 8174
REMARK  10 active torsions:
REMARK  status: ('A' for Active; 'I' for Inactive)
REMARK    1  A    between atoms: O_1  and  C_10
REMARK    2  A    between atoms: C_2  and  C_3
REMARK    3  A    between atoms: C_2  and  C_4
REMARK    4  A    between atoms: C_3  and  C_5
REMARK    5  A    between atoms: C_4  and  C_6
REMARK    6  A    between atoms: C_5  and  C_7
REMARK    7  A    between atoms: C_6  and  C_8
REMARK    8  A    between atoms: C_7  and  C_9
REMARK    9  A    between atoms: C_8  and  C_10
REMARK   10  A    between atoms: C_9  and  C_11
REMARK                            x       y       z     vdW  Elec       q    Type
REMARK                         _______ _______ _______ _____ _____    ______ ____
ROOT
ATOM      1  C   UNL     1      -6.500 -14.691   2.690  0.00  0.00    +0.000 C 
ATOM      2  H   UNL     1      -6.693 -14.960   1.643  0.00  0.00    +0.000 HD
ATOM      3  H   UNL     1      -6.731 -15.579   3.292  0.00  0.00    +0.000 HD
ENDROOT
BRANCH   1   4
ATOM      4  C   UNL     1      -7.444 -13.555   3.092  0.00  0.00    +0.000 C 
ATOM      5  H   UNL     1      -8.473 -13.935   3.121  0.00  0.00    +0.000 HD
ATOM      6  H   UNL     1      -7.416 -12.781   2.315  0.00  0.00    +0.000 HD
BRANCH   4   7
ATOM      7  C   UNL     1      -7.098 -12.923   4.441  0.00  0.00    +0.000 C 
ATOM      8  H   UNL     1      -6.164 -13.354   4.820  0.00  0.00    +0.000 HD
ATOM      9  H   UNL     1      -6.929 -11.848   4.308  0.00  0.00    +0.000 HD
BRANCH   7  10
ATOM     10  C   UNL     1      -8.221 -13.142   5.459  0.00  0.00    +0.000 C 
ATOM     11  H   UNL     1      -9.147 -13.409   4.934  0.00  0.00    +0.000 HD
ATOM     12  H   UNL     1      -8.414 -12.206   5.998  0.00  0.00    +0.000 HD
BRANCH  10  13
ATOM     13  C   UNL     1      -7.861 -14.241   6.458  0.00  0.00    +0.000 C 
ATOM     14  H   UNL     1      -8.075 -13.901   7.479  0.00  0.00    +0.000 HD
ATOM     15  H   UNL     1      -6.787 -14.454   6.406  0.00  0.00    +0.000 HD
BRANCH  13  16
ATOM     16  C   UNL     1      -8.639 -15.518   6.187  0.00  0.00    +0.000 C 
ATOM     17  H   UNL     1      -8.525 -15.832   5.144  0.00  0.00    +0.000 HD
ATOM     18  H   UNL     1      -9.706 -15.378   6.390  0.00  0.00    +0.000 HD
ATOM     19  H   UNL     1      -8.275 -16.327   6.828  0.00  0.00    +0.000 HD
ENDBRANCH  13  16
ENDBRANCH  10  13
ENDBRANCH   7  10
ENDBRANCH   4   7
ENDBRANCH   1   4
BRANCH   1  20
ATOM     20  C   UNL     1      -5.020 -14.343   2.861  0.00  0.00    +0.000 C 
ATOM     21  H   UNL     1      -4.930 -13.365   3.349  0.00  0.00    +0.000 HD
ATOM     22  H   UNL     1      -4.547 -14.258   1.875  0.00  0.00    +0.000 HD
BRANCH  20  23
ATOM     23  C   UNL     1      -4.293 -15.405   3.689  0.00  0.00    +0.000 C 
ATOM     24  H   UNL     1      -3.548 -14.925   4.335  0.00  0.00    +0.000 HD
ATOM     25  H   UNL     1      -3.753 -16.087   3.022  0.00  0.00    +0.000 HD
BRANCH  23  26
ATOM     26  C   UNL     1      -5.276 -16.206   4.550  0.00  0.00    +0.000 C 
ATOM     27  H   UNL     1      -6.190 -15.624   4.718  0.00  0.00    +0.000 HD
ATOM     28  H   UNL     1      -5.592 -17.112   4.018  0.00  0.00    +0.000 HD
BRANCH  26  29
ATOM     29  C   UNL     1      -4.676 -16.600   5.894  0.00  0.00    +0.000 C 
ATOM     30  H   UNL     1      -4.420 -15.710   6.477  0.00  0.00    +0.000 HD
ATOM     31  H   UNL     1      -3.771 -17.201   5.751  0.00  0.00    +0.000 HD
BRANCH  29  32
ATOM     32  O   UNL     1      -5.613 -17.368   6.635  0.00  0.00    +0.000 OA
ATOM     33  H   UNL     1      -5.605 -17.025   7.546  0.00  0.00    +0.000 HD
ENDBRANCH  29  32
ENDBRANCH  26  29
ENDBRANCH  23  26
ENDBRANCH  20  23
ENDBRANCH   1  20
TORSDOF 10
ENDMDL
