MODEL 1
REMARK VINA RESULT:    -4.507      0.000      0.000
REMARK INTER + INTRA:          -8.109
REMARK INTER:                  -6.723
REMARK INTRA:                  -1.385
REMARK UNBOUND:                -0.704
REMARK  Name = 8193
REMARK  12 active torsions:
REMARK  status: ('A' for Active; 'I' for Inactive)
REMARK    1  A    between atoms: O_1  and  C_12
REMARK    2  A    between atoms: C_2  and  C_3
REMARK    3  A    between atoms: C_2  and  C_4
REMARK    4  A    between atoms: C_3  and  C_5
REMARK    5  A    between atoms: C_4  and  C_6
REMARK    6  A    between atoms: C_5  and  C_7
REMARK    7  A    between atoms: C_6  and  C_8
REMARK    8  A    between atoms: C_7  and  C_9
REMARK    9  A    between atoms: C_8  and  C_10
REMARK   10  A    between atoms: C_9  and  C_11
REMARK   11  A    between atoms: C_10  and  C_12
REMARK   12  A    between atoms: C_11  and  C_13
REMARK                            x       y       z     vdW  Elec       q    Type
REMARK                         _______ _______ _______ _____ _____    ______ ____
ROOT
ATOM      1  C   UNL     1      16.708  -6.203  -0.026  0.00  0.00    +0.000 C 
ATOM      2  H   UNL     1      16.483  -6.079   1.040  0.00  0.00    +0.000 HD
ATOM      3  H   UNL     1      17.016  -5.219  -0.402  0.00  0.00    +0.000 HD
ENDROOT
BRANCH   1   4
ATOM      4  C   UNL     1      15.433  -6.637  -0.758  0.00  0.00    +0.000 C 
ATOM      5  H   UNL     1      14.576  -6.139  -0.288  0.00  0.00    +0.000 HD
ATOM      6  H   UNL     1      15.287  -7.714  -0.602  0.00  0.00    +0.000 HD
BRANCH   4   7
ATOM      7  C   UNL     1      15.398  -6.360  -2.266  0.00  0.00    +0.000 C 
ATOM      8  H   UNL     1      14.378  -6.515  -2.638  0.00  0.00    +0.000 HD
ATOM      9  H   UNL     1      16.036  -7.093  -2.773  0.00  0.00    +0.000 HD
BRANCH   7  10
ATOM     10  C   UNL     1      15.863  -4.949  -2.635  0.00  0.00    +0.000 C 
ATOM     11  H   UNL     1      16.157  -4.417  -1.722  0.00  0.00    +0.000 HD
ATOM     12  H   UNL     1      15.022  -4.394  -3.069  0.00  0.00    +0.000 HD
BRANCH  10  13
ATOM     13  C   UNL     1      17.040  -4.935  -3.616  0.00  0.00    +0.000 C 
ATOM     14  H   UNL     1      16.693  -4.567  -4.590  0.00  0.00    +0.000 HD
ATOM     15  H   UNL     1      17.790  -4.219  -3.258  0.00  0.00    +0.000 HD
BRANCH  13  16
ATOM     16  C   UNL     1      17.696  -6.303  -3.803  0.00  0.00    +0.000 C 
ATOM     17  H   UNL     1      17.193  -7.045  -3.172  0.00  0.00    +0.000 HD
ATOM     18  H   UNL     1      18.743  -6.259  -3.481  0.00  0.00    +0.000 HD
BRANCH  16  19
ATOM     19  C   UNL     1      17.639  -6.752  -5.256  0.00  0.00    +0.000 C 
ATOM     20  H   UNL     1      17.219  -7.759  -5.338  0.00  0.00    +0.000 HD
ATOM     21  H   UNL     1      17.008  -6.072  -5.837  0.00  0.00    +0.000 HD
ATOM     22  H   UNL     1      18.638  -6.756  -5.704  0.00  0.00    +0.000 HD
ENDBRANCH  16  19
ENDBRANCH  13  16
ENDBRANCH  10  13
ENDBRANCH   7  10
ENDBRANCH   4   7
ENDBRANCH   1   4
BRANCH   1  23
ATOM     23  C   UNL     1      17.867  -7.188  -0.193  0.00  0.00    +0.000 C 
ATOM     24  H   UNL     1      17.710  -7.781  -1.103  0.00  0.00    +0.000 HD
ATOM     25  H   UNL     1      17.862  -7.892   0.649  0.00  0.00    +0.000 HD
BRANCH  23  26
ATOM     26  C   UNL     1      19.236  -6.505  -0.269  0.00  0.00    +0.000 C 
ATOM     27  H   UNL     1      19.737  -6.596   0.702  0.00  0.00    +0.000 HD
ATOM     28  H   UNL     1      19.859  -7.036  -0.999  0.00  0.00    +0.000 HD
BRANCH  26  29
ATOM     29  C   UNL     1      19.154  -5.027  -0.659  0.00  0.00    +0.000 C 
ATOM     30  H   UNL     1      19.071  -4.414   0.246  0.00  0.00    +0.000 HD
ATOM     31  H   UNL     1      18.250  -4.852  -1.254  0.00  0.00    +0.000 HD
BRANCH  29  32
ATOM     32  C   UNL     1      20.388  -4.597  -1.461  0.00  0.00    +0.000 C 
ATOM     33  H   UNL     1      21.203  -4.323  -0.780  0.00  0.00    +0.000 HD
ATOM     34  H   UNL     1      20.765  -5.440  -2.054  0.00  0.00    +0.000 HD
BRANCH  32  35
ATOM     35  C   UNL     1      20.093  -3.424  -2.387  0.00  0.00    +0.000 C 
ATOM     36  H   UNL     1      19.038  -3.139  -2.324  0.00  0.00    +0.000 HD
ATOM     37  H   UNL     1      20.709  -2.559  -2.121  0.00  0.00    +0.000 HD
BRANCH  35  38
ATOM     38  O   UNL     1      20.382  -3.783  -3.731  0.00  0.00    +0.000 OA
ATOM     39  H   UNL     1      21.251  -3.403  -3.946  0.00  0.00    +0.000 HD
ENDBRANCH  35  38
ENDBRANCH  32  35
ENDBRANCH  29  32
ENDBRANCH  26  29
ENDBRANCH  23  26
ENDBRANCH   1  23
TORSDOF 12
ENDMDL
MODEL 2
REMARK VINA RESULT:    -4.501     25.108     27.112
REMARK INTER + INTRA:          -8.100
REMARK INTER:                  -6.802
REMARK INTRA:                  -1.298
REMARK UNBOUND:                -0.704
REMARK  Name = 8193
REMARK  12 active torsions:
REMARK  status: ('A' for Active; 'I' for Inactive)
REMARK    1  A    between atoms: O_1  and  C_12
REMARK    2  A    between atoms: C_2  and  C_3
REMARK    3  A    between atoms: C_2  and  C_4
REMARK    4  A    between atoms: C_3  and  C_5
REMARK    5  A    between atoms: C_4  and  C_6
REMARK    6  A    between atoms: C_5  and  C_7
REMARK    7  A    between atoms: C_6  and  C_8
REMARK    8  A    between atoms: C_7  and  C_9
REMARK    9  A    between atoms: C_8  and  C_10
REMARK   10  A    between atoms: C_9  and  C_11
REMARK   11  A    between atoms: C_10  and  C_12
REMARK   12  A    between atoms: C_11  and  C_13
REMARK                            x       y       z     vdW  Elec       q    Type
REMARK                         _______ _______ _______ _____ _____    ______ ____
ROOT
ATOM      1  C   UNL     1      -7.859 -13.608   6.299  0.00  0.00    +0.000 C 
ATOM      2  H   UNL     1      -6.844 -13.692   6.704  0.00  0.00    +0.000 HD
ATOM      3  H   UNL     1      -8.414 -12.938   6.968  0.00  0.00    +0.000 HD
ENDROOT
BRANCH   1   4
ATOM      4  C   UNL     1      -8.521 -14.991   6.319  0.00  0.00    +0.000 C 
ATOM      5  H   UNL     1      -9.543 -14.892   5.932  0.00  0.00    +0.000 HD
ATOM      6  H   UNL     1      -8.617 -15.319   7.362  0.00  0.00    +0.000 HD
BRANCH   4   7
ATOM      7  C   UNL     1      -7.799 -16.090   5.532  0.00  0.00    +0.000 C 
ATOM      8  H   UNL     1      -7.700 -15.779   4.485  0.00  0.00    +0.000 HD
ATOM      9  H   UNL     1      -8.422 -16.993   5.537  0.00  0.00    +0.000 HD
BRANCH   7  10
ATOM     10  C   UNL     1      -6.417 -16.432   6.093  0.00  0.00    +0.000 C 
ATOM     11  H   UNL     1      -6.489 -17.344   6.697  0.00  0.00    +0.000 HD
ATOM     12  H   UNL     1      -6.093 -15.630   6.769  0.00  0.00    +0.000 HD
BRANCH  10  13
ATOM     13  C   UNL     1      -5.355 -16.639   5.008  0.00  0.00    +0.000 C 
ATOM     14  H   UNL     1      -5.001 -17.677   5.045  0.00  0.00    +0.000 HD
ATOM     15  H   UNL     1      -5.823 -16.501   4.026  0.00  0.00    +0.000 HD
BRANCH  13  16
ATOM     16  C   UNL     1      -4.158 -15.697   5.136  0.00  0.00    +0.000 C 
ATOM     17  H   UNL     1      -4.478 -14.749   5.584  0.00  0.00    +0.000 HD
ATOM     18  H   UNL     1      -3.759 -15.468   4.142  0.00  0.00    +0.000 HD
BRANCH  16  19
ATOM     19  C   UNL     1      -3.057 -16.313   5.987  0.00  0.00    +0.000 C 
ATOM     20  H   UNL     1      -3.092 -17.406   5.942  0.00  0.00    +0.000 HD
ATOM     21  H   UNL     1      -2.075 -15.990   5.626  0.00  0.00    +0.000 HD
ATOM     22  H   UNL     1      -3.153 -16.007   7.034  0.00  0.00    +0.000 HD
ENDBRANCH  16  19
ENDBRANCH  13  16
ENDBRANCH  10  13
ENDBRANCH   7  10
ENDBRANCH   4   7
ENDBRANCH   1   4
BRANCH   1  23
ATOM     23  C   UNL     1      -7.801 -12.985   4.902  0.00  0.00    +0.000 C 
ATOM     24  H   UNL     1      -8.350 -12.034   4.907  0.00  0.00    +0.000 HD
ATOM     25  H   UNL     1      -8.318 -13.644   4.194  0.00  0.00    +0.000 HD
BRANCH  23  26
ATOM     26  C   UNL     1      -6.372 -12.737   4.409  0.00  0.00    +0.000 C 
ATOM     27  H   UNL     1      -6.187 -11.657   4.372  0.00  0.00    +0.000 HD
ATOM     28  H   UNL     1      -5.667 -13.156   5.137  0.00  0.00    +0.000 HD
BRANCH  26  29
ATOM     29  C   UNL     1      -6.093 -13.345   3.032  0.00  0.00    +0.000 C 
ATOM     30  H   UNL     1      -5.303 -14.100   3.119  0.00  0.00    +0.000 HD
ATOM     31  H   UNL     1      -5.725 -12.567   2.353  0.00  0.00    +0.000 HD
BRANCH  29  32
ATOM     32  C   UNL     1      -7.355 -13.984   2.443  0.00  0.00    +0.000 C 
ATOM     33  H   UNL     1      -7.978 -14.398   3.245  0.00  0.00    +0.000 HD
ATOM     34  H   UNL     1      -7.971 -13.221   1.950  0.00  0.00    +0.000 HD
BRANCH  32  35
ATOM     35  C   UNL     1      -7.029 -15.088   1.443  0.00  0.00    +0.000 C 
ATOM     36  H   UNL     1      -6.387 -15.846   1.901  0.00  0.00    +0.000 HD
ATOM     37  H   UNL     1      -7.946 -15.569   1.088  0.00  0.00    +0.000 HD
BRANCH  35  38
ATOM     38  O   UNL     1      -6.349 -14.539   0.322  0.00  0.00    +0.000 OA
ATOM     39  H   UNL     1      -6.524 -15.128  -0.432  0.00  0.00    +0.000 HD
ENDBRANCH  35  38
ENDBRANCH  32  35
ENDBRANCH  29  32
ENDBRANCH  26  29
ENDBRANCH  23  26
ENDBRANCH   1  23
TORSDOF 12
ENDMDL
MODEL 3
REMARK VINA RESULT:    -4.490      1.552      3.628
REMARK INTER + INTRA:          -8.082
REMARK INTER:                  -6.631
REMARK INTRA:                  -1.451
REMARK UNBOUND:                -0.704
REMARK  Name = 8193
REMARK  12 active torsions:
REMARK  status: ('A' for Active; 'I' for Inactive)
REMARK    1  A    between atoms: O_1  and  C_12
REMARK    2  A    between atoms: C_2  and  C_3
REMARK    3  A    between atoms: C_2  and  C_4
REMARK    4  A    between atoms: C_3  and  C_5
REMARK    5  A    between atoms: C_4  and  C_6
REMARK    6  A    between atoms: C_5  and  C_7
REMARK    7  A    between atoms: C_6  and  C_8
REMARK    8  A    between atoms: C_7  and  C_9
REMARK    9  A    between atoms: C_8  and  C_10
REMARK   10  A    between atoms: C_9  and  C_11
REMARK   11  A    between atoms: C_10  and  C_12
REMARK   12  A    between atoms: C_11  and  C_13
REMARK                            x       y       z     vdW  Elec       q    Type
REMARK                         _______ _______ _______ _____ _____    ______ ____
ROOT
ATOM      1  C   UNL     1      15.750  -4.920  -2.499  0.00  0.00    +0.000 C 
ATOM      2  H   UNL     1      15.881  -4.214  -1.670  0.00  0.00    +0.000 HD
ATOM      3  H   UNL     1      14.891  -4.568  -3.083  0.00  0.00    +0.000 HD
ENDROOT
BRANCH   1   4
ATOM      4  C   UNL     1      15.429  -6.306  -1.927  0.00  0.00    +0.000 C 
ATOM      5  H   UNL     1      15.960  -7.059  -2.523  0.00  0.00    +0.000 HD
ATOM      6  H   UNL     1      14.358  -6.504  -2.064  0.00  0.00    +0.000 HD
BRANCH   4   7
ATOM      7  C   UNL     1      15.773  -6.516  -0.448  0.00  0.00    +0.000 C 
ATOM      8  H   UNL     1      14.992  -7.127   0.021  0.00  0.00    +0.000 HD
ATOM      9  H   UNL     1      15.761  -5.543   0.058  0.00  0.00    +0.000 HD
BRANCH   7  10
ATOM     10  C   UNL     1      17.135  -7.179  -0.228  0.00  0.00    +0.000 C 
ATOM     11  H   UNL     1      17.327  -7.886  -1.044  0.00  0.00    +0.000 HD
ATOM     12  H   UNL     1      17.106  -7.765   0.699  0.00  0.00    +0.000 HD
BRANCH  10  13
ATOM     13  C   UNL     1      18.294  -6.178  -0.159  0.00  0.00    +0.000 C 
ATOM     14  H   UNL     1      19.143  -6.646   0.353  0.00  0.00    +0.000 HD
ATOM     15  H   UNL     1      18.627  -5.953  -1.180  0.00  0.00    +0.000 HD
BRANCH  13  16
ATOM     16  C   UNL     1      17.934  -4.875   0.554  0.00  0.00    +0.000 C 
ATOM     17  H   UNL     1      18.346  -4.882   1.570  0.00  0.00    +0.000 HD
ATOM     18  H   UNL     1      16.845  -4.791   0.646  0.00  0.00    +0.000 HD
BRANCH  16  19
ATOM     19  C   UNL     1      18.466  -3.665  -0.200  0.00  0.00    +0.000 C 
ATOM     20  H   UNL     1      18.660  -2.832   0.483  0.00  0.00    +0.000 HD
ATOM     21  H   UNL     1      19.404  -3.916  -0.705  0.00  0.00    +0.000 HD
ATOM     22  H   UNL     1      17.750  -3.330  -0.958  0.00  0.00    +0.000 HD
ENDBRANCH  16  19
ENDBRANCH  13  16
ENDBRANCH  10  13
ENDBRANCH   7  10
ENDBRANCH   4   7
ENDBRANCH   1   4
BRANCH   1  23
ATOM     23  C   UNL     1      16.998  -4.904  -3.385  0.00  0.00    +0.000 C 
ATOM     24  H   UNL     1      17.863  -4.596  -2.785  0.00  0.00    +0.000 HD
ATOM     25  H   UNL     1      16.870  -4.148  -4.170  0.00  0.00    +0.000 HD
BRANCH  23  26
ATOM     26  C   UNL     1      17.295  -6.259  -4.036  0.00  0.00    +0.000 C 
ATOM     27  H   UNL     1      16.849  -7.055  -3.428  0.00  0.00    +0.000 HD
ATOM     28  H   UNL     1      16.806  -6.298  -5.017  0.00  0.00    +0.000 HD
BRANCH  26  29
ATOM     29  C   UNL     1      18.791  -6.533  -4.209  0.00  0.00    +0.000 C 
ATOM     30  H   UNL     1      18.999  -6.780  -5.257  0.00  0.00    +0.000 HD
ATOM     31  H   UNL     1      19.079  -7.402  -3.607  0.00  0.00    +0.000 HD
BRANCH  29  32
ATOM     32  C   UNL     1      19.628  -5.319  -3.790  0.00  0.00    +0.000 C 
ATOM     33  H   UNL     1      19.052  -4.396  -3.934  0.00  0.00    +0.000 HD
ATOM     34  H   UNL     1      19.852  -5.367  -2.717  0.00  0.00    +0.000 HD
BRANCH  32  35
ATOM     35  C   UNL     1      20.933  -5.221  -4.570  0.00  0.00    +0.000 C 
ATOM     36  H   UNL     1      20.737  -5.191  -5.647  0.00  0.00    +0.000 HD
ATOM     37  H   UNL     1      21.485  -4.320  -4.286  0.00  0.00    +0.000 HD
BRANCH  35  38
ATOM     38  O   UNL     1      21.749  -6.352  -4.293  0.00  0.00    +0.000 OA
ATOM     39  H   UNL     1      22.670  -6.080  -4.441  0.00  0.00    +0.000 HD
ENDBRANCH  35  38
ENDBRANCH  32  35
ENDBRANCH  29  32
ENDBRANCH  26  29
ENDBRANCH  23  26
ENDBRANCH   1  23
TORSDOF 12
ENDMDL
MODEL 4
REMARK VINA RESULT:    -4.442     11.879     13.350
REMARK INTER + INTRA:          -8.002
REMARK INTER:                  -6.741
REMARK INTRA:                  -1.261
REMARK UNBOUND:                -0.704
REMARK  Name = 8193
REMARK  12 active torsions:
REMARK  status: ('A' for Active; 'I' for Inactive)
REMARK    1  A    between atoms: O_1  and  C_12
REMARK    2  A    between atoms: C_2  and  C_3
REMARK    3  A    between atoms: C_2  and  C_4
REMARK    4  A    between atoms: C_3  and  C_5
REMARK    5  A    between atoms: C_4  and  C_6
REMARK    6  A    between atoms: C_5  and  C_7
REMARK    7  A    between atoms: C_6  and  C_8
REMARK    8  A    between atoms: C_7  and  C_9
REMARK    9  A    between atoms: C_8  and  C_10
REMARK   10  A    between atoms: C_9  and  C_11
REMARK   11  A    between atoms: C_10  and  C_12
REMARK   12  A    between atoms: C_11  and  C_13
REMARK                            x       y       z     vdW  Elec       q    Type
REMARK                         _______ _______ _______ _____ _____    ______ ____
ROOT
ATOM      1  C   UNL     1      15.498   4.569  -0.912  0.00  0.00    +0.000 C 
ATOM      2  H   UNL     1      15.867   3.584  -1.221  0.00  0.00    +0.000 HD
ATOM      3  H   UNL     1      14.403   4.521  -0.937  0.00  0.00    +0.000 HD
ENDROOT
BRANCH   1   4
ATOM      4  C   UNL     1      15.973   5.619  -1.924  0.00  0.00    +0.000 C 
ATOM      5  H   UNL     1      16.797   5.190  -2.507  0.00  0.00    +0.000 HD
ATOM      6  H   UNL     1      16.394   6.471  -1.375  0.00  0.00    +0.000 HD
BRANCH   4   7
ATOM      7  C   UNL     1      14.907   6.147  -2.891  0.00  0.00    +0.000 C 
ATOM      8  H   UNL     1      13.915   5.843  -2.536  0.00  0.00    +0.000 HD
ATOM      9  H   UNL     1      15.053   5.674  -3.869  0.00  0.00    +0.000 HD
BRANCH   7  10
ATOM     10  C   UNL     1      14.941   7.669  -3.060  0.00  0.00    +0.000 C 
ATOM     11  H   UNL     1      14.017   8.096  -2.652  0.00  0.00    +0.000 HD
ATOM     12  H   UNL     1      14.957   7.912  -4.130  0.00  0.00    +0.000 HD
BRANCH  10  13
ATOM     13  C   UNL     1      16.139   8.330  -2.371  0.00  0.00    +0.000 C 
ATOM     14  H   UNL     1      15.795   9.216  -1.823  0.00  0.00    +0.000 HD
ATOM     15  H   UNL     1      16.544   7.636  -1.625  0.00  0.00    +0.000 HD
BRANCH  13  16
ATOM     16  C   UNL     1      17.250   8.739  -3.339  0.00  0.00    +0.000 C 
ATOM     17  H   UNL     1      17.128   9.792  -3.621  0.00  0.00    +0.000 HD
ATOM     18  H   UNL     1      17.178   8.146  -4.257  0.00  0.00    +0.000 HD
BRANCH  16  19
ATOM     19  C   UNL     1      18.625   8.538  -2.720  0.00  0.00    +0.000 C 
ATOM     20  H   UNL     1      18.547   8.352  -1.644  0.00  0.00    +0.000 HD
ATOM     21  H   UNL     1      19.124   7.678  -3.178  0.00  0.00    +0.000 HD
ATOM     22  H   UNL     1      19.256   9.419  -2.872  0.00  0.00    +0.000 HD
ENDBRANCH  16  19
ENDBRANCH  13  16
ENDBRANCH  10  13
ENDBRANCH   7  10
ENDBRANCH   4   7
ENDBRANCH   1   4
BRANCH   1  23
ATOM     23  C   UNL     1      15.954   4.859   0.520  0.00  0.00    +0.000 C 
ATOM     24  H   UNL     1      16.876   4.299   0.726  0.00  0.00    +0.000 HD
ATOM     25  H   UNL     1      15.195   4.488   1.220  0.00  0.00    +0.000 HD
BRANCH  23  26
ATOM     26  C   UNL     1      16.200   6.347   0.788  0.00  0.00    +0.000 C 
ATOM     27  H   UNL     1      17.158   6.465   1.308  0.00  0.00    +0.000 HD
ATOM     28  H   UNL     1      16.293   6.871  -0.172  0.00  0.00    +0.000 HD
BRANCH  26  29
ATOM     29  C   UNL     1      15.092   7.005   1.614  0.00  0.00    +0.000 C 
ATOM     30  H   UNL     1      15.540   7.639   2.387  0.00  0.00    +0.000 HD
ATOM     31  H   UNL     1      14.505   6.234   2.126  0.00  0.00    +0.000 HD
BRANCH  29  32
ATOM     32  C   UNL     1      14.168   7.848   0.727  0.00  0.00    +0.000 C 
ATOM     33  H   UNL     1      13.823   8.733   1.276  0.00  0.00    +0.000 HD
ATOM     34  H   UNL     1      14.722   8.231  -0.139  0.00  0.00    +0.000 HD
BRANCH  32  35
ATOM     35  C   UNL     1      12.959   7.058   0.241  0.00  0.00    +0.000 C 
ATOM     36  H   UNL     1      13.024   6.878  -0.837  0.00  0.00    +0.000 HD
ATOM     37  H   UNL     1      12.896   6.095   0.757  0.00  0.00    +0.000 HD
BRANCH  35  38
ATOM     38  O   UNL     1      11.767   7.786   0.504  0.00  0.00    +0.000 OA
ATOM     39  H   UNL     1      11.430   7.477   1.362  0.00  0.00    +0.000 HD
ENDBRANCH  35  38
ENDBRANCH  32  35
ENDBRANCH  29  32
ENDBRANCH  26  29
ENDBRANCH  23  26
ENDBRANCH   1  23
TORSDOF 12
ENDMDL
MODEL 5
REMARK VINA RESULT:    -4.390     21.775     23.519
REMARK INTER + INTRA:          -7.918
REMARK INTER:                  -7.386
REMARK INTRA:                  -0.532
REMARK UNBOUND:                -0.704
REMARK  Name = 8193
REMARK  12 active torsions:
REMARK  status: ('A' for Active; 'I' for Inactive)
REMARK    1  A    between atoms: O_1  and  C_12
REMARK    2  A    between atoms: C_2  and  C_3
REMARK    3  A    between atoms: C_2  and  C_4
REMARK    4  A    between atoms: C_3  and  C_5
REMARK    5  A    between atoms: C_4  and  C_6
REMARK    6  A    between atoms: C_5  and  C_7
REMARK    7  A    between atoms: C_6  and  C_8
REMARK    8  A    between atoms: C_7  and  C_9
REMARK    9  A    between atoms: C_8  and  C_10
REMARK   10  A    between atoms: C_9  and  C_11
REMARK   11  A    between atoms: C_10  and  C_12
REMARK   12  A    between atoms: C_11  and  C_13
REMARK                            x       y       z     vdW  Elec       q    Type
REMARK                         _______ _______ _______ _____ _____    ______ ____
ROOT
ATOM      1  C   UNL     1       6.289   5.279 -18.316  0.00  0.00    +0.000 C 
ATOM      2  H   UNL     1       6.127   5.762 -17.344  0.00  0.00    +0.000 HD
ATOM      3  H   UNL     1       7.152   5.775 -18.777  0.00  0.00    +0.000 HD
ENDROOT
BRANCH   1   4
ATOM      4  C   UNL     1       5.055   5.506 -19.197  0.00  0.00    +0.000 C 
ATOM      5  H   UNL     1       5.308   6.252 -19.961  0.00  0.00    +0.000 HD
ATOM      6  H   UNL     1       4.261   5.951 -18.583  0.00  0.00    +0.000 HD
BRANCH   4   7
ATOM      7  C   UNL     1       4.489   4.262 -19.891  0.00  0.00    +0.000 C 
ATOM      8  H   UNL     1       4.097   3.573 -19.133  0.00  0.00    +0.000 HD
ATOM      9  H   UNL     1       5.308   3.739 -20.400  0.00  0.00    +0.000 HD
BRANCH   7  10
ATOM     10  C   UNL     1       3.389   4.579 -20.906  0.00  0.00    +0.000 C 
ATOM     11  H   UNL     1       3.328   3.764 -21.638  0.00  0.00    +0.000 HD
ATOM     12  H   UNL     1       3.662   5.485 -21.463  0.00  0.00    +0.000 HD
BRANCH  10  13
ATOM     13  C   UNL     1       2.010   4.774 -20.267  0.00  0.00    +0.000 C 
ATOM     14  H   UNL     1       1.256   4.257 -20.873  0.00  0.00    +0.000 HD
ATOM     15  H   UNL     1       2.007   4.292 -19.281  0.00  0.00    +0.000 HD
BRANCH  13  16
ATOM     16  C   UNL     1       1.609   6.241 -20.114  0.00  0.00    +0.000 C 
ATOM     17  H   UNL     1       1.136   6.595 -21.037  0.00  0.00    +0.000 HD
ATOM     18  H   UNL     1       2.502   6.854 -19.951  0.00  0.00    +0.000 HD
BRANCH  16  19
ATOM     19  C   UNL     1       0.651   6.435 -18.947  0.00  0.00    +0.000 C 
ATOM     20  H   UNL     1      -0.160   5.701 -18.981  0.00  0.00    +0.000 HD
ATOM     21  H   UNL     1       1.182   6.312 -17.997  0.00  0.00    +0.000 HD
ATOM     22  H   UNL     1       0.211   7.437 -18.964  0.00  0.00    +0.000 HD
ENDBRANCH  16  19
ENDBRANCH  13  16
ENDBRANCH  10  13
ENDBRANCH   7  10
ENDBRANCH   4   7
ENDBRANCH   1   4
BRANCH   1  23
ATOM     23  C   UNL     1       6.617   3.799 -18.102  0.00  0.00    +0.000 C 
ATOM     24  H   UNL     1       5.888   3.185 -18.647  0.00  0.00    +0.000 HD
ATOM     25  H   UNL     1       6.503   3.557 -17.038  0.00  0.00    +0.000 HD
BRANCH  23  26
ATOM     26  C   UNL     1       8.030   3.422 -18.556  0.00  0.00    +0.000 C 
ATOM     27  H   UNL     1       8.557   2.937 -17.725  0.00  0.00    +0.000 HD
ATOM     28  H   UNL     1       7.960   2.680 -19.362  0.00  0.00    +0.000 HD
BRANCH  26  29
ATOM     29  C   UNL     1       8.850   4.619 -19.045  0.00  0.00    +0.000 C 
ATOM     30  H   UNL     1       8.333   5.548 -18.781  0.00  0.00    +0.000 HD
ATOM     31  H   UNL     1       8.928   4.590 -20.139  0.00  0.00    +0.000 HD
BRANCH  29  32
ATOM     32  C   UNL     1      10.254   4.616 -18.430  0.00  0.00    +0.000 C 
ATOM     33  H   UNL     1      10.266   5.220 -17.515  0.00  0.00    +0.000 HD
ATOM     34  H   UNL     1      10.530   3.600 -18.122  0.00  0.00    +0.000 HD
BRANCH  32  35
ATOM     35  C   UNL     1      11.306   5.150 -19.396  0.00  0.00    +0.000 C 
ATOM     36  H   UNL     1      11.911   4.331 -19.798  0.00  0.00    +0.000 HD
ATOM     37  H   UNL     1      10.832   5.680 -20.227  0.00  0.00    +0.000 HD
BRANCH  35  38
ATOM     38  O   UNL     1      12.167   6.056 -18.720  0.00  0.00    +0.000 OA
ATOM     39  H   UNL     1      12.777   6.418 -19.385  0.00  0.00    +0.000 HD
ENDBRANCH  35  38
ENDBRANCH  32  35
ENDBRANCH  29  32
ENDBRANCH  26  29
ENDBRANCH  23  26
ENDBRANCH   1  23
TORSDOF 12
ENDMDL
MODEL 6
REMARK VINA RESULT:    -4.370     24.962     26.867
REMARK INTER + INTRA:          -7.885
REMARK INTER:                  -6.475
REMARK INTRA:                  -1.409
REMARK UNBOUND:                -0.704
REMARK  Name = 8193
REMARK  12 active torsions:
REMARK  status: ('A' for Active; 'I' for Inactive)
REMARK    1  A    between atoms: O_1  and  C_12
REMARK    2  A    between atoms: C_2  and  C_3
REMARK    3  A    between atoms: C_2  and  C_4
REMARK    4  A    between atoms: C_3  and  C_5
REMARK    5  A    between atoms: C_4  and  C_6
REMARK    6  A    between atoms: C_5  and  C_7
REMARK    7  A    between atoms: C_6  and  C_8
REMARK    8  A    between atoms: C_7  and  C_9
REMARK    9  A    between atoms: C_8  and  C_10
REMARK   10  A    between atoms: C_9  and  C_11
REMARK   11  A    between atoms: C_10  and  C_12
REMARK   12  A    between atoms: C_11  and  C_13
REMARK                            x       y       z     vdW  Elec       q    Type
REMARK                         _______ _______ _______ _____ _____    ______ ____
ROOT
ATOM      1  C   UNL     1       4.154   3.902 -21.588  0.00  0.00    +0.000 C 
ATOM      2  H   UNL     1       4.850   3.312 -22.197  0.00  0.00    +0.000 HD
ATOM      3  H   UNL     1       3.219   3.977 -22.158  0.00  0.00    +0.000 HD
ENDROOT
BRANCH   1   4
ATOM      4  C   UNL     1       4.731   5.308 -21.392  0.00  0.00    +0.000 C 
ATOM      5  H   UNL     1       5.237   5.609 -22.318  0.00  0.00    +0.000 HD
ATOM      6  H   UNL     1       5.508   5.265 -20.618  0.00  0.00    +0.000 HD
BRANCH   4   7
ATOM      7  C   UNL     1       3.725   6.398 -21.004  0.00  0.00    +0.000 C 
ATOM      8  H   UNL     1       4.181   7.383 -21.158  0.00  0.00    +0.000 HD
ATOM      9  H   UNL     1       3.510   6.312 -19.932  0.00  0.00    +0.000 HD
BRANCH   7  10
ATOM     10  C   UNL     1       2.411   6.319 -21.787  0.00  0.00    +0.000 C 
ATOM     11  H   UNL     1       2.382   5.375 -22.346  0.00  0.00    +0.000 HD
ATOM     12  H   UNL     1       2.384   7.127 -22.528  0.00  0.00    +0.000 HD
BRANCH  10  13
ATOM     13  C   UNL     1       1.167   6.405 -20.896  0.00  0.00    +0.000 C 
ATOM     14  H   UNL     1       0.826   7.447 -20.855  0.00  0.00    +0.000 HD
ATOM     15  H   UNL     1       0.359   5.828 -21.363  0.00  0.00    +0.000 HD
BRANCH  13  16
ATOM     16  C   UNL     1       1.397   5.896 -19.474  0.00  0.00    +0.000 C 
ATOM     17  H   UNL     1       2.453   6.012 -19.204  0.00  0.00    +0.000 HD
ATOM     18  H   UNL     1       1.164   4.827 -19.420  0.00  0.00    +0.000 HD
BRANCH  16  19
ATOM     19  C   UNL     1       0.533   6.646 -18.470  0.00  0.00    +0.000 C 
ATOM     20  H   UNL     1       0.606   6.194 -17.476  0.00  0.00    +0.000 HD
ATOM     21  H   UNL     1       0.860   7.688 -18.394  0.00  0.00    +0.000 HD
ATOM     22  H   UNL     1      -0.518   6.639 -18.776  0.00  0.00    +0.000 HD
ENDBRANCH  16  19
ENDBRANCH  13  16
ENDBRANCH  10  13
ENDBRANCH   7  10
ENDBRANCH   4   7
ENDBRANCH   1   4
BRANCH   1  23
ATOM     23  C   UNL     1       3.880   3.170 -20.272  0.00  0.00    +0.000 C 
ATOM     24  H   UNL     1       3.842   3.900 -19.454  0.00  0.00    +0.000 HD
ATOM     25  H   UNL     1       4.718   2.495 -20.057  0.00  0.00    +0.000 HD
BRANCH  23  26
ATOM     26  C   UNL     1       2.577   2.365 -20.287  0.00  0.00    +0.000 C 
ATOM     27  H   UNL     1       2.814   1.297 -20.204  0.00  0.00    +0.000 HD
ATOM     28  H   UNL     1       1.985   2.629 -19.403  0.00  0.00    +0.000 HD
BRANCH  26  29
ATOM     29  C   UNL     1       1.735   2.599 -21.544  0.00  0.00    +0.000 C 
ATOM     30  H   UNL     1       2.217   2.117 -22.403  0.00  0.00    +0.000 HD
ATOM     31  H   UNL     1       1.685   3.673 -21.760  0.00  0.00    +0.000 HD
BRANCH  29  32
ATOM     32  C   UNL     1       0.316   2.045 -21.371  0.00  0.00    +0.000 C 
ATOM     33  H   UNL     1      -0.037   1.609 -22.313  0.00  0.00    +0.000 HD
ATOM     34  H   UNL     1       0.318   1.223 -20.644  0.00  0.00    +0.000 HD
BRANCH  32  35
ATOM     35  C   UNL     1      -0.668   3.115 -20.915  0.00  0.00    +0.000 C 
ATOM     36  H   UNL     1      -0.325   4.109 -21.219  0.00  0.00    +0.000 HD
ATOM     37  H   UNL     1      -1.659   2.936 -21.346  0.00  0.00    +0.000 HD
BRANCH  35  38
ATOM     38  O   UNL     1      -0.786   3.094 -19.499  0.00  0.00    +0.000 OA
ATOM     39  H   UNL     1      -0.018   2.605 -19.158  0.00  0.00    +0.000 HD
ENDBRANCH  35  38
ENDBRANCH  32  35
ENDBRANCH  29  32
ENDBRANCH  26  29
ENDBRANCH  23  26
ENDBRANCH   1  23
TORSDOF 12
ENDMDL
MODEL 7
REMARK VINA RESULT:    -4.306     31.932     34.094
REMARK INTER + INTRA:          -7.779
REMARK INTER:                  -7.073
REMARK INTRA:                  -0.705
REMARK UNBOUND:                -0.704
REMARK  Name = 8193
REMARK  12 active torsions:
REMARK  status: ('A' for Active; 'I' for Inactive)
REMARK    1  A    between atoms: O_1  and  C_12
REMARK    2  A    between atoms: C_2  and  C_3
REMARK    3  A    between atoms: C_2  and  C_4
REMARK    4  A    between atoms: C_3  and  C_5
REMARK    5  A    between atoms: C_4  and  C_6
REMARK    6  A    between atoms: C_5  and  C_7
REMARK    7  A    between atoms: C_6  and  C_8
REMARK    8  A    between atoms: C_7  and  C_9
REMARK    9  A    between atoms: C_8  and  C_10
REMARK   10  A    between atoms: C_9  and  C_11
REMARK   11  A    between atoms: C_10  and  C_12
REMARK   12  A    between atoms: C_11  and  C_13
REMARK                            x       y       z     vdW  Elec       q    Type
REMARK                         _______ _______ _______ _____ _____    ______ ____
ROOT
ATOM      1  C   UNL     1     -16.091  -5.979  -4.382  0.00  0.00    +0.000 C 
ATOM      2  H   UNL     1     -16.402  -5.159  -5.040  0.00  0.00    +0.000 HD
ATOM      3  H   UNL     1     -16.827  -6.783  -4.506  0.00  0.00    +0.000 HD
ENDROOT
BRANCH   1   4
ATOM      4  C   UNL     1     -16.126  -5.493  -2.928  0.00  0.00    +0.000 C 
ATOM      5  H   UNL     1     -16.286  -4.407  -2.929  0.00  0.00    +0.000 HD
ATOM      6  H   UNL     1     -15.138  -5.658  -2.478  0.00  0.00    +0.000 HD
BRANCH   4   7
ATOM      7  C   UNL     1     -17.181  -6.146  -2.028  0.00  0.00    +0.000 C 
ATOM      8  H   UNL     1     -17.683  -5.370  -1.438  0.00  0.00    +0.000 HD
ATOM      9  H   UNL     1     -16.674  -6.808  -1.315  0.00  0.00    +0.000 HD
BRANCH   7  10
ATOM     10  C   UNL     1     -18.227  -6.951  -2.803  0.00  0.00    +0.000 C 
ATOM     11  H   UNL     1     -18.294  -7.959  -2.377  0.00  0.00    +0.000 HD
ATOM     12  H   UNL     1     -17.894  -7.069  -3.842  0.00  0.00    +0.000 HD
BRANCH  10  13
ATOM     13  C   UNL     1     -19.620  -6.313  -2.786  0.00  0.00    +0.000 C 
ATOM     14  H   UNL     1     -19.914  -6.063  -3.813  0.00  0.00    +0.000 HD
ATOM     15  H   UNL     1     -20.343  -7.055  -2.423  0.00  0.00    +0.000 HD
BRANCH  13  16
ATOM     16  C   UNL     1     -19.705  -5.057  -1.920  0.00  0.00    +0.000 C 
ATOM     17  H   UNL     1     -19.734  -4.166  -2.559  0.00  0.00    +0.000 HD
ATOM     18  H   UNL     1     -18.810  -4.977  -1.293  0.00  0.00    +0.000 HD
BRANCH  16  19
ATOM     19  C   UNL     1     -20.939  -5.080  -1.029  0.00  0.00    +0.000 C 
ATOM     20  H   UNL     1     -21.643  -5.852  -1.356  0.00  0.00    +0.000 HD
ATOM     21  H   UNL     1     -20.654  -5.297   0.006  0.00  0.00    +0.000 HD
ATOM     22  H   UNL     1     -21.453  -4.114  -1.046  0.00  0.00    +0.000 HD
ENDBRANCH  16  19
ENDBRANCH  13  16
ENDBRANCH  10  13
ENDBRANCH   7  10
ENDBRANCH   4   7
ENDBRANCH   1   4
BRANCH   1  23
ATOM     23  C   UNL     1     -14.715  -6.489  -4.817  0.00  0.00    +0.000 C 
ATOM     24  H   UNL     1     -14.490  -6.108  -5.822  0.00  0.00    +0.000 HD
ATOM     25  H   UNL     1     -14.746  -7.583  -4.893  0.00  0.00    +0.000 HD
BRANCH  23  26
ATOM     26  C   UNL     1     -13.589  -6.083  -3.861  0.00  0.00    +0.000 C 
ATOM     27  H   UNL     1     -14.002  -5.448  -3.068  0.00  0.00    +0.000 HD
ATOM     28  H   UNL     1     -13.193  -6.982  -3.374  0.00  0.00    +0.000 HD
BRANCH  26  29
ATOM     29  C   UNL     1     -12.443  -5.342  -4.556  0.00  0.00    +0.000 C 
ATOM     30  H   UNL     1     -11.758  -6.069  -5.007  0.00  0.00    +0.000 HD
ATOM     31  H   UNL     1     -11.869  -4.772  -3.815  0.00  0.00    +0.000 HD
BRANCH  29  32
ATOM     32  C   UNL     1     -12.972  -4.392  -5.636  0.00  0.00    +0.000 C 
ATOM     33  H   UNL     1     -14.055  -4.519  -5.752  0.00  0.00    +0.000 HD
ATOM     34  H   UNL     1     -12.826  -3.349  -5.326  0.00  0.00    +0.000 HD
BRANCH  32  35
ATOM     35  C   UNL     1     -12.294  -4.615  -6.982  0.00  0.00    +0.000 C 
ATOM     36  H   UNL     1     -11.301  -4.155  -6.995  0.00  0.00    +0.000 HD
ATOM     37  H   UNL     1     -12.190  -5.685  -7.188  0.00  0.00    +0.000 HD
BRANCH  35  38
ATOM     38  O   UNL     1     -13.073  -4.034  -8.019  0.00  0.00    +0.000 OA
ATOM     39  H   UNL     1     -12.620  -4.228  -8.857  0.00  0.00    +0.000 HD
ENDBRANCH  35  38
ENDBRANCH  32  35
ENDBRANCH  29  32
ENDBRANCH  26  29
ENDBRANCH  23  26
ENDBRANCH   1  23
TORSDOF 12
ENDMDL
MODEL 8
REMARK VINA RESULT:    -4.298     36.133     37.961
REMARK INTER + INTRA:          -7.766
REMARK INTER:                  -7.062
REMARK INTRA:                  -0.704
REMARK UNBOUND:                -0.704
REMARK  Name = 8193
REMARK  12 active torsions:
REMARK  status: ('A' for Active; 'I' for Inactive)
REMARK    1  A    between atoms: O_1  and  C_12
REMARK    2  A    between atoms: C_2  and  C_3
REMARK    3  A    between atoms: C_2  and  C_4
REMARK    4  A    between atoms: C_3  and  C_5
REMARK    5  A    between atoms: C_4  and  C_6
REMARK    6  A    between atoms: C_5  and  C_7
REMARK    7  A    between atoms: C_6  and  C_8
REMARK    8  A    between atoms: C_7  and  C_9
REMARK    9  A    between atoms: C_8  and  C_10
REMARK   10  A    between atoms: C_9  and  C_11
REMARK   11  A    between atoms: C_10  and  C_12
REMARK   12  A    between atoms: C_11  and  C_13
REMARK                            x       y       z     vdW  Elec       q    Type
REMARK                         _______ _______ _______ _____ _____    ______ ____
ROOT
ATOM      1  C   UNL     1      -6.266   5.367  26.860  0.00  0.00    +0.000 C 
ATOM      2  H   UNL     1      -7.247   5.839  26.732  0.00  0.00    +0.000 HD
ATOM      3  H   UNL     1      -5.521   6.173  26.836  0.00  0.00    +0.000 HD
ENDROOT
BRANCH   1   4
ATOM      4  C   UNL     1      -6.011   4.418  25.684  0.00  0.00    +0.000 C 
ATOM      5  H   UNL     1      -6.976   4.162  25.229  0.00  0.00    +0.000 HD
ATOM      6  H   UNL     1      -5.596   3.479  26.074  0.00  0.00    +0.000 HD
BRANCH   4   7
ATOM      7  C   UNL     1      -5.073   4.942  24.591  0.00  0.00    +0.000 C 
ATOM      8  H   UNL     1      -5.112   6.038  24.576  0.00  0.00    +0.000 HD
ATOM      9  H   UNL     1      -5.441   4.599  23.617  0.00  0.00    +0.000 HD
BRANCH   7  10
ATOM     10  C   UNL     1      -3.621   4.489  24.766  0.00  0.00    +0.000 C 
ATOM     11  H   UNL     1      -3.299   3.957  23.863  0.00  0.00    +0.000 HD
ATOM     12  H   UNL     1      -3.565   3.771  25.594  0.00  0.00    +0.000 HD
BRANCH  10  13
ATOM     13  C   UNL     1      -2.651   5.646  25.032  0.00  0.00    +0.000 C 
ATOM     14  H   UNL     1      -3.222   6.532  25.336  0.00  0.00    +0.000 HD
ATOM     15  H   UNL     1      -2.008   5.379  25.880  0.00  0.00    +0.000 HD
BRANCH  13  16
ATOM     16  C   UNL     1      -1.780   6.001  23.827  0.00  0.00    +0.000 C 
ATOM     17  H   UNL     1      -2.413   6.324  22.993  0.00  0.00    +0.000 HD
ATOM     18  H   UNL     1      -1.231   5.113  23.493  0.00  0.00    +0.000 HD
BRANCH  16  19
ATOM     19  C   UNL     1      -0.787   7.103  24.167  0.00  0.00    +0.000 C 
ATOM     20  H   UNL     1      -1.307   8.028  24.435  0.00  0.00    +0.000 HD
ATOM     21  H   UNL     1      -0.165   6.804  25.017  0.00  0.00    +0.000 HD
ATOM     22  H   UNL     1      -0.128   7.311  23.319  0.00  0.00    +0.000 HD
ENDBRANCH  16  19
ENDBRANCH  13  16
ENDBRANCH  10  13
ENDBRANCH   7  10
ENDBRANCH   4   7
ENDBRANCH   1   4
BRANCH   1  23
ATOM     23  C   UNL     1      -6.208   4.673  28.223  0.00  0.00    +0.000 C 
ATOM     24  H   UNL     1      -6.400   3.601  28.091  0.00  0.00    +0.000 HD
ATOM     25  H   UNL     1      -7.013   5.063  28.858  0.00  0.00    +0.000 HD
BRANCH  23  26
ATOM     26  C   UNL     1      -4.867   4.859  28.940  0.00  0.00    +0.000 C 
ATOM     27  H   UNL     1      -4.154   5.330  28.253  0.00  0.00    +0.000 HD
ATOM     28  H   UNL     1      -5.005   5.552  29.779  0.00  0.00    +0.000 HD
BRANCH  26  29
ATOM     29  C   UNL     1      -4.274   3.548  29.464  0.00  0.00    +0.000 C 
ATOM     30  H   UNL     1      -4.590   3.393  30.502  0.00  0.00    +0.000 HD
ATOM     31  H   UNL     1      -3.179   3.613  29.464  0.00  0.00    +0.000 HD
BRANCH  29  32
ATOM     32  C   UNL     1      -4.717   2.358  28.606  0.00  0.00    +0.000 C 
ATOM     33  H   UNL     1      -5.582   2.637  27.993  0.00  0.00    +0.000 HD
ATOM     34  H   UNL     1      -3.924   2.087  27.898  0.00  0.00    +0.000 HD
BRANCH  32  35
ATOM     35  C   UNL     1      -5.074   1.141  29.451  0.00  0.00    +0.000 C 
ATOM     36  H   UNL     1      -4.670   1.242  30.463  0.00  0.00    +0.000 HD
ATOM     37  H   UNL     1      -6.160   1.021  29.513  0.00  0.00    +0.000 HD
BRANCH  35  38
ATOM     38  O   UNL     1      -4.527  -0.032  28.863  0.00  0.00    +0.000 OA
ATOM     39  H   UNL     1      -4.824  -0.051  27.938  0.00  0.00    +0.000 HD
ENDBRANCH  35  38
ENDBRANCH  32  35
ENDBRANCH  29  32
ENDBRANCH  26  29
ENDBRANCH  23  26
ENDBRANCH   1  23
TORSDOF 12
ENDMDL
MODEL 9
REMARK VINA RESULT:    -4.244     23.395     25.838
REMARK INTER + INTRA:          -7.677
REMARK INTER:                  -6.799
REMARK INTRA:                  -0.878
REMARK UNBOUND:                -0.704
REMARK  Name = 8193
REMARK  12 active torsions:
REMARK  status: ('A' for Active; 'I' for Inactive)
REMARK    1  A    between atoms: O_1  and  C_12
REMARK    2  A    between atoms: C_2  and  C_3
REMARK    3  A    between atoms: C_2  and  C_4
REMARK    4  A    between atoms: C_3  and  C_5
REMARK    5  A    between atoms: C_4  and  C_6
REMARK    6  A    between atoms: C_5  and  C_7
REMARK    7  A    between atoms: C_6  and  C_8
REMARK    8  A    between atoms: C_7  and  C_9
REMARK    9  A    between atoms: C_8  and  C_10
REMARK   10  A    between atoms: C_9  and  C_11
REMARK   11  A    between atoms: C_10  and  C_12
REMARK   12  A    between atoms: C_11  and  C_13
REMARK                            x       y       z     vdW  Elec       q    Type
REMARK                         _______ _______ _______ _____ _____    ______ ____
ROOT
ATOM      1  C   UNL     1      -7.142 -14.374   0.115  0.00  0.00    +0.000 C 
ATOM      2  H   UNL     1      -8.176 -14.609  -0.162  0.00  0.00    +0.000 HD
ATOM      3  H   UNL     1      -6.635 -14.042  -0.799  0.00  0.00    +0.000 HD
ENDROOT
BRANCH   1   4
ATOM      4  C   UNL     1      -6.461 -15.650   0.625  0.00  0.00    +0.000 C 
ATOM      5  H   UNL     1      -7.009 -16.516   0.232  0.00  0.00    +0.000 HD
ATOM      6  H   UNL     1      -6.562 -15.691   1.717  0.00  0.00    +0.000 HD
BRANCH   4   7
ATOM      7  C   UNL     1      -4.977 -15.804   0.272  0.00  0.00    +0.000 C 
ATOM      8  H   UNL     1      -4.644 -14.919  -0.284  0.00  0.00    +0.000 HD
ATOM      9  H   UNL     1      -4.862 -16.663  -0.401  0.00  0.00    +0.000 HD
BRANCH   7  10
ATOM     10  C   UNL     1      -4.079 -16.002   1.496  0.00  0.00    +0.000 C 
ATOM     11  H   UNL     1      -3.325 -16.766   1.269  0.00  0.00    +0.000 HD
ATOM     12  H   UNL     1      -4.681 -16.388   2.327  0.00  0.00    +0.000 HD
BRANCH  10  13
ATOM     13  C   UNL     1      -3.365 -14.720   1.939  0.00  0.00    +0.000 C 
ATOM     14  H   UNL     1      -3.855 -13.856   1.475  0.00  0.00    +0.000 HD
ATOM     15  H   UNL     1      -3.487 -14.606   3.024  0.00  0.00    +0.000 HD
BRANCH  13  16
ATOM     16  C   UNL     1      -1.877 -14.698   1.592  0.00  0.00    +0.000 C 
ATOM     17  H   UNL     1      -1.293 -14.425   2.479  0.00  0.00    +0.000 HD
ATOM     18  H   UNL     1      -1.685 -13.935   0.830  0.00  0.00    +0.000 HD
BRANCH  16  19
ATOM     19  C   UNL     1      -1.408 -16.050   1.074  0.00  0.00    +0.000 C 
ATOM     20  H   UNL     1      -0.467 -15.954   0.524  0.00  0.00    +0.000 HD
ATOM     21  H   UNL     1      -1.245 -16.740   1.909  0.00  0.00    +0.000 HD
ATOM     22  H   UNL     1      -2.154 -16.494   0.407  0.00  0.00    +0.000 HD
ENDBRANCH  16  19
ENDBRANCH  13  16
ENDBRANCH  10  13
ENDBRANCH   7  10
ENDBRANCH   4   7
ENDBRANCH   1   4
BRANCH   1  23
ATOM     23  C   UNL     1      -7.132 -13.234   1.136  0.00  0.00    +0.000 C 
ATOM     24  H   UNL     1      -7.994 -12.578   0.952  0.00  0.00    +0.000 HD
ATOM     25  H   UNL     1      -6.233 -12.625   0.984  0.00  0.00    +0.000 HD
BRANCH  23  26
ATOM     26  C   UNL     1      -7.172 -13.720   2.587  0.00  0.00    +0.000 C 
ATOM     27  H   UNL     1      -8.165 -13.521   3.006  0.00  0.00    +0.000 HD
ATOM     28  H   UNL     1      -7.033 -14.809   2.602  0.00  0.00    +0.000 HD
BRANCH  26  29
ATOM     29  C   UNL     1      -6.108 -13.067   3.474  0.00  0.00    +0.000 C 
ATOM     30  H   UNL     1      -6.146 -11.979   3.349  0.00  0.00    +0.000 HD
ATOM     31  H   UNL     1      -5.111 -13.396   3.159  0.00  0.00    +0.000 HD
BRANCH  29  32
ATOM     32  C   UNL     1      -6.323 -13.424   4.950  0.00  0.00    +0.000 C 
ATOM     33  H   UNL     1      -6.068 -14.476   5.124  0.00  0.00    +0.000 HD
ATOM     34  H   UNL     1      -5.641 -12.842   5.582  0.00  0.00    +0.000 HD
BRANCH  32  35
ATOM     35  C   UNL     1      -7.758 -13.176   5.399  0.00  0.00    +0.000 C 
ATOM     36  H   UNL     1      -7.946 -12.104   5.515  0.00  0.00    +0.000 HD
ATOM     37  H   UNL     1      -8.466 -13.581   4.669  0.00  0.00    +0.000 HD
BRANCH  35  38
ATOM     38  O   UNL     1      -7.991 -13.812   6.648  0.00  0.00    +0.000 OA
ATOM     39  H   UNL     1      -7.734 -13.179   7.341  0.00  0.00    +0.000 HD
ENDBRANCH  35  38
ENDBRANCH  32  35
ENDBRANCH  29  32
ENDBRANCH  26  29
ENDBRANCH  23  26
ENDBRANCH   1  23
TORSDOF 12
ENDMDL
MODEL 10
REMARK VINA RESULT:    -4.146     25.239     27.338
REMARK INTER + INTRA:          -7.517
REMARK INTER:                  -6.177
REMARK INTRA:                  -1.340
REMARK UNBOUND:                -0.704
REMARK  Name = 8193
REMARK  12 active torsions:
REMARK  status: ('A' for Active; 'I' for Inactive)
REMARK    1  A    between atoms: O_1  and  C_12
REMARK    2  A    between atoms: C_2  and  C_3
REMARK    3  A    between atoms: C_2  and  C_4
REMARK    4  A    between atoms: C_3  and  C_5
REMARK    5  A    between atoms: C_4  and  C_6
REMARK    6  A    between atoms: C_5  and  C_7
REMARK    7  A    between atoms: C_6  and  C_8
REMARK    8  A    between atoms: C_7  and  C_9
REMARK    9  A    between atoms: C_8  and  C_10
REMARK   10  A    between atoms: C_9  and  C_11
REMARK   11  A    between atoms: C_10  and  C_12
REMARK   12  A    between atoms: C_11  and  C_13
REMARK                            x       y       z     vdW  Elec       q    Type
REMARK                         _______ _______ _______ _____ _____    ______ ____
ROOT
ATOM      1  C   UNL     1      -7.792 -13.203   4.143  0.00  0.00    +0.000 C 
ATOM      2  H   UNL     1      -8.601 -13.939   4.223  0.00  0.00    +0.000 HD
ATOM      3  H   UNL     1      -8.262 -12.236   3.930  0.00  0.00    +0.000 HD
ENDROOT
BRANCH   1   4
ATOM      4  C   UNL     1      -6.884 -13.586   2.969  0.00  0.00    +0.000 C 
ATOM      5  H   UNL     1      -7.106 -12.918   2.127  0.00  0.00    +0.000 HD
ATOM      6  H   UNL     1      -7.147 -14.598   2.636  0.00  0.00    +0.000 HD
BRANCH   4   7
ATOM      7  C   UNL     1      -5.377 -13.546   3.246  0.00  0.00    +0.000 C 
ATOM      8  H   UNL     1      -5.208 -13.565   4.329  0.00  0.00    +0.000 HD
ATOM      9  H   UNL     1      -4.977 -12.593   2.879  0.00  0.00    +0.000 HD
BRANCH   7  10
ATOM     10  C   UNL     1      -4.608 -14.697   2.593  0.00  0.00    +0.000 C 
ATOM     11  H   UNL     1      -3.677 -14.309   2.161  0.00  0.00    +0.000 HD
ATOM     12  H   UNL     1      -5.199 -15.100   1.761  0.00  0.00    +0.000 HD
BRANCH  10  13
ATOM     13  C   UNL     1      -4.266 -15.830   3.567  0.00  0.00    +0.000 C 
ATOM     14  H   UNL     1      -4.941 -16.676   3.386  0.00  0.00    +0.000 HD
ATOM     15  H   UNL     1      -3.251 -16.185   3.352  0.00  0.00    +0.000 HD
BRANCH  13  16
ATOM     16  C   UNL     1      -4.360 -15.421   5.037  0.00  0.00    +0.000 C 
ATOM     17  H   UNL     1      -5.373 -15.067   5.260  0.00  0.00    +0.000 HD
ATOM     18  H   UNL     1      -3.675 -14.588   5.234  0.00  0.00    +0.000 HD
BRANCH  16  19
ATOM     19  C   UNL     1      -4.014 -16.581   5.958  0.00  0.00    +0.000 C 
ATOM     20  H   UNL     1      -3.394 -17.321   5.441  0.00  0.00    +0.000 HD
ATOM     21  H   UNL     1      -3.456 -16.220   6.828  0.00  0.00    +0.000 HD
ATOM     22  H   UNL     1      -4.920 -17.080   6.317  0.00  0.00    +0.000 HD
ENDBRANCH  16  19
ENDBRANCH  13  16
ENDBRANCH  10  13
ENDBRANCH   7  10
ENDBRANCH   4   7
ENDBRANCH   1   4
BRANCH   1  23
ATOM     23  C   UNL     1      -7.049 -13.115   5.479  0.00  0.00    +0.000 C 
ATOM     24  H   UNL     1      -6.838 -12.061   5.706  0.00  0.00    +0.000 HD
ATOM     25  H   UNL     1      -6.079 -13.619   5.384  0.00  0.00    +0.000 HD
BRANCH  23  26
ATOM     26  C   UNL     1      -7.825 -13.734   6.645  0.00  0.00    +0.000 C 
ATOM     27  H   UNL     1      -7.139 -13.907   7.482  0.00  0.00    +0.000 HD
ATOM     28  H   UNL     1      -8.577 -13.015   6.994  0.00  0.00    +0.000 HD
BRANCH  26  29
ATOM     29  C   UNL     1      -8.520 -15.049   6.281  0.00  0.00    +0.000 C 
ATOM     30  H   UNL     1      -8.701 -15.079   5.200  0.00  0.00    +0.000 HD
ATOM     31  H   UNL     1      -9.497 -15.099   6.775  0.00  0.00    +0.000 HD
BRANCH  29  32
ATOM     32  C   UNL     1      -7.672 -16.256   6.696  0.00  0.00    +0.000 C 
ATOM     33  H   UNL     1      -6.638 -15.942   6.888  0.00  0.00    +0.000 HD
ATOM     34  H   UNL     1      -8.040 -16.669   7.643  0.00  0.00    +0.000 HD
BRANCH  32  35
ATOM     35  C   UNL     1      -7.673 -17.352   5.637  0.00  0.00    +0.000 C 
ATOM     36  H   UNL     1      -6.813 -18.016   5.768  0.00  0.00    +0.000 HD
ATOM     37  H   UNL     1      -8.591 -17.946   5.699  0.00  0.00    +0.000 HD
BRANCH  35  38
ATOM     38  O   UNL     1      -7.602 -16.773   4.341  0.00  0.00    +0.000 OA
ATOM     39  H   UNL     1      -7.872 -15.843   4.430  0.00  0.00    +0.000 HD
ENDBRANCH  35  38
ENDBRANCH  32  35
ENDBRANCH  29  32
ENDBRANCH  26  29
ENDBRANCH  23  26
ENDBRANCH   1  23
TORSDOF 12
ENDMDL
