MODEL 1
REMARK VINA RESULT:    -3.828      0.000      0.000
REMARK INTER + INTRA:          -4.990
REMARK INTER:                  -4.814
REMARK INTRA:                  -0.176
REMARK UNBOUND:                -0.043
REMARK  Name = 8103
REMARK  6 active torsions:
REMARK  status: ('A' for Active; 'I' for Inactive)
REMARK    1  A    between atoms: O_1  and  C_6
REMARK    2  A    between atoms: C_2  and  C_3
REMARK    3  A    between atoms: C_2  and  C_4
REMARK    4  A    between atoms: C_3  and  C_5
REMARK    5  A    between atoms: C_4  and  C_6
REMARK    6  A    between atoms: C_5  and  C_7
REMARK                            x       y       z     vdW  Elec       q    Type
REMARK                         _______ _______ _______ _____ _____    ______ ____
ROOT
ATOM      1  C   UNL     1      17.045  -4.859  -3.158  0.00  0.00    +0.000 C 
ATOM      2  H   UNL     1      16.751  -4.784  -4.212  0.00  0.00    +0.000 HD
ATOM      3  H   UNL     1      17.587  -3.937  -2.915  0.00  0.00    +0.000 HD
ENDROOT
BRANCH   1   4
ATOM      4  C   UNL     1      17.990  -6.052  -2.990  0.00  0.00    +0.000 C 
ATOM      5  H   UNL     1      18.793  -5.780  -2.295  0.00  0.00    +0.000 HD
ATOM      6  H   UNL     1      17.437  -6.879  -2.527  0.00  0.00    +0.000 HD
BRANCH   4   7
ATOM      7  C   UNL     1      18.605  -6.530  -4.306  0.00  0.00    +0.000 C 
ATOM      8  H   UNL     1      19.294  -5.769  -4.692  0.00  0.00    +0.000 HD
ATOM      9  H   UNL     1      19.190  -7.441  -4.134  0.00  0.00    +0.000 HD
BRANCH   7  10
ATOM     10  C   UNL     1      17.534  -6.807  -5.350  0.00  0.00    +0.000 C 
ATOM     11  H   UNL     1      17.061  -7.775  -5.159  0.00  0.00    +0.000 HD
ATOM     12  H   UNL     1      16.755  -6.038  -5.327  0.00  0.00    +0.000 HD
ATOM     13  H   UNL     1      17.964  -6.832  -6.357  0.00  0.00    +0.000 HD
ENDBRANCH   7  10
ENDBRANCH   4   7
ENDBRANCH   1   4
BRANCH   1  14
ATOM     14  C   UNL     1      15.793  -4.948  -2.288  0.00  0.00    +0.000 C 
ATOM     15  H   UNL     1      14.995  -4.327  -2.714  0.00  0.00    +0.000 HD
ATOM     16  H   UNL     1      15.993  -4.537  -1.291  0.00  0.00    +0.000 HD
BRANCH  14  17
ATOM     17  C   UNL     1      15.308  -6.385  -2.154  0.00  0.00    +0.000 C 
ATOM     18  H   UNL     1      14.333  -6.527  -2.630  0.00  0.00    +0.000 HD
ATOM     19  H   UNL     1      16.019  -7.084  -2.605  0.00  0.00    +0.000 HD
BRANCH  17  20
ATOM     20  O   UNL     1      15.188  -6.703  -0.774  0.00  0.00    +0.000 OA
ATOM     21  H   UNL     1      14.627  -6.024  -0.363  0.00  0.00    +0.000 HD
ENDBRANCH  17  20
ENDBRANCH  14  17
ENDBRANCH   1  14
TORSDOF 6
ENDMDL
MODEL 2
REMARK VINA RESULT:    -3.696     36.510     38.056
REMARK INTER + INTRA:          -4.820
REMARK INTER:                  -4.713
REMARK INTRA:                  -0.108
REMARK UNBOUND:                -0.043
REMARK  Name = 8103
REMARK  6 active torsions:
REMARK  status: ('A' for Active; 'I' for Inactive)
REMARK    1  A    between atoms: O_1  and  C_6
REMARK    2  A    between atoms: C_2  and  C_3
REMARK    3  A    between atoms: C_2  and  C_4
REMARK    4  A    between atoms: C_3  and  C_5
REMARK    5  A    between atoms: C_4  and  C_6
REMARK    6  A    between atoms: C_5  and  C_7
REMARK                            x       y       z     vdW  Elec       q    Type
REMARK                         _______ _______ _______ _____ _____    ______ ____
ROOT
ATOM      1  C   UNL     1      -5.821   4.560  25.665  0.00  0.00    +0.000 C 
ATOM      2  H   UNL     1      -6.242   3.549  25.603  0.00  0.00    +0.000 HD
ATOM      3  H   UNL     1      -6.630   5.255  25.411  0.00  0.00    +0.000 HD
ENDROOT
BRANCH   1   4
ATOM      4  C   UNL     1      -4.701   4.695  24.629  0.00  0.00    +0.000 C 
ATOM      5  H   UNL     1      -4.660   3.783  24.022  0.00  0.00    +0.000 HD
ATOM      6  H   UNL     1      -4.948   5.518  23.946  0.00  0.00    +0.000 HD
BRANCH   4   7
ATOM      7  C   UNL     1      -3.327   4.948  25.249  0.00  0.00    +0.000 C 
ATOM      8  H   UNL     1      -3.436   5.534  26.169  0.00  0.00    +0.000 HD
ATOM      9  H   UNL     1      -2.862   3.994  25.524  0.00  0.00    +0.000 HD
BRANCH   7  10
ATOM     10  C   UNL     1      -2.414   5.695  24.288  0.00  0.00    +0.000 C 
ATOM     11  H   UNL     1      -2.953   5.942  23.368  0.00  0.00    +0.000 HD
ATOM     12  H   UNL     1      -2.056   6.629  24.733  0.00  0.00    +0.000 HD
ATOM     13  H   UNL     1      -1.544   5.086  24.020  0.00  0.00    +0.000 HD
ENDBRANCH   7  10
ENDBRANCH   4   7
ENDBRANCH   1   4
BRANCH   1  14
ATOM     14  C   UNL     1      -5.360   4.829  27.096  0.00  0.00    +0.000 C 
ATOM     15  H   UNL     1      -4.554   5.574  27.097  0.00  0.00    +0.000 HD
ATOM     16  H   UNL     1      -4.928   3.919  27.533  0.00  0.00    +0.000 HD
BRANCH  14  17
ATOM     17  C   UNL     1      -6.507   5.313  27.971  0.00  0.00    +0.000 C 
ATOM     18  H   UNL     1      -7.136   4.482  28.307  0.00  0.00    +0.000 HD
ATOM     19  H   UNL     1      -6.133   5.843  28.853  0.00  0.00    +0.000 HD
BRANCH  17  20
ATOM     20  O   UNL     1      -7.310   6.213  27.220  0.00  0.00    +0.000 OA
ATOM     21  H   UNL     1      -7.013   7.114  27.427  0.00  0.00    +0.000 HD
ENDBRANCH  17  20
ENDBRANCH  14  17
ENDBRANCH   1  14
TORSDOF 6
ENDMDL
MODEL 3
REMARK VINA RESULT:    -3.591      2.080      3.820
REMARK INTER + INTRA:          -4.684
REMARK INTER:                  -4.565
REMARK INTRA:                  -0.119
REMARK UNBOUND:                -0.043
REMARK  Name = 8103
REMARK  6 active torsions:
REMARK  status: ('A' for Active; 'I' for Inactive)
REMARK    1  A    between atoms: O_1  and  C_6
REMARK    2  A    between atoms: C_2  and  C_3
REMARK    3  A    between atoms: C_2  and  C_4
REMARK    4  A    between atoms: C_3  and  C_5
REMARK    5  A    between atoms: C_4  and  C_6
REMARK    6  A    between atoms: C_5  and  C_7
REMARK                            x       y       z     vdW  Elec       q    Type
REMARK                         _______ _______ _______ _____ _____    ______ ____
ROOT
ATOM      1  C   UNL     1      16.834  -5.003  -3.279  0.00  0.00    +0.000 C 
ATOM      2  H   UNL     1      17.321  -4.021  -3.305  0.00  0.00    +0.000 HD
ATOM      3  H   UNL     1      16.298  -5.114  -4.230  0.00  0.00    +0.000 HD
ENDROOT
BRANCH   1   4
ATOM      4  C   UNL     1      15.822  -5.026  -2.130  0.00  0.00    +0.000 C 
ATOM      5  H   UNL     1      16.291  -4.611  -1.230  0.00  0.00    +0.000 HD
ATOM      6  H   UNL     1      14.983  -4.367  -2.383  0.00  0.00    +0.000 HD
BRANCH   4   7
ATOM      7  C   UNL     1      15.289  -6.425  -1.817  0.00  0.00    +0.000 C 
ATOM      8  H   UNL     1      14.229  -6.488  -2.089  0.00  0.00    +0.000 HD
ATOM      9  H   UNL     1      15.824  -7.169  -2.419  0.00  0.00    +0.000 HD
BRANCH   7  10
ATOM     10  C   UNL     1      15.446  -6.762  -0.342  0.00  0.00    +0.000 C 
ATOM     11  H   UNL     1      15.021  -5.965   0.275  0.00  0.00    +0.000 HD
ATOM     12  H   UNL     1      14.929  -7.695  -0.096  0.00  0.00    +0.000 HD
ATOM     13  H   UNL     1      16.502  -6.872  -0.075  0.00  0.00    +0.000 HD
ENDBRANCH   7  10
ENDBRANCH   4   7
ENDBRANCH   1   4
BRANCH   1  14
ATOM     14  C   UNL     1      17.899  -6.093  -3.174  0.00  0.00    +0.000 C 
ATOM     15  H   UNL     1      17.464  -7.002  -2.739  0.00  0.00    +0.000 HD
ATOM     16  H   UNL     1      18.694  -5.781  -2.485  0.00  0.00    +0.000 HD
BRANCH  14  17
ATOM     17  C   UNL     1      18.506  -6.415  -4.532  0.00  0.00    +0.000 C 
ATOM     18  H   UNL     1      18.904  -5.519  -5.018  0.00  0.00    +0.000 HD
ATOM     19  H   UNL     1      19.315  -7.147  -4.438  0.00  0.00    +0.000 HD
BRANCH  17  20
ATOM     20  O   UNL     1      17.499  -6.972  -5.366  0.00  0.00    +0.000 OA
ATOM     21  H   UNL     1      16.712  -7.123  -4.815  0.00  0.00    +0.000 HD
ENDBRANCH  17  20
ENDBRANCH  14  17
ENDBRANCH   1  14
TORSDOF 6
ENDMDL
MODEL 4
REMARK VINA RESULT:    -3.556      3.038      3.996
REMARK INTER + INTRA:          -4.639
REMARK INTER:                  -4.527
REMARK INTRA:                  -0.111
REMARK UNBOUND:                -0.043
REMARK  Name = 8103
REMARK  6 active torsions:
REMARK  status: ('A' for Active; 'I' for Inactive)
REMARK    1  A    between atoms: O_1  and  C_6
REMARK    2  A    between atoms: C_2  and  C_3
REMARK    3  A    between atoms: C_2  and  C_4
REMARK    4  A    between atoms: C_3  and  C_5
REMARK    5  A    between atoms: C_4  and  C_6
REMARK    6  A    between atoms: C_5  and  C_7
REMARK                            x       y       z     vdW  Elec       q    Type
REMARK                         _______ _______ _______ _____ _____    ______ ____
ROOT
ATOM      1  C   UNL     1      16.807  -4.400  -1.359  0.00  0.00    +0.000 C 
ATOM      2  H   UNL     1      17.152  -5.271  -0.788  0.00  0.00    +0.000 HD
ATOM      3  H   UNL     1      16.209  -3.790  -0.671  0.00  0.00    +0.000 HD
ENDROOT
BRANCH   1   4
ATOM      4  C   UNL     1      15.914  -4.881  -2.506  0.00  0.00    +0.000 C 
ATOM      5  H   UNL     1      15.077  -4.184  -2.628  0.00  0.00    +0.000 HD
ATOM      6  H   UNL     1      16.490  -4.851  -3.440  0.00  0.00    +0.000 HD
BRANCH   4   7
ATOM      7  C   UNL     1      15.364  -6.293  -2.298  0.00  0.00    +0.000 C 
ATOM      8  H   UNL     1      14.337  -6.352  -2.677  0.00  0.00    +0.000 HD
ATOM      9  H   UNL     1      15.963  -7.013  -2.867  0.00  0.00    +0.000 HD
BRANCH   7  10
ATOM     10  C   UNL     1      15.374  -6.680  -0.826  0.00  0.00    +0.000 C 
ATOM     11  H   UNL     1      14.755  -5.986  -0.248  0.00  0.00    +0.000 HD
ATOM     12  H   UNL     1      14.976  -7.690  -0.684  0.00  0.00    +0.000 HD
ATOM     13  H   UNL     1      16.390  -6.649  -0.419  0.00  0.00    +0.000 HD
ENDBRANCH   7  10
ENDBRANCH   4   7
ENDBRANCH   1   4
BRANCH   1  14
ATOM     14  C   UNL     1      18.014  -3.591  -1.827  0.00  0.00    +0.000 C 
ATOM     15  H   UNL     1      18.713  -3.443  -0.994  0.00  0.00    +0.000 HD
ATOM     16  H   UNL     1      17.701  -2.586  -2.137  0.00  0.00    +0.000 HD
BRANCH  14  17
ATOM     17  C   UNL     1      18.731  -4.274  -2.983  0.00  0.00    +0.000 C 
ATOM     18  H   UNL     1      19.339  -5.117  -2.639  0.00  0.00    +0.000 HD
ATOM     19  H   UNL     1      18.016  -4.643  -3.726  0.00  0.00    +0.000 HD
BRANCH  17  20
ATOM     20  O   UNL     1      19.583  -3.331  -3.618  0.00  0.00    +0.000 OA
ATOM     21  H   UNL     1      20.363  -3.211  -3.051  0.00  0.00    +0.000 HD
ENDBRANCH  17  20
ENDBRANCH  14  17
ENDBRANCH   1  14
TORSDOF 6
ENDMDL
MODEL 5
REMARK VINA RESULT:    -3.482     10.974     12.159
REMARK INTER + INTRA:          -4.543
REMARK INTER:                  -4.470
REMARK INTRA:                  -0.073
REMARK UNBOUND:                -0.043
REMARK  Name = 8103
REMARK  6 active torsions:
REMARK  status: ('A' for Active; 'I' for Inactive)
REMARK    1  A    between atoms: O_1  and  C_6
REMARK    2  A    between atoms: C_2  and  C_3
REMARK    3  A    between atoms: C_2  and  C_4
REMARK    4  A    between atoms: C_3  and  C_5
REMARK    5  A    between atoms: C_4  and  C_6
REMARK    6  A    between atoms: C_5  and  C_7
REMARK                            x       y       z     vdW  Elec       q    Type
REMARK                         _______ _______ _______ _____ _____    ______ ____
ROOT
ATOM      1  C   UNL     1      14.721   5.472  -1.335  0.00  0.00    +0.000 C 
ATOM      2  H   UNL     1      14.490   6.369  -0.747  0.00  0.00    +0.000 HD
ATOM      3  H   UNL     1      13.815   4.854  -1.338  0.00  0.00    +0.000 HD
ENDROOT
BRANCH   1   4
ATOM      4  C   UNL     1      15.850   4.702  -0.643  0.00  0.00    +0.000 C 
ATOM      5  H   UNL     1      16.696   4.606  -1.334  0.00  0.00    +0.000 HD
ATOM      6  H   UNL     1      16.205   5.288   0.213  0.00  0.00    +0.000 HD
BRANCH   4   7
ATOM      7  C   UNL     1      15.432   3.311  -0.165  0.00  0.00    +0.000 C 
ATOM      8  H   UNL     1      15.498   2.597  -0.995  0.00  0.00    +0.000 HD
ATOM      9  H   UNL     1      16.118   2.965   0.616  0.00  0.00    +0.000 HD
BRANCH   7  10
ATOM     10  C   UNL     1      14.010   3.314   0.376  0.00  0.00    +0.000 C 
ATOM     11  H   UNL     1      13.985   3.771   1.370  0.00  0.00    +0.000 HD
ATOM     12  H   UNL     1      13.343   3.886  -0.277  0.00  0.00    +0.000 HD
ATOM     13  H   UNL     1      13.620   2.295   0.460  0.00  0.00    +0.000 HD
ENDBRANCH   7  10
ENDBRANCH   4   7
ENDBRANCH   1   4
BRANCH   1  14
ATOM     14  C   UNL     1      15.054   5.879  -2.769  0.00  0.00    +0.000 C 
ATOM     15  H   UNL     1      14.480   5.268  -3.476  0.00  0.00    +0.000 HD
ATOM     16  H   UNL     1      16.111   5.676  -2.986  0.00  0.00    +0.000 HD
BRANCH  14  17
ATOM     17  C   UNL     1      14.763   7.353  -3.013  0.00  0.00    +0.000 C 
ATOM     18  H   UNL     1      14.222   7.802  -2.174  0.00  0.00    +0.000 HD
ATOM     19  H   UNL     1      15.690   7.917  -3.168  0.00  0.00    +0.000 HD
BRANCH  17  20
ATOM     20  O   UNL     1      13.968   7.478  -4.184  0.00  0.00    +0.000 OA
ATOM     21  H   UNL     1      14.490   7.142  -4.931  0.00  0.00    +0.000 HD
ENDBRANCH  17  20
ENDBRANCH  14  17
ENDBRANCH   1  14
TORSDOF 6
ENDMDL
MODEL 6
REMARK VINA RESULT:    -3.464      1.928      2.401
REMARK INTER + INTRA:          -4.520
REMARK INTER:                  -4.374
REMARK INTRA:                  -0.146
REMARK UNBOUND:                -0.043
REMARK  Name = 8103
REMARK  6 active torsions:
REMARK  status: ('A' for Active; 'I' for Inactive)
REMARK    1  A    between atoms: O_1  and  C_6
REMARK    2  A    between atoms: C_2  and  C_3
REMARK    3  A    between atoms: C_2  and  C_4
REMARK    4  A    between atoms: C_3  and  C_5
REMARK    5  A    between atoms: C_4  and  C_6
REMARK    6  A    between atoms: C_5  and  C_7
REMARK                            x       y       z     vdW  Elec       q    Type
REMARK                         _______ _______ _______ _____ _____    ______ ____
ROOT
ATOM      1  C   UNL     1      16.460  -4.647  -2.285  0.00  0.00    +0.000 C 
ATOM      2  H   UNL     1      16.218  -4.924  -1.252  0.00  0.00    +0.000 HD
ATOM      3  H   UNL     1      15.643  -4.007  -2.640  0.00  0.00    +0.000 HD
ENDROOT
BRANCH   1   4
ATOM      4  C   UNL     1      16.509  -5.916  -3.141  0.00  0.00    +0.000 C 
ATOM      5  H   UNL     1      16.373  -6.791  -2.494  0.00  0.00    +0.000 HD
ATOM      6  H   UNL     1      15.663  -5.905  -3.840  0.00  0.00    +0.000 HD
BRANCH   4   7
ATOM      7  C   UNL     1      17.811  -6.070  -3.927  0.00  0.00    +0.000 C 
ATOM      8  H   UNL     1      18.247  -5.082  -4.120  0.00  0.00    +0.000 HD
ATOM      9  H   UNL     1      18.539  -6.636  -3.334  0.00  0.00    +0.000 HD
BRANCH   7  10
ATOM     10  C   UNL     1      17.579  -6.779  -5.252  0.00  0.00    +0.000 C 
ATOM     11  H   UNL     1      16.516  -7.007  -5.379  0.00  0.00    +0.000 HD
ATOM     12  H   UNL     1      17.894  -6.153  -6.093  0.00  0.00    +0.000 HD
ATOM     13  H   UNL     1      18.137  -7.720  -5.297  0.00  0.00    +0.000 HD
ENDBRANCH   7  10
ENDBRANCH   4   7
ENDBRANCH   1   4
BRANCH   1  14
ATOM     14  C   UNL     1      17.763  -3.852  -2.304  0.00  0.00    +0.000 C 
ATOM     15  H   UNL     1      17.626  -2.918  -2.863  0.00  0.00    +0.000 HD
ATOM     16  H   UNL     1      18.542  -4.410  -2.840  0.00  0.00    +0.000 HD
BRANCH  14  17
ATOM     17  C   UNL     1      18.247  -3.539  -0.895  0.00  0.00    +0.000 C 
ATOM     18  H   UNL     1      19.319  -3.318  -0.876  0.00  0.00    +0.000 HD
ATOM     19  H   UNL     1      17.709  -2.682  -0.475  0.00  0.00    +0.000 HD
BRANCH  17  20
ATOM     20  O   UNL     1      18.003  -4.665  -0.064  0.00  0.00    +0.000 OA
ATOM     21  H   UNL     1      17.478  -4.362   0.695  0.00  0.00    +0.000 HD
ENDBRANCH  17  20
ENDBRANCH  14  17
ENDBRANCH   1  14
TORSDOF 6
ENDMDL
MODEL 7
REMARK VINA RESULT:    -3.433      2.613      4.004
REMARK INTER + INTRA:          -4.480
REMARK INTER:                  -4.280
REMARK INTRA:                  -0.200
REMARK UNBOUND:                -0.043
REMARK  Name = 8103
REMARK  6 active torsions:
REMARK  status: ('A' for Active; 'I' for Inactive)
REMARK    1  A    between atoms: O_1  and  C_6
REMARK    2  A    between atoms: C_2  and  C_3
REMARK    3  A    between atoms: C_2  and  C_4
REMARK    4  A    between atoms: C_3  and  C_5
REMARK    5  A    between atoms: C_4  and  C_6
REMARK    6  A    between atoms: C_5  and  C_7
REMARK                            x       y       z     vdW  Elec       q    Type
REMARK                         _______ _______ _______ _____ _____    ______ ____
ROOT
ATOM      1  C   UNL     1      18.666  -6.412  -4.400  0.00  0.00    +0.000 C 
ATOM      2  H   UNL     1      18.903  -6.107  -5.427  0.00  0.00    +0.000 HD
ATOM      3  H   UNL     1      18.810  -7.498  -4.352  0.00  0.00    +0.000 HD
ENDROOT
BRANCH   1   4
ATOM      4  C   UNL     1      17.198  -6.088  -4.111  0.00  0.00    +0.000 C 
ATOM      5  H   UNL     1      16.933  -5.146  -4.607  0.00  0.00    +0.000 HD
ATOM      6  H   UNL     1      16.569  -6.869  -4.557  0.00  0.00    +0.000 HD
BRANCH   4   7
ATOM      7  C   UNL     1      16.882  -5.976  -2.619  0.00  0.00    +0.000 C 
ATOM      8  H   UNL     1      16.483  -6.929  -2.251  0.00  0.00    +0.000 HD
ATOM      9  H   UNL     1      17.802  -5.771  -2.059  0.00  0.00    +0.000 HD
BRANCH   7  10
ATOM     10  C   UNL     1      15.869  -4.874  -2.348  0.00  0.00    +0.000 C 
ATOM     11  H   UNL     1      14.905  -5.126  -2.802  0.00  0.00    +0.000 HD
ATOM     12  H   UNL     1      15.713  -4.741  -1.273  0.00  0.00    +0.000 HD
ATOM     13  H   UNL     1      16.204  -3.921  -2.768  0.00  0.00    +0.000 HD
ENDBRANCH   7  10
ENDBRANCH   4   7
ENDBRANCH   1   4
BRANCH   1  14
ATOM     14  C   UNL     1      19.639  -5.735  -3.436  0.00  0.00    +0.000 C 
ATOM     15  H   UNL     1      20.506  -6.384  -3.260  0.00  0.00    +0.000 HD
ATOM     16  H   UNL     1      19.165  -5.594  -2.455  0.00  0.00    +0.000 HD
BRANCH  14  17
ATOM     17  C   UNL     1      20.106  -4.388  -3.968  0.00  0.00    +0.000 C 
ATOM     18  H   UNL     1      21.165  -4.214  -3.750  0.00  0.00    +0.000 HD
ATOM     19  H   UNL     1      19.959  -4.320  -5.051  0.00  0.00    +0.000 HD
BRANCH  17  20
ATOM     20  O   UNL     1      19.343  -3.360  -3.352  0.00  0.00    +0.000 OA
ATOM     21  H   UNL     1      19.817  -2.522  -3.484  0.00  0.00    +0.000 HD
ENDBRANCH  17  20
ENDBRANCH  14  17
ENDBRANCH   1  14
TORSDOF 6
ENDMDL
MODEL 8
REMARK VINA RESULT:    -3.397     25.460     26.229
REMARK INTER + INTRA:          -4.433
REMARK INTER:                  -4.348
REMARK INTRA:                  -0.085
REMARK UNBOUND:                -0.043
REMARK  Name = 8103
REMARK  6 active torsions:
REMARK  status: ('A' for Active; 'I' for Inactive)
REMARK    1  A    between atoms: O_1  and  C_6
REMARK    2  A    between atoms: C_2  and  C_3
REMARK    3  A    between atoms: C_2  and  C_4
REMARK    4  A    between atoms: C_3  and  C_5
REMARK    5  A    between atoms: C_4  and  C_6
REMARK    6  A    between atoms: C_5  and  C_7
REMARK                            x       y       z     vdW  Elec       q    Type
REMARK                         _______ _______ _______ _____ _____    ______ ____
ROOT
ATOM      1  C   UNL     1      12.320  18.749 -11.507  0.00  0.00    +0.000 C 
ATOM      2  H   UNL     1      11.567  19.083 -12.230  0.00  0.00    +0.000 HD
ATOM      3  H   UNL     1      13.255  19.261 -11.765  0.00  0.00    +0.000 HD
ENDROOT
BRANCH   1   4
ATOM      4  C   UNL     1      12.520  17.238 -11.659  0.00  0.00    +0.000 C 
ATOM      5  H   UNL     1      12.316  16.749 -10.699  0.00  0.00    +0.000 HD
ATOM      6  H   UNL     1      11.780  16.854 -12.374  0.00  0.00    +0.000 HD
BRANCH   4   7
ATOM      7  C   UNL     1      13.923  16.854 -12.130  0.00  0.00    +0.000 C 
ATOM      8  H   UNL     1      14.001  15.764 -12.218  0.00  0.00    +0.000 HD
ATOM      9  H   UNL     1      14.109  17.275 -13.125  0.00  0.00    +0.000 HD
BRANCH   7  10
ATOM     10  C   UNL     1      14.987  17.353 -11.164  0.00  0.00    +0.000 C 
ATOM     11  H   UNL     1      15.923  17.544 -11.698  0.00  0.00    +0.000 HD
ATOM     12  H   UNL     1      14.674  18.286 -10.683  0.00  0.00    +0.000 HD
ATOM     13  H   UNL     1      15.186  16.613 -10.383  0.00  0.00    +0.000 HD
ENDBRANCH   7  10
ENDBRANCH   4   7
ENDBRANCH   1   4
BRANCH   1  14
ATOM     14  C   UNL     1      11.892  19.166 -10.101  0.00  0.00    +0.000 C 
ATOM     15  H   UNL     1      12.766  19.491  -9.523  0.00  0.00    +0.000 HD
ATOM     16  H   UNL     1      11.477  18.306  -9.560  0.00  0.00    +0.000 HD
BRANCH  14  17
ATOM     17  C   UNL     1      10.859  20.283 -10.140  0.00  0.00    +0.000 C 
ATOM     18  H   UNL     1      11.304  21.253  -9.898  0.00  0.00    +0.000 HD
ATOM     19  H   UNL     1      10.392  20.353 -11.129  0.00  0.00    +0.000 HD
BRANCH  17  20
ATOM     20  O   UNL     1       9.841  20.002  -9.189  0.00  0.00    +0.000 OA
ATOM     21  H   UNL     1       8.992  19.993  -9.662  0.00  0.00    +0.000 HD
ENDBRANCH  17  20
ENDBRANCH  14  17
ENDBRANCH   1  14
TORSDOF 6
ENDMDL
MODEL 9
REMARK VINA RESULT:    -3.376     20.204     20.969
REMARK INTER + INTRA:          -4.406
REMARK INTER:                  -4.363
REMARK INTRA:                  -0.043
REMARK UNBOUND:                -0.043
REMARK  Name = 8103
REMARK  6 active torsions:
REMARK  status: ('A' for Active; 'I' for Inactive)
REMARK    1  A    between atoms: O_1  and  C_6
REMARK    2  A    between atoms: C_2  and  C_3
REMARK    3  A    between atoms: C_2  and  C_4
REMARK    4  A    between atoms: C_3  and  C_5
REMARK    5  A    between atoms: C_4  and  C_6
REMARK    6  A    between atoms: C_5  and  C_7
REMARK                            x       y       z     vdW  Elec       q    Type
REMARK                         _______ _______ _______ _____ _____    ______ ____
ROOT
ATOM      1  C   UNL     1       9.095   4.479 -18.390  0.00  0.00    +0.000 C 
ATOM      2  H   UNL     1       9.371   3.576 -17.832  0.00  0.00    +0.000 HD
ATOM      3  H   UNL     1       8.996   5.286 -17.654  0.00  0.00    +0.000 HD
ENDROOT
BRANCH   1   4
ATOM      4  C   UNL     1       7.740   4.250 -19.066  0.00  0.00    +0.000 C 
ATOM      5  H   UNL     1       7.529   5.088 -19.741  0.00  0.00    +0.000 HD
ATOM      6  H   UNL     1       7.803   3.349 -19.689  0.00  0.00    +0.000 HD
BRANCH   4   7
ATOM      7  C   UNL     1       6.584   4.100 -18.076  0.00  0.00    +0.000 C 
ATOM      8  H   UNL     1       5.926   3.284 -18.394  0.00  0.00    +0.000 HD
ATOM      9  H   UNL     1       6.975   3.837 -17.086  0.00  0.00    +0.000 HD
BRANCH   7  10
ATOM     10  C   UNL     1       5.772   5.383 -17.973  0.00  0.00    +0.000 C 
ATOM     11  H   UNL     1       6.419   6.253 -18.120  0.00  0.00    +0.000 HD
ATOM     12  H   UNL     1       4.987   5.412 -18.735  0.00  0.00    +0.000 HD
ATOM     13  H   UNL     1       5.301   5.471 -16.989  0.00  0.00    +0.000 HD
ENDBRANCH   7  10
ENDBRANCH   4   7
ENDBRANCH   1   4
BRANCH   1  14
ATOM     14  C   UNL     1      10.212   4.829 -19.370  0.00  0.00    +0.000 C 
ATOM     15  H   UNL     1      10.008   5.798 -19.842  0.00  0.00    +0.000 HD
ATOM     16  H   UNL     1      10.242   4.098 -20.188  0.00  0.00    +0.000 HD
BRANCH  14  17
ATOM     17  C   UNL     1      11.568   4.870 -18.681  0.00  0.00    +0.000 C 
ATOM     18  H   UNL     1      11.490   4.612 -17.620  0.00  0.00    +0.000 HD
ATOM     19  H   UNL     1      12.272   4.177 -19.155  0.00  0.00    +0.000 HD
BRANCH  17  20
ATOM     20  O   UNL     1      12.100   6.183 -18.789  0.00  0.00    +0.000 OA
ATOM     21  H   UNL     1      11.453   6.724 -19.271  0.00  0.00    +0.000 HD
ENDBRANCH  17  20
ENDBRANCH  14  17
ENDBRANCH   1  14
TORSDOF 6
ENDMDL
MODEL 10
REMARK VINA RESULT:    -3.347     11.042     12.144
REMARK INTER + INTRA:          -4.369
REMARK INTER:                  -4.249
REMARK INTRA:                  -0.119
REMARK UNBOUND:                -0.043
REMARK  Name = 8103
REMARK  6 active torsions:
REMARK  status: ('A' for Active; 'I' for Inactive)
REMARK    1  A    between atoms: O_1  and  C_6
REMARK    2  A    between atoms: C_2  and  C_3
REMARK    3  A    between atoms: C_2  and  C_4
REMARK    4  A    between atoms: C_3  and  C_5
REMARK    5  A    between atoms: C_4  and  C_6
REMARK    6  A    between atoms: C_5  and  C_7
REMARK                            x       y       z     vdW  Elec       q    Type
REMARK                         _______ _______ _______ _____ _____    ______ ____
ROOT
ATOM      1  C   UNL     1      16.147   6.172  -1.363  0.00  0.00    +0.000 C 
ATOM      2  H   UNL     1      15.817   7.072  -0.830  0.00  0.00    +0.000 HD
ATOM      3  H   UNL     1      17.174   6.363  -1.699  0.00  0.00    +0.000 HD
ENDROOT
BRANCH   1   4
ATOM      4  C   UNL     1      15.251   5.962  -2.588  0.00  0.00    +0.000 C 
ATOM      5  H   UNL     1      15.807   5.402  -3.349  0.00  0.00    +0.000 HD
ATOM      6  H   UNL     1      14.396   5.339  -2.298  0.00  0.00    +0.000 HD
BRANCH   4   7
ATOM      7  C   UNL     1      14.742   7.268  -3.198  0.00  0.00    +0.000 C 
ATOM      8  H   UNL     1      14.578   7.137  -4.274  0.00  0.00    +0.000 HD
ATOM      9  H   UNL     1      13.776   7.534  -2.752  0.00  0.00    +0.000 HD
BRANCH   7  10
ATOM     10  C   UNL     1      15.729   8.405  -2.980  0.00  0.00    +0.000 C 
ATOM     11  H   UNL     1      15.218   9.370  -3.055  0.00  0.00    +0.000 HD
ATOM     12  H   UNL     1      16.189   8.340  -1.989  0.00  0.00    +0.000 HD
ATOM     13  H   UNL     1      16.525   8.382  -3.731  0.00  0.00    +0.000 HD
ENDBRANCH   7  10
ENDBRANCH   4   7
ENDBRANCH   1   4
BRANCH   1  14
ATOM     14  C   UNL     1      16.148   4.986  -0.401  0.00  0.00    +0.000 C 
ATOM     15  H   UNL     1      16.295   5.338   0.628  0.00  0.00    +0.000 HD
ATOM     16  H   UNL     1      16.996   4.323  -0.615  0.00  0.00    +0.000 HD
BRANCH  14  17
ATOM     17  C   UNL     1      14.852   4.193  -0.490  0.00  0.00    +0.000 C 
ATOM     18  H   UNL     1      14.230   4.333   0.399  0.00  0.00    +0.000 HD
ATOM     19  H   UNL     1      14.270   4.488  -1.370  0.00  0.00    +0.000 HD
BRANCH  17  20
ATOM     20  O   UNL     1      15.165   2.812  -0.610  0.00  0.00    +0.000 OA
ATOM     21  H   UNL     1      14.334   2.335  -0.771  0.00  0.00    +0.000 HD
ENDBRANCH  17  20
ENDBRANCH  14  17
ENDBRANCH   1  14
TORSDOF 6
ENDMDL
