MODEL 1
REMARK VINA RESULT:    -4.845      0.000      0.000
REMARK INTER + INTRA:          -8.488
REMARK INTER:                  -7.217
REMARK INTRA:                  -1.272
REMARK UNBOUND:                -0.670
REMARK  Name = 8192
REMARK  11 active torsions:
REMARK  status: ('A' for Active; 'I' for Inactive)
REMARK    1  A    between atoms: C_2  and  C_3
REMARK    2  A    between atoms: C_2  and  C_4
REMARK    3  A    between atoms: C_3  and  C_5
REMARK    4  A    between atoms: C_4  and  C_6
REMARK    5  A    between atoms: C_5  and  C_7
REMARK    6  A    between atoms: C_6  and  C_8
REMARK    7  A    between atoms: C_7  and  C_9
REMARK    8  A    between atoms: C_8  and  C_10
REMARK    9  A    between atoms: C_9  and  C_11
REMARK   10  A    between atoms: C_10  and  C_12
REMARK   11  A    between atoms: C_11  and  C_13
REMARK                            x       y       z     vdW  Elec       q    Type
REMARK                         _______ _______ _______ _____ _____    ______ ____
ROOT
ATOM      1  C   UNL     1      -7.830 -13.515   6.262  0.00  0.00    +0.000 C 
ATOM      2  H   UNL     1      -8.438 -12.875   6.911  0.00  0.00    +0.000 HD
ATOM      3  H   UNL     1      -6.805 -13.493   6.652  0.00  0.00    +0.000 HD
ENDROOT
BRANCH   1   4
ATOM      4  C   UNL     1      -7.849 -12.965   4.832  0.00  0.00    +0.000 C 
ATOM      5  H   UNL     1      -8.357 -13.676   4.170  0.00  0.00    +0.000 HD
ATOM      6  H   UNL     1      -8.420 -12.030   4.802  0.00  0.00    +0.000 HD
BRANCH   4   7
ATOM      7  C   UNL     1      -6.430 -12.710   4.318  0.00  0.00    +0.000 C 
ATOM      8  H   UNL     1      -5.711 -12.973   5.105  0.00  0.00    +0.000 HD
ATOM      9  H   UNL     1      -6.301 -11.639   4.118  0.00  0.00    +0.000 HD
BRANCH   7  10
ATOM     10  C   UNL     1      -6.091 -13.500   3.051  0.00  0.00    +0.000 C 
ATOM     11  H   UNL     1      -5.544 -12.849   2.359  0.00  0.00    +0.000 HD
ATOM     12  H   UNL     1      -5.413 -14.322   3.313  0.00  0.00    +0.000 HD
BRANCH  10  13
ATOM     13  C   UNL     1      -7.322 -14.064   2.339  0.00  0.00    +0.000 C 
ATOM     14  H   UNL     1      -8.126 -13.318   2.349  0.00  0.00    +0.000 HD
ATOM     15  H   UNL     1      -7.689 -14.941   2.885  0.00  0.00    +0.000 HD
BRANCH  13  16
ATOM     16  C   UNL     1      -6.998 -14.453   0.896  0.00  0.00    +0.000 C 
ATOM     17  H   UNL     1      -5.979 -14.853   0.839  0.00  0.00    +0.000 HD
ATOM     18  H   UNL     1      -7.678 -15.246   0.562  0.00  0.00    +0.000 HD
BRANCH  16  19
ATOM     19  C   UNL     1      -7.122 -13.264  -0.044  0.00  0.00    +0.000 C 
ATOM     20  H   UNL     1      -6.553 -13.431  -0.964  0.00  0.00    +0.000 HD
ATOM     21  H   UNL     1      -8.169 -13.087  -0.314  0.00  0.00    +0.000 HD
ATOM     22  H   UNL     1      -6.738 -12.359   0.436  0.00  0.00    +0.000 HD
ENDBRANCH  16  19
ENDBRANCH  13  16
ENDBRANCH  10  13
ENDBRANCH   7  10
ENDBRANCH   4   7
ENDBRANCH   1   4
BRANCH   1  23
ATOM     23  C   UNL     1      -8.367 -14.946   6.310  0.00  0.00    +0.000 C 
ATOM     24  H   UNL     1      -9.145 -15.019   7.081  0.00  0.00    +0.000 HD
ATOM     25  H   UNL     1      -8.848 -15.185   5.353  0.00  0.00    +0.000 HD
BRANCH  23  26
ATOM     26  C   UNL     1      -7.288 -15.995   6.597  0.00  0.00    +0.000 C 
ATOM     27  H   UNL     1      -6.586 -15.579   7.333  0.00  0.00    +0.000 HD
ATOM     28  H   UNL     1      -7.760 -16.861   7.077  0.00  0.00    +0.000 HD
BRANCH  26  29
ATOM     29  C   UNL     1      -6.488 -16.480   5.385  0.00  0.00    +0.000 C 
ATOM     30  H   UNL     1      -6.902 -16.022   4.479  0.00  0.00    +0.000 HD
ATOM     31  H   UNL     1      -6.623 -17.563   5.282  0.00  0.00    +0.000 HD
BRANCH  29  32
ATOM     32  C   UNL     1      -4.993 -16.161   5.473  0.00  0.00    +0.000 C 
ATOM     33  H   UNL     1      -4.823 -15.126   5.152  0.00  0.00    +0.000 HD
ATOM     34  H   UNL     1      -4.666 -16.234   6.517  0.00  0.00    +0.000 HD
BRANCH  32  36
ATOM     35 CL   UNL     1      -3.951 -16.435   2.980  0.00  0.00    +0.000 Cl
ATOM     36  C   UNL     1      -4.179 -17.115   4.607  0.00  0.00    +0.000 C 
ATOM     37  H   UNL     1      -4.686 -18.078   4.496  0.00  0.00    +0.000 HD
ATOM     38  H   UNL     1      -3.188 -17.291   5.036  0.00  0.00    +0.000 HD
ENDBRANCH  32  36
ENDBRANCH  29  32
ENDBRANCH  26  29
ENDBRANCH  23  26
ENDBRANCH   1  23
TORSDOF 11
ENDMDL
MODEL 2
REMARK VINA RESULT:    -4.657     14.404     16.237
REMARK INTER + INTRA:          -8.186
REMARK INTER:                  -7.173
REMARK INTRA:                  -1.013
REMARK UNBOUND:                -0.670
REMARK  Name = 8192
REMARK  11 active torsions:
REMARK  status: ('A' for Active; 'I' for Inactive)
REMARK    1  A    between atoms: C_2  and  C_3
REMARK    2  A    between atoms: C_2  and  C_4
REMARK    3  A    between atoms: C_3  and  C_5
REMARK    4  A    between atoms: C_4  and  C_6
REMARK    5  A    between atoms: C_5  and  C_7
REMARK    6  A    between atoms: C_6  and  C_8
REMARK    7  A    between atoms: C_7  and  C_9
REMARK    8  A    between atoms: C_8  and  C_10
REMARK    9  A    between atoms: C_9  and  C_11
REMARK   10  A    between atoms: C_10  and  C_12
REMARK   11  A    between atoms: C_11  and  C_13
REMARK                            x       y       z     vdW  Elec       q    Type
REMARK                         _______ _______ _______ _____ _____    ______ ____
ROOT
ATOM      1  C   UNL     1     -16.063  -6.238  -4.271  0.00  0.00    +0.000 C 
ATOM      2  H   UNL     1     -16.498  -5.525  -4.980  0.00  0.00    +0.000 HD
ATOM      3  H   UNL     1     -16.704  -7.128  -4.271  0.00  0.00    +0.000 HD
ENDROOT
BRANCH   1   4
ATOM      4  C   UNL     1     -16.038  -5.621  -2.869  0.00  0.00    +0.000 C 
ATOM      5  H   UNL     1     -15.087  -5.860  -2.379  0.00  0.00    +0.000 HD
ATOM      6  H   UNL     1     -16.097  -4.529  -2.945  0.00  0.00    +0.000 HD
BRANCH   4   7
ATOM      7  C   UNL     1     -17.199  -6.135  -2.017  0.00  0.00    +0.000 C 
ATOM      8  H   UNL     1     -17.704  -5.282  -1.546  0.00  0.00    +0.000 HD
ATOM      9  H   UNL     1     -16.807  -6.759  -1.204  0.00  0.00    +0.000 HD
BRANCH   7  10
ATOM     10  C   UNL     1     -18.227  -6.943  -2.814  0.00  0.00    +0.000 C 
ATOM     11  H   UNL     1     -17.888  -7.028  -3.854  0.00  0.00    +0.000 HD
ATOM     12  H   UNL     1     -18.271  -7.962  -2.412  0.00  0.00    +0.000 HD
BRANCH  10  13
ATOM     13  C   UNL     1     -19.629  -6.329  -2.796  0.00  0.00    +0.000 C 
ATOM     14  H   UNL     1     -20.353  -7.075  -2.445  0.00  0.00    +0.000 HD
ATOM     15  H   UNL     1     -19.919  -6.053  -3.817  0.00  0.00    +0.000 HD
BRANCH  13  16
ATOM     16  C   UNL     1     -19.682  -5.096  -1.894  0.00  0.00    +0.000 C 
ATOM     17  H   UNL     1     -18.797  -5.068  -1.248  0.00  0.00    +0.000 HD
ATOM     18  H   UNL     1     -19.666  -4.185  -2.505  0.00  0.00    +0.000 HD
BRANCH  16  19
ATOM     19  C   UNL     1     -20.933  -5.089  -1.029  0.00  0.00    +0.000 C 
ATOM     20  H   UNL     1     -21.430  -6.065  -1.051  0.00  0.00    +0.000 HD
ATOM     21  H   UNL     1     -20.688  -4.851   0.012  0.00  0.00    +0.000 HD
ATOM     22  H   UNL     1     -21.641  -4.338  -1.392  0.00  0.00    +0.000 HD
ENDBRANCH  16  19
ENDBRANCH  13  16
ENDBRANCH  10  13
ENDBRANCH   7  10
ENDBRANCH   4   7
ENDBRANCH   1   4
BRANCH   1  23
ATOM     23  C   UNL     1     -14.655  -6.620  -4.733  0.00  0.00    +0.000 C 
ATOM     24  H   UNL     1     -14.541  -7.711  -4.692  0.00  0.00    +0.000 HD
ATOM     25  H   UNL     1     -14.527  -6.328  -5.782  0.00  0.00    +0.000 HD
BRANCH  23  26
ATOM     26  C   UNL     1     -13.543  -5.975  -3.899  0.00  0.00    +0.000 C 
ATOM     27  H   UNL     1     -14.005  -5.309  -3.158  0.00  0.00    +0.000 HD
ATOM     28  H   UNL     1     -13.031  -6.762  -3.329  0.00  0.00    +0.000 HD
BRANCH  26  29
ATOM     29  C   UNL     1     -12.498  -5.176  -4.682  0.00  0.00    +0.000 C 
ATOM     30  H   UNL     1     -11.815  -5.876  -5.180  0.00  0.00    +0.000 HD
ATOM     31  H   UNL     1     -11.894  -4.594  -3.976  0.00  0.00    +0.000 HD
BRANCH  29  32
ATOM     32  C   UNL     1     -13.104  -4.236  -5.727  0.00  0.00    +0.000 C 
ATOM     33  H   UNL     1     -12.396  -4.106  -6.554  0.00  0.00    +0.000 HD
ATOM     34  H   UNL     1     -14.010  -4.692  -6.144  0.00  0.00    +0.000 HD
BRANCH  32  36
ATOM     35 CL   UNL     1     -15.198  -2.716  -4.900  0.00  0.00    +0.000 Cl
ATOM     36  C   UNL     1     -13.441  -2.882  -5.112  0.00  0.00    +0.000 C 
ATOM     37  H   UNL     1     -13.105  -2.063  -5.755  0.00  0.00    +0.000 HD
ATOM     38  H   UNL     1     -12.974  -2.767  -4.129  0.00  0.00    +0.000 HD
ENDBRANCH  32  36
ENDBRANCH  29  32
ENDBRANCH  26  29
ENDBRANCH  23  26
ENDBRANCH   1  23
TORSDOF 11
ENDMDL
MODEL 3
REMARK VINA RESULT:    -4.622      3.821      5.495
REMARK INTER + INTRA:          -8.130
REMARK INTER:                  -7.286
REMARK INTRA:                  -0.844
REMARK UNBOUND:                -0.670
REMARK  Name = 8192
REMARK  11 active torsions:
REMARK  status: ('A' for Active; 'I' for Inactive)
REMARK    1  A    between atoms: C_2  and  C_3
REMARK    2  A    between atoms: C_2  and  C_4
REMARK    3  A    between atoms: C_3  and  C_5
REMARK    4  A    between atoms: C_4  and  C_6
REMARK    5  A    between atoms: C_5  and  C_7
REMARK    6  A    between atoms: C_6  and  C_8
REMARK    7  A    between atoms: C_7  and  C_9
REMARK    8  A    between atoms: C_8  and  C_10
REMARK    9  A    between atoms: C_9  and  C_11
REMARK   10  A    between atoms: C_10  and  C_12
REMARK   11  A    between atoms: C_11  and  C_13
REMARK                            x       y       z     vdW  Elec       q    Type
REMARK                         _______ _______ _______ _____ _____    ______ ____
ROOT
ATOM      1  C   UNL     1      -3.849 -15.071   2.718  0.00  0.00    +0.000 C 
ATOM      2  H   UNL     1      -3.724 -14.012   2.466  0.00  0.00    +0.000 HD
ATOM      3  H   UNL     1      -3.870 -15.144   3.812  0.00  0.00    +0.000 HD
ENDROOT
BRANCH   1   4
ATOM      4  C   UNL     1      -2.665 -15.874   2.171  0.00  0.00    +0.000 C 
ATOM      5  H   UNL     1      -1.943 -16.061   2.975  0.00  0.00    +0.000 HD
ATOM      6  H   UNL     1      -3.013 -16.851   1.815  0.00  0.00    +0.000 HD
BRANCH   4   7
ATOM      7  C   UNL     1      -1.974 -15.133   1.024  0.00  0.00    +0.000 C 
ATOM      8  H   UNL     1      -0.963 -14.848   1.339  0.00  0.00    +0.000 HD
ATOM      9  H   UNL     1      -2.515 -14.201   0.815  0.00  0.00    +0.000 HD
BRANCH   7  10
ATOM     10  C   UNL     1      -1.881 -15.956  -0.264  0.00  0.00    +0.000 C 
ATOM     11  H   UNL     1      -0.935 -15.725  -0.769  0.00  0.00    +0.000 HD
ATOM     12  H   UNL     1      -1.849 -17.021  -0.005  0.00  0.00    +0.000 HD
BRANCH  10  13
ATOM     13  C   UNL     1      -3.039 -15.703  -1.232  0.00  0.00    +0.000 C 
ATOM     14  H   UNL     1      -3.337 -14.649  -1.182  0.00  0.00    +0.000 HD
ATOM     15  H   UNL     1      -3.907 -16.299  -0.925  0.00  0.00    +0.000 HD
BRANCH  13  16
ATOM     16  C   UNL     1      -2.649 -16.060  -2.667  0.00  0.00    +0.000 C 
ATOM     17  H   UNL     1      -1.645 -16.500  -2.681  0.00  0.00    +0.000 HD
ATOM     18  H   UNL     1      -3.339 -16.814  -3.064  0.00  0.00    +0.000 HD
BRANCH  16  19
ATOM     19  C   UNL     1      -2.674 -14.840  -3.573  0.00  0.00    +0.000 C 
ATOM     20  H   UNL     1      -2.170 -13.990  -3.101  0.00  0.00    +0.000 HD
ATOM     21  H   UNL     1      -2.176 -15.049  -4.525  0.00  0.00    +0.000 HD
ATOM     22  H   UNL     1      -3.706 -14.547  -3.786  0.00  0.00    +0.000 HD
ENDBRANCH  16  19
ENDBRANCH  13  16
ENDBRANCH  10  13
ENDBRANCH   7  10
ENDBRANCH   4   7
ENDBRANCH   1   4
BRANCH   1  23
ATOM     23  C   UNL     1      -5.173 -15.578   2.144  0.00  0.00    +0.000 C 
ATOM     24  H   UNL     1      -5.010 -16.543   1.647  0.00  0.00    +0.000 HD
ATOM     25  H   UNL     1      -5.877 -15.760   2.966  0.00  0.00    +0.000 HD
BRANCH  23  26
ATOM     26  C   UNL     1      -5.817 -14.611   1.146  0.00  0.00    +0.000 C 
ATOM     27  H   UNL     1      -5.021 -14.028   0.663  0.00  0.00    +0.000 HD
ATOM     28  H   UNL     1      -6.296 -15.197   0.350  0.00  0.00    +0.000 HD
BRANCH  26  29
ATOM     29  C   UNL     1      -6.846 -13.637   1.727  0.00  0.00    +0.000 C 
ATOM     30  H   UNL     1      -7.681 -13.540   1.022  0.00  0.00    +0.000 HD
ATOM     31  H   UNL     1      -6.387 -12.645   1.811  0.00  0.00    +0.000 HD
BRANCH  29  32
ATOM     32  C   UNL     1      -7.387 -14.064   3.093  0.00  0.00    +0.000 C 
ATOM     33  H   UNL     1      -8.473 -14.201   3.027  0.00  0.00    +0.000 HD
ATOM     34  H   UNL     1      -6.954 -15.033   3.370  0.00  0.00    +0.000 HD
BRANCH  32  36
ATOM     35 CL   UNL     1      -5.527 -12.206   3.776  0.00  0.00    +0.000 Cl
ATOM     36  C   UNL     1      -7.058 -13.026   4.159  0.00  0.00    +0.000 C 
ATOM     37  H   UNL     1      -6.948 -13.492   5.144  0.00  0.00    +0.000 HD
ATOM     38  H   UNL     1      -7.839 -12.262   4.221  0.00  0.00    +0.000 HD
ENDBRANCH  32  36
ENDBRANCH  29  32
ENDBRANCH  26  29
ENDBRANCH  23  26
ENDBRANCH   1  23
TORSDOF 11
ENDMDL
MODEL 4
REMARK VINA RESULT:    -4.593      1.779      4.172
REMARK INTER + INTRA:          -8.082
REMARK INTER:                  -7.044
REMARK INTRA:                  -1.038
REMARK UNBOUND:                -0.670
REMARK  Name = 8192
REMARK  11 active torsions:
REMARK  status: ('A' for Active; 'I' for Inactive)
REMARK    1  A    between atoms: C_2  and  C_3
REMARK    2  A    between atoms: C_2  and  C_4
REMARK    3  A    between atoms: C_3  and  C_5
REMARK    4  A    between atoms: C_4  and  C_6
REMARK    5  A    between atoms: C_5  and  C_7
REMARK    6  A    between atoms: C_6  and  C_8
REMARK    7  A    between atoms: C_7  and  C_9
REMARK    8  A    between atoms: C_8  and  C_10
REMARK    9  A    between atoms: C_9  and  C_11
REMARK   10  A    between atoms: C_10  and  C_12
REMARK   11  A    between atoms: C_11  and  C_13
REMARK                            x       y       z     vdW  Elec       q    Type
REMARK                         _______ _______ _______ _____ _____    ______ ____
ROOT
ATOM      1  C   UNL     1      -7.369 -13.568   2.987  0.00  0.00    +0.000 C 
ATOM      2  H   UNL     1      -6.666 -13.177   2.242  0.00  0.00    +0.000 HD
ATOM      3  H   UNL     1      -8.366 -13.199   2.717  0.00  0.00    +0.000 HD
ENDROOT
BRANCH   1   4
ATOM      4  C   UNL     1      -6.987 -13.050   4.377  0.00  0.00    +0.000 C 
ATOM      5  H   UNL     1      -6.155 -13.643   4.775  0.00  0.00    +0.000 HD
ATOM      6  H   UNL     1      -6.640 -12.013   4.303  0.00  0.00    +0.000 HD
BRANCH   4   7
ATOM      7  C   UNL     1      -8.174 -13.121   5.340  0.00  0.00    +0.000 C 
ATOM      8  H   UNL     1      -9.058 -13.473   4.793  0.00  0.00    +0.000 HD
ATOM      9  H   UNL     1      -8.409 -12.113   5.704  0.00  0.00    +0.000 HD
BRANCH   7  10
ATOM     10  C   UNL     1      -7.931 -14.042   6.538  0.00  0.00    +0.000 C 
ATOM     11  H   UNL     1      -6.850 -14.159   6.687  0.00  0.00    +0.000 HD
ATOM     12  H   UNL     1      -8.324 -13.562   7.443  0.00  0.00    +0.000 HD
BRANCH  10  13
ATOM     13  C   UNL     1      -8.565 -15.426   6.380  0.00  0.00    +0.000 C 
ATOM     14  H   UNL     1      -8.854 -15.581   5.333  0.00  0.00    +0.000 HD
ATOM     15  H   UNL     1      -9.482 -15.476   6.979  0.00  0.00    +0.000 HD
BRANCH  13  16
ATOM     16  C   UNL     1      -7.602 -16.530   6.818  0.00  0.00    +0.000 C 
ATOM     17  H   UNL     1      -7.479 -16.505   7.907  0.00  0.00    +0.000 HD
ATOM     18  H   UNL     1      -8.018 -17.511   6.561  0.00  0.00    +0.000 HD
BRANCH  16  19
ATOM     19  C   UNL     1      -6.242 -16.379   6.156  0.00  0.00    +0.000 C 
ATOM     20  H   UNL     1      -5.505 -17.043   6.619  0.00  0.00    +0.000 HD
ATOM     21  H   UNL     1      -6.298 -16.618   5.088  0.00  0.00    +0.000 HD
ATOM     22  H   UNL     1      -5.883 -15.350   6.255  0.00  0.00    +0.000 HD
ENDBRANCH  16  19
ENDBRANCH  13  16
ENDBRANCH  10  13
ENDBRANCH   7  10
ENDBRANCH   4   7
ENDBRANCH   1   4
BRANCH   1  23
ATOM     23  C   UNL     1      -7.358 -15.097   2.944  0.00  0.00    +0.000 C 
ATOM     24  H   UNL     1      -7.378 -15.491   3.968  0.00  0.00    +0.000 HD
ATOM     25  H   UNL     1      -8.272 -15.451   2.451  0.00  0.00    +0.000 HD
BRANCH  23  26
ATOM     26  C   UNL     1      -6.144 -15.680   2.214  0.00  0.00    +0.000 C 
ATOM     27  H   UNL     1      -5.633 -16.377   2.891  0.00  0.00    +0.000 HD
ATOM     28  H   UNL     1      -6.500 -16.279   1.366  0.00  0.00    +0.000 HD
BRANCH  26  29
ATOM     29  C   UNL     1      -5.120 -14.663   1.702  0.00  0.00    +0.000 C 
ATOM     30  H   UNL     1      -5.572 -13.663   1.719  0.00  0.00    +0.000 HD
ATOM     31  H   UNL     1      -4.891 -14.889   0.654  0.00  0.00    +0.000 HD
BRANCH  29  32
ATOM     32  C   UNL     1      -3.822 -14.643   2.513  0.00  0.00    +0.000 C 
ATOM     33  H   UNL     1      -3.370 -13.646   2.449  0.00  0.00    +0.000 HD
ATOM     34  H   UNL     1      -4.050 -14.829   3.569  0.00  0.00    +0.000 HD
BRANCH  32  36
ATOM     35 CL   UNL     1      -2.235 -15.242   0.392  0.00  0.00    +0.000 Cl
ATOM     36  C   UNL     1      -2.842 -15.692   2.001  0.00  0.00    +0.000 C 
ATOM     37  H   UNL     1      -3.323 -16.672   1.913  0.00  0.00    +0.000 HD
ATOM     38  H   UNL     1      -1.980 -15.787   2.669  0.00  0.00    +0.000 HD
ENDBRANCH  32  36
ENDBRANCH  29  32
ENDBRANCH  26  29
ENDBRANCH  23  26
ENDBRANCH   1  23
TORSDOF 11
ENDMDL
MODEL 5
REMARK VINA RESULT:    -4.572      1.405      4.749
REMARK INTER + INTRA:          -8.049
REMARK INTER:                  -6.607
REMARK INTRA:                  -1.441
REMARK UNBOUND:                -0.670
REMARK  Name = 8192
REMARK  11 active torsions:
REMARK  status: ('A' for Active; 'I' for Inactive)
REMARK    1  A    between atoms: C_2  and  C_3
REMARK    2  A    between atoms: C_2  and  C_4
REMARK    3  A    between atoms: C_3  and  C_5
REMARK    4  A    between atoms: C_4  and  C_6
REMARK    5  A    between atoms: C_5  and  C_7
REMARK    6  A    between atoms: C_6  and  C_8
REMARK    7  A    between atoms: C_7  and  C_9
REMARK    8  A    between atoms: C_8  and  C_10
REMARK    9  A    between atoms: C_9  and  C_11
REMARK   10  A    between atoms: C_10  and  C_12
REMARK   11  A    between atoms: C_11  and  C_13
REMARK                            x       y       z     vdW  Elec       q    Type
REMARK                         _______ _______ _______ _____ _____    ______ ____
ROOT
ATOM      1  C   UNL     1      -4.886 -15.291   4.100  0.00  0.00    +0.000 C 
ATOM      2  H   UNL     1      -5.537 -15.688   3.314  0.00  0.00    +0.000 HD
ATOM      3  H   UNL     1      -3.854 -15.357   3.731  0.00  0.00    +0.000 HD
ENDROOT
BRANCH   1   4
ATOM      4  C   UNL     1      -5.034 -16.135   5.369  0.00  0.00    +0.000 C 
ATOM      5  H   UNL     1      -4.262 -16.913   5.387  0.00  0.00    +0.000 HD
ATOM      6  H   UNL     1      -4.879 -15.505   6.253  0.00  0.00    +0.000 HD
BRANCH   4   7
ATOM      7  C   UNL     1      -6.418 -16.784   5.444  0.00  0.00    +0.000 C 
ATOM      8  H   UNL     1      -6.302 -17.875   5.464  0.00  0.00    +0.000 HD
ATOM      9  H   UNL     1      -6.983 -16.543   4.535  0.00  0.00    +0.000 HD
BRANCH   7  10
ATOM     10  C   UNL     1      -7.229 -16.348   6.668  0.00  0.00    +0.000 C 
ATOM     11  H   UNL     1      -7.319 -17.196   7.358  0.00  0.00    +0.000 HD
ATOM     12  H   UNL     1      -6.677 -15.564   7.201  0.00  0.00    +0.000 HD
BRANCH  10  13
ATOM     13  C   UNL     1      -8.628 -15.837   6.320  0.00  0.00    +0.000 C 
ATOM     14  H   UNL     1      -9.260 -15.855   7.216  0.00  0.00    +0.000 HD
ATOM     15  H   UNL     1      -9.089 -16.510   5.587  0.00  0.00    +0.000 HD
BRANCH  13  16
ATOM     16  C   UNL     1      -8.576 -14.418   5.755  0.00  0.00    +0.000 C 
ATOM     17  H   UNL     1      -8.065 -14.422   4.784  0.00  0.00    +0.000 HD
ATOM     18  H   UNL     1      -9.593 -14.046   5.585  0.00  0.00    +0.000 HD
BRANCH  16  19
ATOM     19  C   UNL     1      -7.852 -13.468   6.697  0.00  0.00    +0.000 C 
ATOM     20  H   UNL     1      -8.503 -12.641   6.997  0.00  0.00    +0.000 HD
ATOM     21  H   UNL     1      -7.521 -13.991   7.600  0.00  0.00    +0.000 HD
ATOM     22  H   UNL     1      -6.970 -13.047   6.206  0.00  0.00    +0.000 HD
ENDBRANCH  16  19
ENDBRANCH  13  16
ENDBRANCH  10  13
ENDBRANCH   7  10
ENDBRANCH   4   7
ENDBRANCH   1   4
BRANCH   1  23
ATOM     23  C   UNL     1      -5.242 -13.827   4.365  0.00  0.00    +0.000 C 
ATOM     24  H   UNL     1      -5.997 -13.772   5.159  0.00  0.00    +0.000 HD
ATOM     25  H   UNL     1      -4.354 -13.300   4.736  0.00  0.00    +0.000 HD
BRANCH  23  26
ATOM     26  C   UNL     1      -5.772 -13.094   3.128  0.00  0.00    +0.000 C 
ATOM     27  H   UNL     1      -5.887 -12.030   3.378  0.00  0.00    +0.000 HD
ATOM     28  H   UNL     1      -5.012 -13.144   2.339  0.00  0.00    +0.000 HD
BRANCH  26  29
ATOM     29  C   UNL     1      -7.101 -13.606   2.565  0.00  0.00    +0.000 C 
ATOM     30  H   UNL     1      -7.903 -12.920   2.867  0.00  0.00    +0.000 HD
ATOM     31  H   UNL     1      -7.327 -14.577   3.021  0.00  0.00    +0.000 HD
BRANCH  29  32
ATOM     32  C   UNL     1      -7.104 -13.746   1.041  0.00  0.00    +0.000 C 
ATOM     33  H   UNL     1      -8.055 -13.371   0.644  0.00  0.00    +0.000 HD
ATOM     34  H   UNL     1      -6.307 -13.123   0.617  0.00  0.00    +0.000 HD
BRANCH  32  36
ATOM     35 CL   UNL     1      -7.564 -16.294   1.860  0.00  0.00    +0.000 Cl
ATOM     36  C   UNL     1      -6.903 -15.198   0.626  0.00  0.00    +0.000 C 
ATOM     37  H   UNL     1      -5.840 -15.433   0.509  0.00  0.00    +0.000 HD
ATOM     38  H   UNL     1      -7.412 -15.414  -0.318  0.00  0.00    +0.000 HD
ENDBRANCH  32  36
ENDBRANCH  29  32
ENDBRANCH  26  29
ENDBRANCH  23  26
ENDBRANCH   1  23
TORSDOF 11
ENDMDL
MODEL 6
REMARK VINA RESULT:    -4.525     28.787     30.154
REMARK INTER + INTRA:          -7.972
REMARK INTER:                  -7.128
REMARK INTRA:                  -0.844
REMARK UNBOUND:                -0.670
REMARK  Name = 8192
REMARK  11 active torsions:
REMARK  status: ('A' for Active; 'I' for Inactive)
REMARK    1  A    between atoms: C_2  and  C_3
REMARK    2  A    between atoms: C_2  and  C_4
REMARK    3  A    between atoms: C_3  and  C_5
REMARK    4  A    between atoms: C_4  and  C_6
REMARK    5  A    between atoms: C_5  and  C_7
REMARK    6  A    between atoms: C_6  and  C_8
REMARK    7  A    between atoms: C_7  and  C_9
REMARK    8  A    between atoms: C_8  and  C_10
REMARK    9  A    between atoms: C_9  and  C_11
REMARK   10  A    between atoms: C_10  and  C_12
REMARK   11  A    between atoms: C_11  and  C_13
REMARK                            x       y       z     vdW  Elec       q    Type
REMARK                         _______ _______ _______ _____ _____    ______ ____
ROOT
ATOM      1  C   UNL     1      -2.020   6.051  25.296  0.00  0.00    +0.000 C 
ATOM      2  H   UNL     1      -2.002   7.027  25.792  0.00  0.00    +0.000 HD
ATOM      3  H   UNL     1      -1.040   5.586  25.458  0.00  0.00    +0.000 HD
ENDROOT
BRANCH   1   4
ATOM      4  C   UNL     1      -2.259   6.240  23.794  0.00  0.00    +0.000 C 
ATOM      5  H   UNL     1      -2.531   5.279  23.341  0.00  0.00    +0.000 HD
ATOM      6  H   UNL     1      -3.102   6.923  23.637  0.00  0.00    +0.000 HD
BRANCH   4   7
ATOM      7  C   UNL     1      -1.014   6.800  23.102  0.00  0.00    +0.000 C 
ATOM      8  H   UNL     1      -0.520   5.993  22.546  0.00  0.00    +0.000 HD
ATOM      9  H   UNL     1      -0.300   7.146  23.860  0.00  0.00    +0.000 HD
BRANCH   7  10
ATOM     10  C   UNL     1      -1.320   7.952  22.141  0.00  0.00    +0.000 C 
ATOM     11  H   UNL     1      -0.774   7.790  21.203  0.00  0.00    +0.000 HD
ATOM     12  H   UNL     1      -2.388   7.935  21.891  0.00  0.00    +0.000 HD
BRANCH  10  13
ATOM     13  C   UNL     1      -0.951   9.327  22.702  0.00  0.00    +0.000 C 
ATOM     14  H   UNL     1      -0.627   9.983  21.885  0.00  0.00    +0.000 HD
ATOM     15  H   UNL     1      -0.102   9.224  23.389  0.00  0.00    +0.000 HD
BRANCH  13  16
ATOM     16  C   UNL     1      -2.133   9.961  23.435  0.00  0.00    +0.000 C 
ATOM     17  H   UNL     1      -2.377  10.929  22.980  0.00  0.00    +0.000 HD
ATOM     18  H   UNL     1      -3.020   9.323  23.336  0.00  0.00    +0.000 HD
BRANCH  16  19
ATOM     19  C   UNL     1      -1.831  10.164  24.911  0.00  0.00    +0.000 C 
ATOM     20  H   UNL     1      -1.684   9.204  25.417  0.00  0.00    +0.000 HD
ATOM     21  H   UNL     1      -0.927  10.767  25.047  0.00  0.00    +0.000 HD
ATOM     22  H   UNL     1      -2.661  10.682  25.401  0.00  0.00    +0.000 HD
ENDBRANCH  16  19
ENDBRANCH  13  16
ENDBRANCH  10  13
ENDBRANCH   7  10
ENDBRANCH   4   7
ENDBRANCH   1   4
BRANCH   1  23
ATOM     23  C   UNL     1      -3.110   5.180  25.924  0.00  0.00    +0.000 C 
ATOM     24  H   UNL     1      -2.645   4.354  26.476  0.00  0.00    +0.000 HD
ATOM     25  H   UNL     1      -3.671   5.775  26.656  0.00  0.00    +0.000 HD
BRANCH  23  26
ATOM     26  C   UNL     1      -4.092   4.599  24.901  0.00  0.00    +0.000 C 
ATOM     27  H   UNL     1      -4.109   5.258  24.022  0.00  0.00    +0.000 HD
ATOM     28  H   UNL     1      -3.705   3.632  24.554  0.00  0.00    +0.000 HD
BRANCH  26  29
ATOM     29  C   UNL     1      -5.530   4.407  25.390  0.00  0.00    +0.000 C 
ATOM     30  H   UNL     1      -5.710   3.337  25.555  0.00  0.00    +0.000 HD
ATOM     31  H   UNL     1      -6.219   4.724  24.598  0.00  0.00    +0.000 HD
BRANCH  29  32
ATOM     32  C   UNL     1      -5.846   5.175  26.675  0.00  0.00    +0.000 C 
ATOM     33  H   UNL     1      -4.957   5.732  26.994  0.00  0.00    +0.000 HD
ATOM     34  H   UNL     1      -6.635   5.911  26.475  0.00  0.00    +0.000 HD
BRANCH  32  36
ATOM     35 CL   UNL     1      -4.999   3.066  28.161  0.00  0.00    +0.000 Cl
ATOM     36  C   UNL     1      -6.291   4.227  27.783  0.00  0.00    +0.000 C 
ATOM     37  H   UNL     1      -7.174   3.655  27.483  0.00  0.00    +0.000 HD
ATOM     38  H   UNL     1      -6.526   4.774  28.701  0.00  0.00    +0.000 HD
ENDBRANCH  32  36
ENDBRANCH  29  32
ENDBRANCH  26  29
ENDBRANCH  23  26
ENDBRANCH   1  23
TORSDOF 11
ENDMDL
MODEL 7
REMARK VINA RESULT:    -4.521      1.365      2.360
REMARK INTER + INTRA:          -7.967
REMARK INTER:                  -6.661
REMARK INTRA:                  -1.306
REMARK UNBOUND:                -0.670
REMARK  Name = 8192
REMARK  11 active torsions:
REMARK  status: ('A' for Active; 'I' for Inactive)
REMARK    1  A    between atoms: C_2  and  C_3
REMARK    2  A    between atoms: C_2  and  C_4
REMARK    3  A    between atoms: C_3  and  C_5
REMARK    4  A    between atoms: C_4  and  C_6
REMARK    5  A    between atoms: C_5  and  C_7
REMARK    6  A    between atoms: C_6  and  C_8
REMARK    7  A    between atoms: C_7  and  C_9
REMARK    8  A    between atoms: C_8  and  C_10
REMARK    9  A    between atoms: C_9  and  C_11
REMARK   10  A    between atoms: C_10  and  C_12
REMARK   11  A    between atoms: C_11  and  C_13
REMARK                            x       y       z     vdW  Elec       q    Type
REMARK                         _______ _______ _______ _____ _____    ______ ____
ROOT
ATOM      1  C   UNL     1      -7.484 -16.021   6.773  0.00  0.00    +0.000 C 
ATOM      2  H   UNL     1      -7.831 -16.404   7.740  0.00  0.00    +0.000 HD
ATOM      3  H   UNL     1      -6.507 -15.552   6.942  0.00  0.00    +0.000 HD
ENDROOT
BRANCH   1   4
ATOM      4  C   UNL     1      -8.474 -14.976   6.247  0.00  0.00    +0.000 C 
ATOM      5  H   UNL     1      -8.789 -15.247   5.232  0.00  0.00    +0.000 HD
ATOM      6  H   UNL     1      -9.372 -14.969   6.875  0.00  0.00    +0.000 HD
BRANCH   4   7
ATOM      7  C   UNL     1      -7.850 -13.579   6.236  0.00  0.00    +0.000 C 
ATOM      8  H   UNL     1      -6.830 -13.639   6.637  0.00  0.00    +0.000 HD
ATOM      9  H   UNL     1      -8.416 -12.922   6.907  0.00  0.00    +0.000 HD
BRANCH   7  10
ATOM     10  C   UNL     1      -7.799 -12.947   4.842  0.00  0.00    +0.000 C 
ATOM     11  H   UNL     1      -8.772 -12.490   4.620  0.00  0.00    +0.000 HD
ATOM     12  H   UNL     1      -7.062 -12.136   4.844  0.00  0.00    +0.000 HD
BRANCH  10  13
ATOM     13  C   UNL     1      -7.453 -13.945   3.735  0.00  0.00    +0.000 C 
ATOM     14  H   UNL     1      -8.283 -14.004   3.020  0.00  0.00    +0.000 HD
ATOM     15  H   UNL     1      -7.330 -14.944   4.170  0.00  0.00    +0.000 HD
BRANCH  13  16
ATOM     16  C   UNL     1      -6.173 -13.540   3.004  0.00  0.00    +0.000 C 
ATOM     17  H   UNL     1      -5.473 -14.384   2.983  0.00  0.00    +0.000 HD
ATOM     18  H   UNL     1      -6.403 -13.283   1.963  0.00  0.00    +0.000 HD
BRANCH  16  19
ATOM     19  C   UNL     1      -5.502 -12.350   3.671  0.00  0.00    +0.000 C 
ATOM     20  H   UNL     1      -4.438 -12.305   3.416  0.00  0.00    +0.000 HD
ATOM     21  H   UNL     1      -5.970 -11.410   3.357  0.00  0.00    +0.000 HD
ATOM     22  H   UNL     1      -5.589 -12.426   4.759  0.00  0.00    +0.000 HD
ENDBRANCH  16  19
ENDBRANCH  13  16
ENDBRANCH  10  13
ENDBRANCH   7  10
ENDBRANCH   4   7
ENDBRANCH   1   4
BRANCH   1  23
ATOM     23  C   UNL     1      -7.332 -17.183   5.790  0.00  0.00    +0.000 C 
ATOM     24  H   UNL     1      -7.571 -18.126   6.299  0.00  0.00    +0.000 HD
ATOM     25  H   UNL     1      -8.061 -17.068   4.978  0.00  0.00    +0.000 HD
BRANCH  23  26
ATOM     26  C   UNL     1      -5.929 -17.291   5.184  0.00  0.00    +0.000 C 
ATOM     27  H   UNL     1      -5.453 -18.202   5.570  0.00  0.00    +0.000 HD
ATOM     28  H   UNL     1      -6.026 -17.429   4.100  0.00  0.00    +0.000 HD
BRANCH  26  29
ATOM     29  C   UNL     1      -4.994 -16.107   5.447  0.00  0.00    +0.000 C 
ATOM     30  H   UNL     1      -5.473 -15.428   6.164  0.00  0.00    +0.000 HD
ATOM     31  H   UNL     1      -4.865 -15.544   4.515  0.00  0.00    +0.000 HD
BRANCH  29  32
ATOM     32  C   UNL     1      -3.622 -16.521   5.985  0.00  0.00    +0.000 C 
ATOM     33  H   UNL     1      -3.412 -15.968   6.908  0.00  0.00    +0.000 HD
ATOM     34  H   UNL     1      -3.638 -17.588   6.241  0.00  0.00    +0.000 HD
BRANCH  32  36
ATOM     35 CL   UNL     1      -3.244 -15.772   3.402  0.00  0.00    +0.000 Cl
ATOM     36  C   UNL     1      -2.529 -16.252   4.957  0.00  0.00    +0.000 C 
ATOM     37  H   UNL     1      -1.922 -17.145   4.783  0.00  0.00    +0.000 HD
ATOM     38  H   UNL     1      -1.870 -15.442   5.285  0.00  0.00    +0.000 HD
ENDBRANCH  32  36
ENDBRANCH  29  32
ENDBRANCH  26  29
ENDBRANCH  23  26
ENDBRANCH   1  23
TORSDOF 11
ENDMDL
MODEL 8
REMARK VINA RESULT:    -4.494     29.029     30.861
REMARK INTER + INTRA:          -7.923
REMARK INTER:                  -7.146
REMARK INTRA:                  -0.776
REMARK UNBOUND:                -0.670
REMARK  Name = 8192
REMARK  11 active torsions:
REMARK  status: ('A' for Active; 'I' for Inactive)
REMARK    1  A    between atoms: C_2  and  C_3
REMARK    2  A    between atoms: C_2  and  C_4
REMARK    3  A    between atoms: C_3  and  C_5
REMARK    4  A    between atoms: C_4  and  C_6
REMARK    5  A    between atoms: C_5  and  C_7
REMARK    6  A    between atoms: C_6  and  C_8
REMARK    7  A    between atoms: C_7  and  C_9
REMARK    8  A    between atoms: C_8  and  C_10
REMARK    9  A    between atoms: C_9  and  C_11
REMARK   10  A    between atoms: C_10  and  C_12
REMARK   11  A    between atoms: C_11  and  C_13
REMARK                            x       y       z     vdW  Elec       q    Type
REMARK                         _______ _______ _______ _____ _____    ______ ____
ROOT
ATOM      1  C   UNL     1      -1.948   8.142  22.744  0.00  0.00    +0.000 C 
ATOM      2  H   UNL     1      -2.585   7.925  21.879  0.00  0.00    +0.000 HD
ATOM      3  H   UNL     1      -2.597   8.539  23.534  0.00  0.00    +0.000 HD
ENDROOT
BRANCH   1   4
ATOM      4  C   UNL     1      -0.900   9.192  22.362  0.00  0.00    +0.000 C 
ATOM      5  H   UNL     1       0.094   8.853  22.679  0.00  0.00    +0.000 HD
ATOM      6  H   UNL     1      -0.871   9.306  21.272  0.00  0.00    +0.000 HD
BRANCH   4   7
ATOM      7  C   UNL     1      -1.211  10.545  23.007  0.00  0.00    +0.000 C 
ATOM      8  H   UNL     1      -1.838  11.131  22.324  0.00  0.00    +0.000 HD
ATOM      9  H   UNL     1      -0.278  11.107  23.142  0.00  0.00    +0.000 HD
BRANCH   7  10
ATOM     10  C   UNL     1      -1.923  10.425  24.357  0.00  0.00    +0.000 C 
ATOM     11  H   UNL     1      -2.413   9.445  24.418  0.00  0.00    +0.000 HD
ATOM     12  H   UNL     1      -1.175  10.455  25.159  0.00  0.00    +0.000 HD
BRANCH  10  13
ATOM     13  C   UNL     1      -2.966  11.520  24.593  0.00  0.00    +0.000 C 
ATOM     14  H   UNL     1      -2.513  12.343  25.159  0.00  0.00    +0.000 HD
ATOM     15  H   UNL     1      -3.782  11.118  25.205  0.00  0.00    +0.000 HD
BRANCH  13  16
ATOM     16  C   UNL     1      -3.524  12.048  23.272  0.00  0.00    +0.000 C 
ATOM     17  H   UNL     1      -3.411  13.138  23.229  0.00  0.00    +0.000 HD
ATOM     18  H   UNL     1      -2.955  11.630  22.433  0.00  0.00    +0.000 HD
BRANCH  16  19
ATOM     19  C   UNL     1      -4.992  11.689  23.102  0.00  0.00    +0.000 C 
ATOM     20  H   UNL     1      -5.553  11.888  24.021  0.00  0.00    +0.000 HD
ATOM     21  H   UNL     1      -5.445  12.268  22.290  0.00  0.00    +0.000 HD
ATOM     22  H   UNL     1      -5.097  10.627  22.862  0.00  0.00    +0.000 HD
ENDBRANCH  16  19
ENDBRANCH  13  16
ENDBRANCH  10  13
ENDBRANCH   7  10
ENDBRANCH   4   7
ENDBRANCH   1   4
BRANCH   1  23
ATOM     23  C   UNL     1      -1.286   6.850  23.226  0.00  0.00    +0.000 C 
ATOM     24  H   UNL     1      -1.879   5.989  22.893  0.00  0.00    +0.000 HD
ATOM     25  H   UNL     1      -0.298   6.753  22.757  0.00  0.00    +0.000 HD
BRANCH  23  26
ATOM     26  C   UNL     1      -1.121   6.778  24.747  0.00  0.00    +0.000 C 
ATOM     27  H   UNL     1      -0.142   6.333  24.970  0.00  0.00    +0.000 HD
ATOM     28  H   UNL     1      -1.092   7.801  25.145  0.00  0.00    +0.000 HD
BRANCH  26  29
ATOM     29  C   UNL     1      -2.196   5.988  25.500  0.00  0.00    +0.000 C 
ATOM     30  H   UNL     1      -2.847   6.693  26.033  0.00  0.00    +0.000 HD
ATOM     31  H   UNL     1      -1.710   5.368  26.262  0.00  0.00    +0.000 HD
BRANCH  29  32
ATOM     32  C   UNL     1      -3.050   5.101  24.591  0.00  0.00    +0.000 C 
ATOM     33  H   UNL     1      -3.576   5.729  23.861  0.00  0.00    +0.000 HD
ATOM     34  H   UNL     1      -2.398   4.424  24.027  0.00  0.00    +0.000 HD
BRANCH  32  36
ATOM     35 CL   UNL     1      -5.693   4.493  24.738  0.00  0.00    +0.000 Cl
ATOM     36  C   UNL     1      -4.056   4.296  25.404  0.00  0.00    +0.000 C 
ATOM     37  H   UNL     1      -4.079   4.629  26.446  0.00  0.00    +0.000 HD
ATOM     38  H   UNL     1      -3.815   3.228  25.386  0.00  0.00    +0.000 HD
ENDBRANCH  32  36
ENDBRANCH  29  32
ENDBRANCH  26  29
ENDBRANCH  23  26
ENDBRANCH   1  23
TORSDOF 11
ENDMDL
MODEL 9
REMARK VINA RESULT:    -4.487     31.148     32.438
REMARK INTER + INTRA:          -7.912
REMARK INTER:                  -7.024
REMARK INTRA:                  -0.888
REMARK UNBOUND:                -0.670
REMARK  Name = 8192
REMARK  11 active torsions:
REMARK  status: ('A' for Active; 'I' for Inactive)
REMARK    1  A    between atoms: C_2  and  C_3
REMARK    2  A    between atoms: C_2  and  C_4
REMARK    3  A    between atoms: C_3  and  C_5
REMARK    4  A    between atoms: C_4  and  C_6
REMARK    5  A    between atoms: C_5  and  C_7
REMARK    6  A    between atoms: C_6  and  C_8
REMARK    7  A    between atoms: C_7  and  C_9
REMARK    8  A    between atoms: C_8  and  C_10
REMARK    9  A    between atoms: C_9  and  C_11
REMARK   10  A    between atoms: C_10  and  C_12
REMARK   11  A    between atoms: C_11  and  C_13
REMARK                            x       y       z     vdW  Elec       q    Type
REMARK                         _______ _______ _______ _____ _____    ______ ____
ROOT
ATOM      1  C   UNL     1       3.237   5.935 -19.942  0.00  0.00    +0.000 C 
ATOM      2  H   UNL     1       3.423   6.526 -20.846  0.00  0.00    +0.000 HD
ATOM      3  H   UNL     1       3.100   4.893 -20.258  0.00  0.00    +0.000 HD
ENDROOT
BRANCH   1   4
ATOM      4  C   UNL     1       1.965   6.436 -19.251  0.00  0.00    +0.000 C 
ATOM      5  H   UNL     1       2.153   6.564 -18.179  0.00  0.00    +0.000 HD
ATOM      6  H   UNL     1       1.689   7.418 -19.652  0.00  0.00    +0.000 HD
BRANCH   4   7
ATOM      7  C   UNL     1       0.803   5.460 -19.455  0.00  0.00    +0.000 C 
ATOM      8  H   UNL     1      -0.086   6.022 -19.769  0.00  0.00    +0.000 HD
ATOM      9  H   UNL     1       0.555   4.984 -18.498  0.00  0.00    +0.000 HD
BRANCH   7  10
ATOM     10  C   UNL     1       1.097   4.373 -20.492  0.00  0.00    +0.000 C 
ATOM     11  H   UNL     1       0.406   4.487 -21.337  0.00  0.00    +0.000 HD
ATOM     12  H   UNL     1       2.108   4.523 -20.890  0.00  0.00    +0.000 HD
BRANCH  10  13
ATOM     13  C   UNL     1       0.975   2.953 -19.936  0.00  0.00    +0.000 C 
ATOM     14  H   UNL     1       0.241   2.389 -20.525  0.00  0.00    +0.000 HD
ATOM     15  H   UNL     1       0.599   2.996 -18.907  0.00  0.00    +0.000 HD
BRANCH  13  16
ATOM     16  C   UNL     1       2.322   2.230 -19.963  0.00  0.00    +0.000 C 
ATOM     17  H   UNL     1       2.898   2.484 -19.065  0.00  0.00    +0.000 HD
ATOM     18  H   UNL     1       2.163   1.145 -19.950  0.00  0.00    +0.000 HD
BRANCH  16  19
ATOM     19  C   UNL     1       3.130   2.599 -21.197  0.00  0.00    +0.000 C 
ATOM     20  H   UNL     1       2.815   2.008 -22.063  0.00  0.00    +0.000 HD
ATOM     21  H   UNL     1       3.009   3.660 -21.441  0.00  0.00    +0.000 HD
ATOM     22  H   UNL     1       4.194   2.409 -21.024  0.00  0.00    +0.000 HD
ENDBRANCH  16  19
ENDBRANCH  13  16
ENDBRANCH  10  13
ENDBRANCH   7  10
ENDBRANCH   4   7
ENDBRANCH   1   4
BRANCH   1  23
ATOM     23  C   UNL     1       4.447   6.033 -19.011  0.00  0.00    +0.000 C 
ATOM     24  H   UNL     1       4.925   7.013 -19.135  0.00  0.00    +0.000 HD
ATOM     25  H   UNL     1       4.107   5.977 -17.969  0.00  0.00    +0.000 HD
BRANCH  23  26
ATOM     26  C   UNL     1       5.492   4.939 -19.250  0.00  0.00    +0.000 C 
ATOM     27  H   UNL     1       4.981   4.050 -19.641  0.00  0.00    +0.000 HD
ATOM     28  H   UNL     1       6.175   5.275 -20.041  0.00  0.00    +0.000 HD
BRANCH  26  29
ATOM     29  C   UNL     1       6.319   4.526 -18.029  0.00  0.00    +0.000 C 
ATOM     30  H   UNL     1       5.660   4.033 -17.304  0.00  0.00    +0.000 HD
ATOM     31  H   UNL     1       6.706   5.429 -17.542  0.00  0.00    +0.000 HD
BRANCH  29  32
ATOM     32  C   UNL     1       7.483   3.592 -18.369  0.00  0.00    +0.000 C 
ATOM     33  H   UNL     1       7.559   2.813 -17.601  0.00  0.00    +0.000 HD
ATOM     34  H   UNL     1       7.281   3.090 -19.322  0.00  0.00    +0.000 HD
BRANCH  32  36
ATOM     35 CL   UNL     1       8.968   5.113 -20.060  0.00  0.00    +0.000 Cl
ATOM     36  C   UNL     1       8.794   4.365 -18.457  0.00  0.00    +0.000 C 
ATOM     37  H   UNL     1       9.653   3.704 -18.303  0.00  0.00    +0.000 HD
ATOM     38  H   UNL     1       8.833   5.164 -17.710  0.00  0.00    +0.000 HD
ENDBRANCH  32  36
ENDBRANCH  29  32
ENDBRANCH  26  29
ENDBRANCH  23  26
ENDBRANCH   1  23
TORSDOF 11
ENDMDL
MODEL 10
REMARK VINA RESULT:    -4.422     31.006     32.467
REMARK INTER + INTRA:          -7.806
REMARK INTER:                  -7.136
REMARK INTRA:                  -0.670
REMARK UNBOUND:                -0.670
REMARK  Name = 8192
REMARK  11 active torsions:
REMARK  status: ('A' for Active; 'I' for Inactive)
REMARK    1  A    between atoms: C_2  and  C_3
REMARK    2  A    between atoms: C_2  and  C_4
REMARK    3  A    between atoms: C_3  and  C_5
REMARK    4  A    between atoms: C_4  and  C_6
REMARK    5  A    between atoms: C_5  and  C_7
REMARK    6  A    between atoms: C_6  and  C_8
REMARK    7  A    between atoms: C_7  and  C_9
REMARK    8  A    between atoms: C_8  and  C_10
REMARK    9  A    between atoms: C_9  and  C_11
REMARK   10  A    between atoms: C_10  and  C_12
REMARK   11  A    between atoms: C_11  and  C_13
REMARK                            x       y       z     vdW  Elec       q    Type
REMARK                         _______ _______ _______ _____ _____    ______ ____
ROOT
ATOM      1  C   UNL     1       2.939   3.906 -21.021  0.00  0.00    +0.000 C 
ATOM      2  H   UNL     1       2.407   2.950 -20.967  0.00  0.00    +0.000 HD
ATOM      3  H   UNL     1       3.243   4.049 -22.066  0.00  0.00    +0.000 HD
ENDROOT
BRANCH   1   4
ATOM      4  C   UNL     1       4.180   3.859 -20.125  0.00  0.00    +0.000 C 
ATOM      5  H   UNL     1       4.007   3.165 -19.293  0.00  0.00    +0.000 HD
ATOM      6  H   UNL     1       5.034   3.474 -20.695  0.00  0.00    +0.000 HD
BRANCH   4   7
ATOM      7  C   UNL     1       4.519   5.246 -19.574  0.00  0.00    +0.000 C 
ATOM      8  H   UNL     1       3.848   5.472 -18.736  0.00  0.00    +0.000 HD
ATOM      9  H   UNL     1       4.327   6.001 -20.347  0.00  0.00    +0.000 HD
BRANCH   7  10
ATOM     10  C   UNL     1       5.969   5.374 -19.100  0.00  0.00    +0.000 C 
ATOM     11  H   UNL     1       6.639   5.271 -19.963  0.00  0.00    +0.000 HD
ATOM     12  H   UNL     1       6.125   6.382 -18.697  0.00  0.00    +0.000 HD
BRANCH  10  13
ATOM     13  C   UNL     1       6.356   4.338 -18.042  0.00  0.00    +0.000 C 
ATOM     14  H   UNL     1       5.513   3.657 -17.868  0.00  0.00    +0.000 HD
ATOM     15  H   UNL     1       6.561   4.847 -17.093  0.00  0.00    +0.000 HD
BRANCH  13  16
ATOM     16  C   UNL     1       7.584   3.537 -18.474  0.00  0.00    +0.000 C 
ATOM     17  H   UNL     1       7.741   2.697 -17.788  0.00  0.00    +0.000 HD
ATOM     18  H   UNL     1       7.422   3.115 -19.473  0.00  0.00    +0.000 HD
BRANCH  16  19
ATOM     19  C   UNL     1       8.835   4.403 -18.498  0.00  0.00    +0.000 C 
ATOM     20  H   UNL     1       9.190   4.607 -17.484  0.00  0.00    +0.000 HD
ATOM     21  H   UNL     1       9.641   3.910 -19.053  0.00  0.00    +0.000 HD
ATOM     22  H   UNL     1       8.624   5.360 -18.985  0.00  0.00    +0.000 HD
ENDBRANCH  16  19
ENDBRANCH  13  16
ENDBRANCH  10  13
ENDBRANCH   7  10
ENDBRANCH   4   7
ENDBRANCH   1   4
BRANCH   1  23
ATOM     23  C   UNL     1       1.997   5.037 -20.603  0.00  0.00    +0.000 C 
ATOM     24  H   UNL     1       2.567   5.809 -20.070  0.00  0.00    +0.000 HD
ATOM     25  H   UNL     1       1.582   5.513 -21.500  0.00  0.00    +0.000 HD
BRANCH  23  26
ATOM     26  C   UNL     1       0.842   4.571 -19.710  0.00  0.00    +0.000 C 
ATOM     27  H   UNL     1       1.129   4.729 -18.661  0.00  0.00    +0.000 HD
ATOM     28  H   UNL     1      -0.025   5.220 -19.893  0.00  0.00    +0.000 HD
BRANCH  26  29
ATOM     29  C   UNL     1       0.411   3.113 -19.881  0.00  0.00    +0.000 C 
ATOM     30  H   UNL     1       0.254   2.669 -18.889  0.00  0.00    +0.000 HD
ATOM     31  H   UNL     1       1.229   2.554 -20.351  0.00  0.00    +0.000 HD
BRANCH  29  32
ATOM     32  C   UNL     1      -0.862   2.947 -20.714  0.00  0.00    +0.000 C 
ATOM     33  H   UNL     1      -1.640   2.477 -20.099  0.00  0.00    +0.000 HD
ATOM     34  H   UNL     1      -1.235   3.935 -21.010  0.00  0.00    +0.000 HD
BRANCH  32  36
ATOM     35 CL   UNL     1      -0.909   3.043 -23.428  0.00  0.00    +0.000 Cl
ATOM     36  C   UNL     1      -0.597   2.100 -21.953  0.00  0.00    +0.000 C 
ATOM     37  H   UNL     1      -1.248   1.220 -21.977  0.00  0.00    +0.000 HD
ATOM     38  H   UNL     1       0.443   1.763 -21.986  0.00  0.00    +0.000 HD
ENDBRANCH  32  36
ENDBRANCH  29  32
ENDBRANCH  26  29
ENDBRANCH  23  26
ENDBRANCH   1  23
TORSDOF 11
ENDMDL
