MODEL 1
REMARK VINA RESULT:    -4.254      0.000      0.000
REMARK INTER + INTRA:          -6.526
REMARK INTER:                  -6.247
REMARK INTRA:                  -0.279
REMARK UNBOUND:                -0.283
REMARK  Name = 8914
REMARK  9 active torsions:
REMARK  status: ('A' for Active; 'I' for Inactive)
REMARK    1  A    between atoms: O_1  and  C_9
REMARK    2  A    between atoms: C_2  and  C_3
REMARK    3  A    between atoms: C_2  and  C_4
REMARK    4  A    between atoms: C_3  and  C_5
REMARK    5  A    between atoms: C_4  and  C_6
REMARK    6  A    between atoms: C_5  and  C_7
REMARK    7  A    between atoms: C_6  and  C_8
REMARK    8  A    between atoms: C_7  and  C_9
REMARK    9  A    between atoms: C_8  and  C_10
REMARK                            x       y       z     vdW  Elec       q    Type
REMARK                         _______ _______ _______ _____ _____    ______ ____
ROOT
ATOM      1  C   UNL     1       5.201   4.244 -19.987  0.00  0.00    +0.000 C 
ATOM      2  H   UNL     1       5.681   4.732 -20.845  0.00  0.00    +0.000 HD
ATOM      3  H   UNL     1       5.685   3.266 -19.868  0.00  0.00    +0.000 HD
ENDROOT
BRANCH   1   4
ATOM      4  C   UNL     1       3.715   4.039 -20.285  0.00  0.00    +0.000 C 
ATOM      5  H   UNL     1       3.462   4.524 -21.236  0.00  0.00    +0.000 HD
ATOM      6  H   UNL     1       3.115   4.524 -19.505  0.00  0.00    +0.000 HD
BRANCH   4   7
ATOM      7  C   UNL     1       3.362   2.552 -20.354  0.00  0.00    +0.000 C 
ATOM      8  H   UNL     1       3.774   2.118 -21.274  0.00  0.00    +0.000 HD
ATOM      9  H   UNL     1       3.824   2.023 -19.511  0.00  0.00    +0.000 HD
BRANCH   7  10
ATOM     10  C   UNL     1       1.846   2.337 -20.320  0.00  0.00    +0.000 C 
ATOM     11  H   UNL     1       1.611   1.366 -19.866  0.00  0.00    +0.000 HD
ATOM     12  H   UNL     1       1.377   3.091 -19.674  0.00  0.00    +0.000 HD
BRANCH  10  13
ATOM     13  C   UNL     1       1.223   2.407 -21.708  0.00  0.00    +0.000 C 
ATOM     14  H   UNL     1       0.163   2.135 -21.683  0.00  0.00    +0.000 HD
ATOM     15  H   UNL     1       1.307   3.418 -22.122  0.00  0.00    +0.000 HD
BRANCH  13  16
ATOM     16  O   UNL     1       1.895   1.516 -22.587  0.00  0.00    +0.000 OA
ATOM     17  H   UNL     1       1.232   0.902 -22.945  0.00  0.00    +0.000 HD
ENDBRANCH  13  16
ENDBRANCH  10  13
ENDBRANCH   7  10
ENDBRANCH   4   7
ENDBRANCH   1   4
BRANCH   1  18
ATOM     18  C   UNL     1       5.462   5.080 -18.730  0.00  0.00    +0.000 C 
ATOM     19  H   UNL     1       5.761   6.091 -19.035  0.00  0.00    +0.000 HD
ATOM     20  H   UNL     1       4.516   5.190 -18.184  0.00  0.00    +0.000 HD
BRANCH  18  21
ATOM     21  C   UNL     1       6.518   4.529 -17.767  0.00  0.00    +0.000 C 
ATOM     22  H   UNL     1       6.014   4.001 -16.947  0.00  0.00    +0.000 HD
ATOM     23  H   UNL     1       7.056   5.373 -17.316  0.00  0.00    +0.000 HD
BRANCH  21  24
ATOM     24  C   UNL     1       7.522   3.591 -18.436  0.00  0.00    +0.000 C 
ATOM     25  H   UNL     1       7.618   2.670 -17.848  0.00  0.00    +0.000 HD
ATOM     26  H   UNL     1       7.158   3.305 -19.430  0.00  0.00    +0.000 HD
BRANCH  24  27
ATOM     27  C   UNL     1       8.887   4.247 -18.577  0.00  0.00    +0.000 C 
ATOM     28  H   UNL     1       9.676   3.548 -18.285  0.00  0.00    +0.000 HD
ATOM     29  H   UNL     1       9.070   4.553 -19.611  0.00  0.00    +0.000 HD
ATOM     30  H   UNL     1       8.964   5.133 -17.938  0.00  0.00    +0.000 HD
ENDBRANCH  24  27
ENDBRANCH  21  24
ENDBRANCH  18  21
ENDBRANCH   1  18
TORSDOF 9
ENDMDL
MODEL 2
REMARK VINA RESULT:    -4.178     31.177     32.365
REMARK INTER + INTRA:          -6.415
REMARK INTER:                  -6.115
REMARK INTRA:                  -0.301
REMARK UNBOUND:                -0.283
REMARK  Name = 8914
REMARK  9 active torsions:
REMARK  status: ('A' for Active; 'I' for Inactive)
REMARK    1  A    between atoms: O_1  and  C_9
REMARK    2  A    between atoms: C_2  and  C_3
REMARK    3  A    between atoms: C_2  and  C_4
REMARK    4  A    between atoms: C_3  and  C_5
REMARK    5  A    between atoms: C_4  and  C_6
REMARK    6  A    between atoms: C_5  and  C_7
REMARK    7  A    between atoms: C_6  and  C_8
REMARK    8  A    between atoms: C_7  and  C_9
REMARK    9  A    between atoms: C_8  and  C_10
REMARK                            x       y       z     vdW  Elec       q    Type
REMARK                         _______ _______ _______ _____ _____    ______ ____
ROOT
ATOM      1  C   UNL     1      -6.471 -12.836   4.501  0.00  0.00    +0.000 C 
ATOM      2  H   UNL     1      -5.733 -13.247   5.202  0.00  0.00    +0.000 HD
ATOM      3  H   UNL     1      -6.333 -11.747   4.500  0.00  0.00    +0.000 HD
ENDROOT
BRANCH   1   4
ATOM      4  C   UNL     1      -7.881 -13.166   4.995  0.00  0.00    +0.000 C 
ATOM      5  H   UNL     1      -8.260 -14.045   4.460  0.00  0.00    +0.000 HD
ATOM      6  H   UNL     1      -8.553 -12.332   4.765  0.00  0.00    +0.000 HD
BRANCH   4   7
ATOM      7  C   UNL     1      -7.892 -13.434   6.502  0.00  0.00    +0.000 C 
ATOM      8  H   UNL     1      -6.955 -13.075   6.946  0.00  0.00    +0.000 HD
ATOM      9  H   UNL     1      -8.709 -12.873   6.971  0.00  0.00    +0.000 HD
BRANCH   7  10
ATOM     10  C   UNL     1      -8.062 -14.926   6.800  0.00  0.00    +0.000 C 
ATOM     11  H   UNL     1      -7.081 -15.409   6.889  0.00  0.00    +0.000 HD
ATOM     12  H   UNL     1      -8.550 -15.058   7.775  0.00  0.00    +0.000 HD
BRANCH  10  13
ATOM     13  C   UNL     1      -8.878 -15.639   5.729  0.00  0.00    +0.000 C 
ATOM     14  H   UNL     1      -9.926 -15.740   6.028  0.00  0.00    +0.000 HD
ATOM     15  H   UNL     1      -8.843 -15.087   4.784  0.00  0.00    +0.000 HD
BRANCH  13  16
ATOM     16  O   UNL     1      -8.348 -16.937   5.500  0.00  0.00    +0.000 OA
ATOM     17  H   UNL     1      -8.995 -17.427   4.965  0.00  0.00    +0.000 HD
ENDBRANCH  13  16
ENDBRANCH  10  13
ENDBRANCH   7  10
ENDBRANCH   4   7
ENDBRANCH   1   4
BRANCH   1  18
ATOM     18  C   UNL     1      -6.174 -13.372   3.097  0.00  0.00    +0.000 C 
ATOM     19  H   UNL     1      -5.533 -12.651   2.574  0.00  0.00    +0.000 HD
ATOM     20  H   UNL     1      -5.585 -14.293   3.196  0.00  0.00    +0.000 HD
BRANCH  18  21
ATOM     21  C   UNL     1      -7.395 -13.667   2.221  0.00  0.00    +0.000 C 
ATOM     22  H   UNL     1      -8.194 -12.958   2.471  0.00  0.00    +0.000 HD
ATOM     23  H   UNL     1      -7.772 -14.668   2.469  0.00  0.00    +0.000 HD
BRANCH  21  24
ATOM     24  C   UNL     1      -7.101 -13.597   0.723  0.00  0.00    +0.000 C 
ATOM     25  H   UNL     1      -7.828 -12.938   0.233  0.00  0.00    +0.000 HD
ATOM     26  H   UNL     1      -6.108 -13.163   0.559  0.00  0.00    +0.000 HD
BRANCH  24  27
ATOM     27  C   UNL     1      -7.153 -14.975   0.082  0.00  0.00    +0.000 C 
ATOM     28  H   UNL     1      -6.572 -15.690   0.673  0.00  0.00    +0.000 HD
ATOM     29  H   UNL     1      -8.182 -15.342   0.023  0.00  0.00    +0.000 HD
ATOM     30  H   UNL     1      -6.736 -14.953  -0.930  0.00  0.00    +0.000 HD
ENDBRANCH  24  27
ENDBRANCH  21  24
ENDBRANCH  18  21
ENDBRANCH   1  18
TORSDOF 9
ENDMDL
MODEL 3
REMARK VINA RESULT:    -4.171     45.473     46.748
REMARK INTER + INTRA:          -6.405
REMARK INTER:                  -6.115
REMARK INTRA:                  -0.290
REMARK UNBOUND:                -0.283
REMARK  Name = 8914
REMARK  9 active torsions:
REMARK  status: ('A' for Active; 'I' for Inactive)
REMARK    1  A    between atoms: O_1  and  C_9
REMARK    2  A    between atoms: C_2  and  C_3
REMARK    3  A    between atoms: C_2  and  C_4
REMARK    4  A    between atoms: C_3  and  C_5
REMARK    5  A    between atoms: C_4  and  C_6
REMARK    6  A    between atoms: C_5  and  C_7
REMARK    7  A    between atoms: C_6  and  C_8
REMARK    8  A    between atoms: C_7  and  C_9
REMARK    9  A    between atoms: C_8  and  C_10
REMARK                            x       y       z     vdW  Elec       q    Type
REMARK                         _______ _______ _______ _____ _____    ______ ____
ROOT
ATOM      1  C   UNL     1      -3.867   4.601  24.700  0.00  0.00    +0.000 C 
ATOM      2  H   UNL     1      -3.621   4.976  23.698  0.00  0.00    +0.000 HD
ATOM      3  H   UNL     1      -3.628   3.530  24.703  0.00  0.00    +0.000 HD
ENDROOT
BRANCH   1   4
ATOM      4  C   UNL     1      -5.363   4.787  24.958  0.00  0.00    +0.000 C 
ATOM      5  H   UNL     1      -5.936   4.168  24.257  0.00  0.00    +0.000 HD
ATOM      6  H   UNL     1      -5.639   5.831  24.769  0.00  0.00    +0.000 HD
BRANCH   4   7
ATOM      7  C   UNL     1      -5.728   4.412  26.396  0.00  0.00    +0.000 C 
ATOM      8  H   UNL     1      -6.238   3.440  26.404  0.00  0.00    +0.000 HD
ATOM      9  H   UNL     1      -4.815   4.303  26.994  0.00  0.00    +0.000 HD
BRANCH   7  10
ATOM     10  C   UNL     1      -6.632   5.470  27.035  0.00  0.00    +0.000 C 
ATOM     11  H   UNL     1      -6.380   6.466  26.648  0.00  0.00    +0.000 HD
ATOM     12  H   UNL     1      -7.676   5.293  26.746  0.00  0.00    +0.000 HD
BRANCH  10  13
ATOM     13  C   UNL     1      -6.525   5.479  28.554  0.00  0.00    +0.000 C 
ATOM     14  H   UNL     1      -5.972   4.607  28.920  0.00  0.00    +0.000 HD
ATOM     15  H   UNL     1      -6.011   6.381  28.902  0.00  0.00    +0.000 HD
BRANCH  13  16
ATOM     16  O   UNL     1      -7.823   5.462  29.131  0.00  0.00    +0.000 OA
ATOM     17  H   UNL     1      -8.178   4.562  29.028  0.00  0.00    +0.000 HD
ENDBRANCH  13  16
ENDBRANCH  10  13
ENDBRANCH   7  10
ENDBRANCH   4   7
ENDBRANCH   1   4
BRANCH   1  18
ATOM     18  C   UNL     1      -2.976   5.309  25.727  0.00  0.00    +0.000 C 
ATOM     19  H   UNL     1      -3.617   5.852  26.432  0.00  0.00    +0.000 HD
ATOM     20  H   UNL     1      -2.451   4.545  26.313  0.00  0.00    +0.000 HD
BRANCH  18  21
ATOM     21  C   UNL     1      -1.941   6.282  25.156  0.00  0.00    +0.000 C 
ATOM     22  H   UNL     1      -0.966   6.079  25.618  0.00  0.00    +0.000 HD
ATOM     23  H   UNL     1      -2.221   7.303  25.448  0.00  0.00    +0.000 HD
BRANCH  21  24
ATOM     24  C   UNL     1      -1.810   6.211  23.636  0.00  0.00    +0.000 C 
ATOM     25  H   UNL     1      -1.600   5.179  23.330  0.00  0.00    +0.000 HD
ATOM     26  H   UNL     1      -2.757   6.502  23.167  0.00  0.00    +0.000 HD
BRANCH  24  27
ATOM     27  C   UNL     1      -0.705   7.125  23.130  0.00  0.00    +0.000 C 
ATOM     28  H   UNL     1      -0.742   7.198  22.039  0.00  0.00    +0.000 HD
ATOM     29  H   UNL     1      -0.810   8.134  23.541  0.00  0.00    +0.000 HD
ATOM     30  H   UNL     1       0.281   6.741  23.411  0.00  0.00    +0.000 HD
ENDBRANCH  24  27
ENDBRANCH  21  24
ENDBRANCH  18  21
ENDBRANCH   1  18
TORSDOF 9
ENDMDL
MODEL 4
REMARK VINA RESULT:    -4.134     31.238     32.433
REMARK INTER + INTRA:          -6.351
REMARK INTER:                  -5.880
REMARK INTRA:                  -0.470
REMARK UNBOUND:                -0.283
REMARK  Name = 8914
REMARK  9 active torsions:
REMARK  status: ('A' for Active; 'I' for Inactive)
REMARK    1  A    between atoms: O_1  and  C_9
REMARK    2  A    between atoms: C_2  and  C_3
REMARK    3  A    between atoms: C_2  and  C_4
REMARK    4  A    between atoms: C_3  and  C_5
REMARK    5  A    between atoms: C_4  and  C_6
REMARK    6  A    between atoms: C_5  and  C_7
REMARK    7  A    between atoms: C_6  and  C_8
REMARK    8  A    between atoms: C_7  and  C_9
REMARK    9  A    between atoms: C_8  and  C_10
REMARK                            x       y       z     vdW  Elec       q    Type
REMARK                         _______ _______ _______ _____ _____    ______ ____
ROOT
ATOM      1  C   UNL     1      -7.689 -13.063   4.926  0.00  0.00    +0.000 C 
ATOM      2  H   UNL     1      -8.234 -13.791   4.311  0.00  0.00    +0.000 HD
ATOM      3  H   UNL     1      -8.169 -12.090   4.763  0.00  0.00    +0.000 HD
ENDROOT
BRANCH   1   4
ATOM      4  C   UNL     1      -6.234 -12.994   4.459  0.00  0.00    +0.000 C 
ATOM      5  H   UNL     1      -5.652 -13.781   4.954  0.00  0.00    +0.000 HD
ATOM      6  H   UNL     1      -5.799 -12.033   4.759  0.00  0.00    +0.000 HD
BRANCH   4   7
ATOM      7  C   UNL     1      -6.130 -13.152   2.940  0.00  0.00    +0.000 C 
ATOM      8  H   UNL     1      -5.953 -12.172   2.480  0.00  0.00    +0.000 HD
ATOM      9  H   UNL     1      -5.270 -13.786   2.692  0.00  0.00    +0.000 HD
BRANCH   7  10
ATOM     10  C   UNL     1      -7.404 -13.770   2.357  0.00  0.00    +0.000 C 
ATOM     11  H   UNL     1      -8.111 -14.010   3.161  0.00  0.00    +0.000 HD
ATOM     12  H   UNL     1      -7.915 -13.039   1.718  0.00  0.00    +0.000 HD
BRANCH  10  13
ATOM     13  C   UNL     1      -7.116 -15.029   1.550  0.00  0.00    +0.000 C 
ATOM     14  H   UNL     1      -6.084 -15.368   1.694  0.00  0.00    +0.000 HD
ATOM     15  H   UNL     1      -7.788 -15.842   1.844  0.00  0.00    +0.000 HD
BRANCH  13  16
ATOM     16  O   UNL     1      -7.315 -14.774   0.166  0.00  0.00    +0.000 OA
ATOM     17  H   UNL     1      -7.366 -13.810   0.051  0.00  0.00    +0.000 HD
ENDBRANCH  13  16
ENDBRANCH  10  13
ENDBRANCH   7  10
ENDBRANCH   4   7
ENDBRANCH   1   4
BRANCH   1  18
ATOM     18  C   UNL     1      -7.840 -13.447   6.401  0.00  0.00    +0.000 C 
ATOM     19  H   UNL     1      -6.904 -13.212   6.923  0.00  0.00    +0.000 HD
ATOM     20  H   UNL     1      -8.611 -12.807   6.848  0.00  0.00    +0.000 HD
BRANCH  18  21
ATOM     21  C   UNL     1      -8.201 -14.909   6.678  0.00  0.00    +0.000 C 
ATOM     22  H   UNL     1      -9.060 -14.943   7.361  0.00  0.00    +0.000 HD
ATOM     23  H   UNL     1      -7.362 -15.384   7.203  0.00  0.00    +0.000 HD
BRANCH  21  24
ATOM     24  C   UNL     1      -8.522 -15.707   5.416  0.00  0.00    +0.000 C 
ATOM     25  H   UNL     1      -8.728 -15.021   4.586  0.00  0.00    +0.000 HD
ATOM     26  H   UNL     1      -7.656 -16.314   5.128  0.00  0.00    +0.000 HD
BRANCH  24  27
ATOM     27  C   UNL     1      -9.720 -16.621   5.626  0.00  0.00    +0.000 C 
ATOM     28  H   UNL     1      -9.618 -17.527   5.021  0.00  0.00    +0.000 HD
ATOM     29  H   UNL     1      -9.805 -16.922   6.675  0.00  0.00    +0.000 HD
ATOM     30  H   UNL     1     -10.650 -16.122   5.335  0.00  0.00    +0.000 HD
ENDBRANCH  24  27
ENDBRANCH  21  24
ENDBRANCH  18  21
ENDBRANCH   1  18
TORSDOF 9
ENDMDL
MODEL 5
REMARK VINA RESULT:    -4.118     22.822     23.886
REMARK INTER + INTRA:          -6.326
REMARK INTER:                  -5.909
REMARK INTRA:                  -0.417
REMARK UNBOUND:                -0.283
REMARK  Name = 8914
REMARK  9 active torsions:
REMARK  status: ('A' for Active; 'I' for Inactive)
REMARK    1  A    between atoms: O_1  and  C_9
REMARK    2  A    between atoms: C_2  and  C_3
REMARK    3  A    between atoms: C_2  and  C_4
REMARK    4  A    between atoms: C_3  and  C_5
REMARK    5  A    between atoms: C_4  and  C_6
REMARK    6  A    between atoms: C_5  and  C_7
REMARK    7  A    between atoms: C_6  and  C_8
REMARK    8  A    between atoms: C_7  and  C_9
REMARK    9  A    between atoms: C_8  and  C_10
REMARK                            x       y       z     vdW  Elec       q    Type
REMARK                         _______ _______ _______ _____ _____    ______ ____
ROOT
ATOM      1  C   UNL     1      17.037  -4.947  -3.084  0.00  0.00    +0.000 C 
ATOM      2  H   UNL     1      17.960  -5.066  -2.501  0.00  0.00    +0.000 HD
ATOM      3  H   UNL     1      17.123  -3.994  -3.621  0.00  0.00    +0.000 HD
ENDROOT
BRANCH   1   4
ATOM      4  C   UNL     1      15.840  -4.885  -2.132  0.00  0.00    +0.000 C 
ATOM      5  H   UNL     1      15.013  -4.353  -2.618  0.00  0.00    +0.000 HD
ATOM      6  H   UNL     1      16.114  -4.311  -1.239  0.00  0.00    +0.000 HD
BRANCH   4   7
ATOM      7  C   UNL     1      15.384  -6.287  -1.722  0.00  0.00    +0.000 C 
ATOM      8  H   UNL     1      14.319  -6.265  -1.461  0.00  0.00    +0.000 HD
ATOM      9  H   UNL     1      15.495  -6.975  -2.570  0.00  0.00    +0.000 HD
BRANCH   7  10
ATOM     10  C   UNL     1      16.193  -6.809  -0.532  0.00  0.00    +0.000 C 
ATOM     11  H   UNL     1      16.605  -7.801  -0.760  0.00  0.00    +0.000 HD
ATOM     12  H   UNL     1      17.060  -6.159  -0.356  0.00  0.00    +0.000 HD
BRANCH  10  13
ATOM     13  C   UNL     1      15.360  -6.892   0.740  0.00  0.00    +0.000 C 
ATOM     14  H   UNL     1      14.312  -7.119   0.516  0.00  0.00    +0.000 HD
ATOM     15  H   UNL     1      15.744  -7.670   1.407  0.00  0.00    +0.000 HD
BRANCH  13  16
ATOM     16  O   UNL     1      15.413  -5.653   1.435  0.00  0.00    +0.000 OA
ATOM     17  H   UNL     1      14.562  -5.537   1.891  0.00  0.00    +0.000 HD
ENDBRANCH  13  16
ENDBRANCH  10  13
ENDBRANCH   7  10
ENDBRANCH   4   7
ENDBRANCH   1   4
BRANCH   1  18
ATOM     18  C   UNL     1      16.946  -6.084  -4.107  0.00  0.00    +0.000 C 
ATOM     19  H   UNL     1      16.454  -6.944  -3.634  0.00  0.00    +0.000 HD
ATOM     20  H   UNL     1      16.287  -5.763  -4.923  0.00  0.00    +0.000 HD
BRANCH  18  21
ATOM     21  C   UNL     1      18.275  -6.551  -4.708  0.00  0.00    +0.000 C 
ATOM     22  H   UNL     1      18.442  -6.026  -5.657  0.00  0.00    +0.000 HD
ATOM     23  H   UNL     1      18.196  -7.619  -4.947  0.00  0.00    +0.000 HD
BRANCH  21  24
ATOM     24  C   UNL     1      19.472  -6.328  -3.785  0.00  0.00    +0.000 C 
ATOM     25  H   UNL     1      19.138  -5.863  -2.850  0.00  0.00    +0.000 HD
ATOM     26  H   UNL     1      19.925  -7.292  -3.525  0.00  0.00    +0.000 HD
BRANCH  24  27
ATOM     27  C   UNL     1      20.523  -5.446  -4.442  0.00  0.00    +0.000 C 
ATOM     28  H   UNL     1      20.064  -4.528  -4.821  0.00  0.00    +0.000 HD
ATOM     29  H   UNL     1      21.304  -5.166  -3.728  0.00  0.00    +0.000 HD
ATOM     30  H   UNL     1      20.997  -5.961  -5.284  0.00  0.00    +0.000 HD
ENDBRANCH  24  27
ENDBRANCH  21  24
ENDBRANCH  18  21
ENDBRANCH   1  18
TORSDOF 9
ENDMDL
MODEL 6
REMARK VINA RESULT:    -4.102     45.791     47.081
REMARK INTER + INTRA:          -6.303
REMARK INTER:                  -5.907
REMARK INTRA:                  -0.395
REMARK UNBOUND:                -0.283
REMARK  Name = 8914
REMARK  9 active torsions:
REMARK  status: ('A' for Active; 'I' for Inactive)
REMARK    1  A    between atoms: O_1  and  C_9
REMARK    2  A    between atoms: C_2  and  C_3
REMARK    3  A    between atoms: C_2  and  C_4
REMARK    4  A    between atoms: C_3  and  C_5
REMARK    5  A    between atoms: C_4  and  C_6
REMARK    6  A    between atoms: C_5  and  C_7
REMARK    7  A    between atoms: C_6  and  C_8
REMARK    8  A    between atoms: C_7  and  C_9
REMARK    9  A    between atoms: C_8  and  C_10
REMARK                            x       y       z     vdW  Elec       q    Type
REMARK                         _______ _______ _______ _____ _____    ______ ____
ROOT
ATOM      1  C   UNL     1      -5.038   4.874  24.568  0.00  0.00    +0.000 C 
ATOM      2  H   UNL     1      -5.112   5.948  24.350  0.00  0.00    +0.000 HD
ATOM      3  H   UNL     1      -5.413   4.346  23.682  0.00  0.00    +0.000 HD
ENDROOT
BRANCH   1   4
ATOM      4  C   UNL     1      -5.923   4.538  25.769  0.00  0.00    +0.000 C 
ATOM      5  H   UNL     1      -6.250   3.493  25.702  0.00  0.00    +0.000 HD
ATOM      6  H   UNL     1      -6.824   5.162  25.745  0.00  0.00    +0.000 HD
BRANCH   4   7
ATOM      7  C   UNL     1      -5.178   4.762  27.087  0.00  0.00    +0.000 C 
ATOM      8  H   UNL     1      -4.142   4.414  26.988  0.00  0.00    +0.000 HD
ATOM      9  H   UNL     1      -5.138   5.835  27.312  0.00  0.00    +0.000 HD
BRANCH   7  10
ATOM     10  C   UNL     1      -5.858   4.024  28.244  0.00  0.00    +0.000 C 
ATOM     11  H   UNL     1      -5.992   4.700  29.098  0.00  0.00    +0.000 HD
ATOM     12  H   UNL     1      -6.869   3.716  27.946  0.00  0.00    +0.000 HD
BRANCH  10  13
ATOM     13  C   UNL     1      -5.069   2.800  28.690  0.00  0.00    +0.000 C 
ATOM     14  H   UNL     1      -4.810   2.859  29.752  0.00  0.00    +0.000 HD
ATOM     15  H   UNL     1      -5.648   1.885  28.529  0.00  0.00    +0.000 HD
BRANCH  13  16
ATOM     16  O   UNL     1      -3.868   2.698  27.938  0.00  0.00    +0.000 OA
ATOM     17  H   UNL     1      -3.932   3.323  27.197  0.00  0.00    +0.000 HD
ENDBRANCH  13  16
ENDBRANCH  10  13
ENDBRANCH   7  10
ENDBRANCH   4   7
ENDBRANCH   1   4
BRANCH   1  18
ATOM     18  C   UNL     1      -3.564   4.511  24.772  0.00  0.00    +0.000 C 
ATOM     19  H   UNL     1      -3.427   4.166  25.805  0.00  0.00    +0.000 HD
ATOM     20  H   UNL     1      -3.326   3.655  24.128  0.00  0.00    +0.000 HD
BRANCH  18  21
ATOM     21  C   UNL     1      -2.554   5.627  24.491  0.00  0.00    +0.000 C 
ATOM     22  H   UNL     1      -3.007   6.356  23.807  0.00  0.00    +0.000 HD
ATOM     23  H   UNL     1      -1.691   5.196  23.967  0.00  0.00    +0.000 HD
BRANCH  21  24
ATOM     24  C   UNL     1      -2.071   6.343  25.752  0.00  0.00    +0.000 C 
ATOM     25  H   UNL     1      -2.703   7.218  25.947  0.00  0.00    +0.000 HD
ATOM     26  H   UNL     1      -2.164   5.676  26.617  0.00  0.00    +0.000 HD
BRANCH  24  27
ATOM     27  C   UNL     1      -0.621   6.784  25.619  0.00  0.00    +0.000 C 
ATOM     28  H   UNL     1      -0.431   7.657  26.251  0.00  0.00    +0.000 HD
ATOM     29  H   UNL     1       0.062   5.986  25.927  0.00  0.00    +0.000 HD
ATOM     30  H   UNL     1      -0.387   7.056  24.584  0.00  0.00    +0.000 HD
ENDBRANCH  24  27
ENDBRANCH  21  24
ENDBRANCH  18  21
ENDBRANCH   1  18
TORSDOF 9
ENDMDL
MODEL 7
REMARK VINA RESULT:    -4.094     18.269     19.788
REMARK INTER + INTRA:          -6.292
REMARK INTER:                  -5.697
REMARK INTRA:                  -0.594
REMARK UNBOUND:                -0.283
REMARK  Name = 8914
REMARK  9 active torsions:
REMARK  status: ('A' for Active; 'I' for Inactive)
REMARK    1  A    between atoms: O_1  and  C_9
REMARK    2  A    between atoms: C_2  and  C_3
REMARK    3  A    between atoms: C_2  and  C_4
REMARK    4  A    between atoms: C_3  and  C_5
REMARK    5  A    between atoms: C_4  and  C_6
REMARK    6  A    between atoms: C_5  and  C_7
REMARK    7  A    between atoms: C_6  and  C_8
REMARK    8  A    between atoms: C_7  and  C_9
REMARK    9  A    between atoms: C_8  and  C_10
REMARK                            x       y       z     vdW  Elec       q    Type
REMARK                         _______ _______ _______ _____ _____    ______ ____
ROOT
ATOM      1  C   UNL     1      12.853  16.775 -11.325  0.00  0.00    +0.000 C 
ATOM      2  H   UNL     1      12.132  15.948 -11.283  0.00  0.00    +0.000 HD
ATOM      3  H   UNL     1      13.324  16.833 -10.335  0.00  0.00    +0.000 HD
ENDROOT
BRANCH   1   4
ATOM      4  C   UNL     1      12.110  18.082 -11.608  0.00  0.00    +0.000 C 
ATOM      5  H   UNL     1      11.099  17.859 -11.970  0.00  0.00    +0.000 HD
ATOM      6  H   UNL     1      12.626  18.630 -12.406  0.00  0.00    +0.000 HD
BRANCH   4   7
ATOM      7  C   UNL     1      12.028  18.957 -10.355  0.00  0.00    +0.000 C 
ATOM      8  H   UNL     1      11.190  18.626  -9.729  0.00  0.00    +0.000 HD
ATOM      9  H   UNL     1      12.943  18.839  -9.761  0.00  0.00    +0.000 HD
BRANCH   7  10
ATOM     10  C   UNL     1      11.845  20.433 -10.719  0.00  0.00    +0.000 C 
ATOM     11  H   UNL     1      12.737  21.007 -10.438  0.00  0.00    +0.000 HD
ATOM     12  H   UNL     1      11.750  20.541 -11.807  0.00  0.00    +0.000 HD
BRANCH  10  13
ATOM     13  C   UNL     1      10.623  21.045 -10.045  0.00  0.00    +0.000 C 
ATOM     14  H   UNL     1      10.900  21.892  -9.409  0.00  0.00    +0.000 HD
ATOM     15  H   UNL     1       9.904  21.398 -10.791  0.00  0.00    +0.000 HD
BRANCH  13  16
ATOM     16  O   UNL     1       9.976  20.071  -9.238  0.00  0.00    +0.000 OA
ATOM     17  H   UNL     1      10.559  19.882  -8.484  0.00  0.00    +0.000 HD
ENDBRANCH  13  16
ENDBRANCH  10  13
ENDBRANCH   7  10
ENDBRANCH   4   7
ENDBRANCH   1   4
BRANCH   1  18
ATOM     18  C   UNL     1      13.928  16.445 -12.365  0.00  0.00    +0.000 C 
ATOM     19  H   UNL     1      14.250  15.406 -12.220  0.00  0.00    +0.000 HD
ATOM     20  H   UNL     1      13.470  16.488 -13.361  0.00  0.00    +0.000 HD
BRANCH  18  21
ATOM     21  C   UNL     1      15.165  17.346 -12.358  0.00  0.00    +0.000 C 
ATOM     22  H   UNL     1      14.905  18.314 -12.806  0.00  0.00    +0.000 HD
ATOM     23  H   UNL     1      15.931  16.896 -13.004  0.00  0.00    +0.000 HD
BRANCH  21  24
ATOM     24  C   UNL     1      15.749  17.569 -10.964  0.00  0.00    +0.000 C 
ATOM     25  H   UNL     1      15.149  17.031 -10.220  0.00  0.00    +0.000 HD
ATOM     26  H   UNL     1      16.765  17.163 -10.917  0.00  0.00    +0.000 HD
BRANCH  24  27
ATOM     27  C   UNL     1      15.788  19.048 -10.609  0.00  0.00    +0.000 C 
ATOM     28  H   UNL     1      15.440  19.650 -11.454  0.00  0.00    +0.000 HD
ATOM     29  H   UNL     1      15.143  19.263  -9.751  0.00  0.00    +0.000 HD
ATOM     30  H   UNL     1      16.806  19.365 -10.362  0.00  0.00    +0.000 HD
ENDBRANCH  24  27
ENDBRANCH  21  24
ENDBRANCH  18  21
ENDBRANCH   1  18
TORSDOF 9
ENDMDL
MODEL 8
REMARK VINA RESULT:    -4.089     22.538     23.498
REMARK INTER + INTRA:          -6.283
REMARK INTER:                  -5.713
REMARK INTRA:                  -0.571
REMARK UNBOUND:                -0.283
REMARK  Name = 8914
REMARK  9 active torsions:
REMARK  status: ('A' for Active; 'I' for Inactive)
REMARK    1  A    between atoms: O_1  and  C_9
REMARK    2  A    between atoms: C_2  and  C_3
REMARK    3  A    between atoms: C_2  and  C_4
REMARK    4  A    between atoms: C_3  and  C_5
REMARK    5  A    between atoms: C_4  and  C_6
REMARK    6  A    between atoms: C_5  and  C_7
REMARK    7  A    between atoms: C_6  and  C_8
REMARK    8  A    between atoms: C_7  and  C_9
REMARK    9  A    between atoms: C_8  and  C_10
REMARK                            x       y       z     vdW  Elec       q    Type
REMARK                         _______ _______ _______ _____ _____    ______ ____
ROOT
ATOM      1  C   UNL     1      18.128  -3.494  -1.737  0.00  0.00    +0.000 C 
ATOM      2  H   UNL     1      17.699  -2.483  -1.724  0.00  0.00    +0.000 HD
ATOM      3  H   UNL     1      18.907  -3.516  -0.965  0.00  0.00    +0.000 HD
ENDROOT
BRANCH   1   4
ATOM      4  C   UNL     1      18.762  -3.760  -3.103  0.00  0.00    +0.000 C 
ATOM      5  H   UNL     1      19.333  -2.879  -3.420  0.00  0.00    +0.000 HD
ATOM      6  H   UNL     1      17.972  -3.918  -3.847  0.00  0.00    +0.000 HD
BRANCH   4   7
ATOM      7  C   UNL     1      19.680  -4.983  -3.060  0.00  0.00    +0.000 C 
ATOM      8  H   UNL     1      20.714  -4.661  -2.886  0.00  0.00    +0.000 HD
ATOM      9  H   UNL     1      19.396  -5.630  -2.221  0.00  0.00    +0.000 HD
BRANCH   7  10
ATOM     10  C   UNL     1      19.604  -5.781  -4.365  0.00  0.00    +0.000 C 
ATOM     11  H   UNL     1      19.447  -5.105  -5.214  0.00  0.00    +0.000 HD
ATOM     12  H   UNL     1      20.564  -6.280  -4.553  0.00  0.00    +0.000 HD
BRANCH  10  13
ATOM     13  C   UNL     1      18.493  -6.823  -4.340  0.00  0.00    +0.000 C 
ATOM     14  H   UNL     1      18.899  -7.839  -4.377  0.00  0.00    +0.000 HD
ATOM     15  H   UNL     1      17.891  -6.727  -3.431  0.00  0.00    +0.000 HD
BRANCH  13  16
ATOM     16  O   UNL     1      17.634  -6.641  -5.457  0.00  0.00    +0.000 OA
ATOM     17  H   UNL     1      17.339  -7.521  -5.745  0.00  0.00    +0.000 HD
ENDBRANCH  13  16
ENDBRANCH  10  13
ENDBRANCH   7  10
ENDBRANCH   4   7
ENDBRANCH   1   4
BRANCH   1  18
ATOM     18  C   UNL     1      17.035  -4.500  -1.363  0.00  0.00    +0.000 C 
ATOM     19  H   UNL     1      17.511  -5.447  -1.077  0.00  0.00    +0.000 HD
ATOM     20  H   UNL     1      16.517  -4.133  -0.468  0.00  0.00    +0.000 HD
BRANCH  18  21
ATOM     21  C   UNL     1      15.990  -4.787  -2.446  0.00  0.00    +0.000 C 
ATOM     22  H   UNL     1      16.449  -4.642  -3.432  0.00  0.00    +0.000 HD
ATOM     23  H   UNL     1      15.185  -4.045  -2.361  0.00  0.00    +0.000 HD
BRANCH  21  24
ATOM     24  C   UNL     1      15.394  -6.191  -2.361  0.00  0.00    +0.000 C 
ATOM     25  H   UNL     1      14.369  -6.183  -2.750  0.00  0.00    +0.000 HD
ATOM     26  H   UNL     1      15.974  -6.879  -2.986  0.00  0.00    +0.000 HD
BRANCH  24  27
ATOM     27  C   UNL     1      15.388  -6.705  -0.929  0.00  0.00    +0.000 C 
ATOM     28  H   UNL     1      16.010  -6.067  -0.294  0.00  0.00    +0.000 HD
ATOM     29  H   UNL     1      14.374  -6.708  -0.517  0.00  0.00    +0.000 HD
ATOM     30  H   UNL     1      15.784  -7.725  -0.877  0.00  0.00    +0.000 HD
ENDBRANCH  24  27
ENDBRANCH  21  24
ENDBRANCH  18  21
ENDBRANCH   1  18
TORSDOF 9
ENDMDL
MODEL 9
REMARK VINA RESULT:    -4.087     44.463     45.805
REMARK INTER + INTRA:          -6.281
REMARK INTER:                  -5.998
REMARK INTRA:                  -0.283
REMARK UNBOUND:                -0.283
REMARK  Name = 8914
REMARK  9 active torsions:
REMARK  status: ('A' for Active; 'I' for Inactive)
REMARK    1  A    between atoms: O_1  and  C_9
REMARK    2  A    between atoms: C_2  and  C_3
REMARK    3  A    between atoms: C_2  and  C_4
REMARK    4  A    between atoms: C_3  and  C_5
REMARK    5  A    between atoms: C_4  and  C_6
REMARK    6  A    between atoms: C_5  and  C_7
REMARK    7  A    between atoms: C_6  and  C_8
REMARK    8  A    between atoms: C_7  and  C_9
REMARK    9  A    between atoms: C_8  and  C_10
REMARK                            x       y       z     vdW  Elec       q    Type
REMARK                         _______ _______ _______ _____ _____    ______ ____
ROOT
ATOM      1  C   UNL     1      -2.101   6.157  25.470  0.00  0.00    +0.000 C 
ATOM      2  H   UNL     1      -1.066   5.877  25.706  0.00  0.00    +0.000 HD
ATOM      3  H   UNL     1      -2.258   7.161  25.882  0.00  0.00    +0.000 HD
ENDROOT
BRANCH   1   4
ATOM      4  C   UNL     1      -3.059   5.176  26.148  0.00  0.00    +0.000 C 
ATOM      5  H   UNL     1      -3.494   5.646  27.039  0.00  0.00    +0.000 HD
ATOM      6  H   UNL     1      -2.501   4.295  26.486  0.00  0.00    +0.000 HD
BRANCH   4   7
ATOM      7  C   UNL     1      -4.176   4.742  25.196  0.00  0.00    +0.000 C 
ATOM      8  H   UNL     1      -4.234   5.443  24.354  0.00  0.00    +0.000 HD
ATOM      9  H   UNL     1      -3.944   3.754  24.780  0.00  0.00    +0.000 HD
BRANCH   7  10
ATOM     10  C   UNL     1      -5.528   4.689  25.913  0.00  0.00    +0.000 C 
ATOM     11  H   UNL     1      -5.984   5.687  25.936  0.00  0.00    +0.000 HD
ATOM     12  H   UNL     1      -6.224   4.055  25.348  0.00  0.00    +0.000 HD
BRANCH  10  13
ATOM     13  C   UNL     1      -5.406   4.158  27.335  0.00  0.00    +0.000 C 
ATOM     14  H   UNL     1      -4.736   3.293  27.382  0.00  0.00    +0.000 HD
ATOM     15  H   UNL     1      -5.015   4.931  28.006  0.00  0.00    +0.000 HD
BRANCH  13  16
ATOM     16  O   UNL     1      -6.683   3.764  27.817  0.00  0.00    +0.000 OA
ATOM     17  H   UNL     1      -6.548   3.307  28.664  0.00  0.00    +0.000 HD
ENDBRANCH  13  16
ENDBRANCH  10  13
ENDBRANCH   7  10
ENDBRANCH   4   7
ENDBRANCH   1   4
BRANCH   1  18
ATOM     18  C   UNL     1      -2.264   6.216  23.947  0.00  0.00    +0.000 C 
ATOM     19  H   UNL     1      -2.526   5.215  23.582  0.00  0.00    +0.000 HD
ATOM     20  H   UNL     1      -3.120   6.862  23.716  0.00  0.00    +0.000 HD
BRANCH  18  21
ATOM     21  C   UNL     1      -1.049   6.720  23.163  0.00  0.00    +0.000 C 
ATOM     22  H   UNL     1      -0.652   5.900  22.552  0.00  0.00    +0.000 HD
ATOM     23  H   UNL     1      -0.260   6.992  23.877  0.00  0.00    +0.000 HD
BRANCH  21  24
ATOM     24  C   UNL     1      -1.356   7.920  22.269  0.00  0.00    +0.000 C 
ATOM     25  H   UNL     1      -0.441   8.246  21.759  0.00  0.00    +0.000 HD
ATOM     26  H   UNL     1      -2.075   7.632  21.494  0.00  0.00    +0.000 HD
BRANCH  24  27
ATOM     27  C   UNL     1      -1.928   9.079  23.072  0.00  0.00    +0.000 C 
ATOM     28  H   UNL     1      -2.305   9.856  22.400  0.00  0.00    +0.000 HD
ATOM     29  H   UNL     1      -2.756   8.746  23.705  0.00  0.00    +0.000 HD
ATOM     30  H   UNL     1      -1.162   9.527  23.714  0.00  0.00    +0.000 HD
ENDBRANCH  24  27
ENDBRANCH  21  24
ENDBRANCH  18  21
ENDBRANCH   1  18
TORSDOF 9
ENDMDL
MODEL 10
REMARK VINA RESULT:    -4.027      2.881      4.329
REMARK INTER + INTRA:          -6.193
REMARK INTER:                  -5.459
REMARK INTRA:                  -0.734
REMARK UNBOUND:                -0.283
REMARK  Name = 8914
REMARK  9 active torsions:
REMARK  status: ('A' for Active; 'I' for Inactive)
REMARK    1  A    between atoms: O_1  and  C_9
REMARK    2  A    between atoms: C_2  and  C_3
REMARK    3  A    between atoms: C_2  and  C_4
REMARK    4  A    between atoms: C_3  and  C_5
REMARK    5  A    between atoms: C_4  and  C_6
REMARK    6  A    between atoms: C_5  and  C_7
REMARK    7  A    between atoms: C_6  and  C_8
REMARK    8  A    between atoms: C_7  and  C_9
REMARK    9  A    between atoms: C_8  and  C_10
REMARK                            x       y       z     vdW  Elec       q    Type
REMARK                         _______ _______ _______ _____ _____    ______ ____
ROOT
ATOM      1  C   UNL     1       4.113   3.744 -20.327  0.00  0.00    +0.000 C 
ATOM      2  H   UNL     1       4.855   4.019 -21.088  0.00  0.00    +0.000 HD
ATOM      3  H   UNL     1       4.673   3.402 -19.448  0.00  0.00    +0.000 HD
ENDROOT
BRANCH   1   4
ATOM      4  C   UNL     1       3.247   2.598 -20.854  0.00  0.00    +0.000 C 
ATOM      5  H   UNL     1       3.779   1.647 -20.724  0.00  0.00    +0.000 HD
ATOM      6  H   UNL     1       3.081   2.731 -21.929  0.00  0.00    +0.000 HD
BRANCH   4   7
ATOM      7  C   UNL     1       1.901   2.540 -20.128  0.00  0.00    +0.000 C 
ATOM      8  H   UNL     1       1.902   1.704 -19.418  0.00  0.00    +0.000 HD
ATOM      9  H   UNL     1       1.754   3.459 -19.548  0.00  0.00    +0.000 HD
BRANCH   7  10
ATOM     10  C   UNL     1       0.744   2.372 -21.117  0.00  0.00    +0.000 C 
ATOM     11  H   UNL     1       0.972   2.886 -22.059  0.00  0.00    +0.000 HD
ATOM     12  H   UNL     1       0.626   1.312 -21.376  0.00  0.00    +0.000 HD
BRANCH  10  13
ATOM     13  C   UNL     1      -0.571   2.902 -20.560  0.00  0.00    +0.000 C 
ATOM     14  H   UNL     1      -0.880   3.820 -21.072  0.00  0.00    +0.000 HD
ATOM     15  H   UNL     1      -1.369   2.161 -20.676  0.00  0.00    +0.000 HD
BRANCH  13  16
ATOM     16  O   UNL     1      -0.432   3.185 -19.175  0.00  0.00    +0.000 OA
ATOM     17  H   UNL     1       0.310   3.805 -19.076  0.00  0.00    +0.000 HD
ENDBRANCH  13  16
ENDBRANCH  10  13
ENDBRANCH   7  10
ENDBRANCH   4   7
ENDBRANCH   1   4
BRANCH   1  18
ATOM     18  C   UNL     1       3.309   4.991 -19.945  0.00  0.00    +0.000 C 
ATOM     19  H   UNL     1       2.398   4.675 -19.421  0.00  0.00    +0.000 HD
ATOM     20  H   UNL     1       3.894   5.572 -19.221  0.00  0.00    +0.000 HD
BRANCH  18  21
ATOM     21  C   UNL     1       2.913   5.913 -21.102  0.00  0.00    +0.000 C 
ATOM     22  H   UNL     1       3.228   5.455 -22.048  0.00  0.00    +0.000 HD
ATOM     23  H   UNL     1       3.470   6.855 -21.006  0.00  0.00    +0.000 HD
BRANCH  21  24
ATOM     24  C   UNL     1       1.417   6.216 -21.155  0.00  0.00    +0.000 C 
ATOM     25  H   UNL     1       1.241   7.113 -21.761  0.00  0.00    +0.000 HD
ATOM     26  H   UNL     1       0.887   5.388 -21.640  0.00  0.00    +0.000 HD
BRANCH  24  27
ATOM     27  C   UNL     1       0.842   6.424 -19.762  0.00  0.00    +0.000 C 
ATOM     28  H   UNL     1       1.429   5.869 -19.023  0.00  0.00    +0.000 HD
ATOM     29  H   UNL     1       0.861   7.482 -19.484  0.00  0.00    +0.000 HD
ATOM     30  H   UNL     1      -0.193   6.072 -19.707  0.00  0.00    +0.000 HD
ENDBRANCH  24  27
ENDBRANCH  21  24
ENDBRANCH  18  21
ENDBRANCH   1  18
TORSDOF 9
ENDMDL
