MODEL 1
REMARK VINA RESULT:    -4.781      0.000      0.000
REMARK INTER + INTRA:          -7.018
REMARK INTER:                  -6.907
REMARK INTRA:                  -0.112
REMARK UNBOUND:                -0.561
REMARK  Name = 18827
REMARK  7 active torsions:
REMARK  status: ('A' for Active; 'I' for Inactive)
REMARK    1  A    between atoms: O_1  and  C_6
REMARK    2  A    between atoms: C_2  and  C_3
REMARK    3  A    between atoms: C_2  and  C_4
REMARK    4  A    between atoms: C_3  and  C_5
REMARK    5  A    between atoms: C_4  and  C_6
REMARK    6  A    between atoms: C_5  and  C_7
REMARK    7  A    between atoms: C_6  and  C_8
REMARK                            x       y       z     vdW  Elec       q    Type
REMARK                         _______ _______ _______ _____ _____    ______ ____
ROOT
ATOM      1  C   UNL     1       5.100  -4.884 -11.219  0.00  0.00    +0.000 C 
ATOM      2  H   UNL     1       5.580  -4.033 -10.721  0.00  0.00    +0.000 HD
ATOM      3  H   UNL     1       5.803  -5.256 -11.975  0.00  0.00    +0.000 HD
ENDROOT
BRANCH   1   4
ATOM      4  C   UNL     1       4.824  -5.986 -10.193  0.00  0.00    +0.000 C 
ATOM      5  H   UNL     1       4.088  -6.692 -10.598  0.00  0.00    +0.000 HD
ATOM      6  H   UNL     1       4.384  -5.545  -9.291  0.00  0.00    +0.000 HD
BRANCH   4   7
ATOM      7  C   UNL     1       6.103  -6.740  -9.827  0.00  0.00    +0.000 C 
ATOM      8  H   UNL     1       5.854  -7.748  -9.477  0.00  0.00    +0.000 HD
ATOM      9  H   UNL     1       6.736  -6.851 -10.716  0.00  0.00    +0.000 HD
BRANCH   7  10
ATOM     10  C   UNL     1       6.887  -6.013  -8.746  0.00  0.00    +0.000 C 
ATOM     11  H   UNL     1       6.360  -5.114  -8.416  0.00  0.00    +0.000 HD
ATOM     12  H   UNL     1       7.046  -6.659  -7.877  0.00  0.00    +0.000 HD
ATOM     13  H   UNL     1       7.868  -5.711  -9.129  0.00  0.00    +0.000 HD
ENDBRANCH   7  10
ENDBRANCH   4   7
ENDBRANCH   1   4
BRANCH   1  14
ATOM     14  C   UNL     1       3.809  -4.430 -11.905  0.00  0.00    +0.000 C 
ATOM     15  H   UNL     1       3.851  -3.339 -12.028  0.00  0.00    +0.000 HD
ATOM     16  H   UNL     1       2.957  -4.646 -11.249  0.00  0.00    +0.000 HD
BRANCH  14  17
ATOM     17  C   UNL     1       3.570  -5.085 -13.273  0.00  0.00    +0.000 C 
ATOM     18  H   UNL     1       3.852  -6.144 -13.207  0.00  0.00    +0.000 HD
BRANCH  17  19
ATOM     19  C   UNL     1       2.142  -4.971 -13.740  0.00  0.00    +0.000 C 
ATOM     20  C   UNL     1       1.550  -5.714 -14.684  0.00  0.00    +0.000 C 
ATOM     21  H   UNL     1       1.545  -4.196 -13.264  0.00  0.00    +0.000 HD
ATOM     22  H   UNL     1       0.513  -5.543 -14.949  0.00  0.00    +0.000 HD
ATOM     23  H   UNL     1       2.089  -6.499 -15.203  0.00  0.00    +0.000 HD
ENDBRANCH  17  19
BRANCH  17  24
ATOM     24  O   UNL     1       4.457  -4.481 -14.215  0.00  0.00    +0.000 OA
ATOM     25  H   UNL     1       5.120  -3.977 -13.715  0.00  0.00    +0.000 HD
ENDBRANCH  17  24
ENDBRANCH  14  17
ENDBRANCH   1  14
TORSDOF 7
ENDMDL
MODEL 2
REMARK VINA RESULT:    -4.699      4.126      5.380
REMARK INTER + INTRA:          -6.908
REMARK INTER:                  -6.712
REMARK INTRA:                  -0.195
REMARK UNBOUND:                -0.561
REMARK  Name = 18827
REMARK  7 active torsions:
REMARK  status: ('A' for Active; 'I' for Inactive)
REMARK    1  A    between atoms: O_1  and  C_6
REMARK    2  A    between atoms: C_2  and  C_3
REMARK    3  A    between atoms: C_2  and  C_4
REMARK    4  A    between atoms: C_3  and  C_5
REMARK    5  A    between atoms: C_4  and  C_6
REMARK    6  A    between atoms: C_5  and  C_7
REMARK    7  A    between atoms: C_6  and  C_8
REMARK                            x       y       z     vdW  Elec       q    Type
REMARK                         _______ _______ _______ _____ _____    ______ ____
ROOT
ATOM      1  C   UNL     1       3.738  -7.026  -8.030  0.00  0.00    +0.000 C 
ATOM      2  H   UNL     1       3.244  -7.921  -7.631  0.00  0.00    +0.000 HD
ATOM      3  H   UNL     1       4.234  -6.528  -7.188  0.00  0.00    +0.000 HD
ENDROOT
BRANCH   1   4
ATOM      4  C   UNL     1       4.785  -7.440  -9.067  0.00  0.00    +0.000 C 
ATOM      5  H   UNL     1       4.286  -7.874  -9.943  0.00  0.00    +0.000 HD
ATOM      6  H   UNL     1       5.430  -8.220  -8.645  0.00  0.00    +0.000 HD
BRANCH   4   7
ATOM      7  C   UNL     1       5.636  -6.248  -9.505  0.00  0.00    +0.000 C 
ATOM      8  H   UNL     1       5.888  -6.341 -10.568  0.00  0.00    +0.000 HD
ATOM      9  H   UNL     1       5.066  -5.320  -9.385  0.00  0.00    +0.000 HD
BRANCH   7  10
ATOM     10  C   UNL     1       6.918  -6.152  -8.693  0.00  0.00    +0.000 C 
ATOM     11  H   UNL     1       7.604  -6.967  -8.943  0.00  0.00    +0.000 HD
ATOM     12  H   UNL     1       7.430  -5.202  -8.880  0.00  0.00    +0.000 HD
ATOM     13  H   UNL     1       6.694  -6.212  -7.623  0.00  0.00    +0.000 HD
ENDBRANCH   7  10
ENDBRANCH   4   7
ENDBRANCH   1   4
BRANCH   1  14
ATOM     14  C   UNL     1       2.698  -6.082  -8.639  0.00  0.00    +0.000 C 
ATOM     15  H   UNL     1       2.412  -6.476  -9.624  0.00  0.00    +0.000 HD
ATOM     16  H   UNL     1       3.158  -5.100  -8.807  0.00  0.00    +0.000 HD
BRANCH  14  17
ATOM     17  C   UNL     1       1.439  -5.908  -7.777  0.00  0.00    +0.000 C 
ATOM     18  H   UNL     1       1.040  -6.902  -7.538  0.00  0.00    +0.000 HD
BRANCH  17  19
ATOM     19  C   UNL     1       1.698  -5.147  -6.503  0.00  0.00    +0.000 C 
ATOM     20  C   UNL     1       1.299  -5.493  -5.272  0.00  0.00    +0.000 C 
ATOM     21  H   UNL     1       2.256  -4.219  -6.606  0.00  0.00    +0.000 HD
ATOM     22  H   UNL     1       1.535  -4.866  -4.420  0.00  0.00    +0.000 HD
ATOM     23  H   UNL     1       0.734  -6.402  -5.098  0.00  0.00    +0.000 HD
ENDBRANCH  17  19
BRANCH  17  24
ATOM     24  O   UNL     1       0.450  -5.246  -8.566  0.00  0.00    +0.000 OA
ATOM     25  H   UNL     1      -0.181  -5.918  -8.872  0.00  0.00    +0.000 HD
ENDBRANCH  17  24
ENDBRANCH  14  17
ENDBRANCH   1  14
TORSDOF 7
ENDMDL
MODEL 3
REMARK VINA RESULT:    -4.077     21.101     21.983
REMARK INTER + INTRA:          -6.067
REMARK INTER:                  -5.736
REMARK INTRA:                  -0.331
REMARK UNBOUND:                -0.561
REMARK  Name = 18827
REMARK  7 active torsions:
REMARK  status: ('A' for Active; 'I' for Inactive)
REMARK    1  A    between atoms: O_1  and  C_6
REMARK    2  A    between atoms: C_2  and  C_3
REMARK    3  A    between atoms: C_2  and  C_4
REMARK    4  A    between atoms: C_3  and  C_5
REMARK    5  A    between atoms: C_4  and  C_6
REMARK    6  A    between atoms: C_5  and  C_7
REMARK    7  A    between atoms: C_6  and  C_8
REMARK                            x       y       z     vdW  Elec       q    Type
REMARK                         _______ _______ _______ _____ _____    ______ ____
ROOT
ATOM      1  C   UNL     1      -8.193 -13.105   5.192  0.00  0.00    +0.000 C 
ATOM      2  H   UNL     1      -8.803 -13.897   4.742  0.00  0.00    +0.000 HD
ATOM      3  H   UNL     1      -8.809 -12.198   5.222  0.00  0.00    +0.000 HD
ENDROOT
BRANCH   1   4
ATOM      4  C   UNL     1      -7.804 -13.506   6.617  0.00  0.00    +0.000 C 
ATOM      5  H   UNL     1      -8.392 -12.925   7.338  0.00  0.00    +0.000 HD
ATOM      6  H   UNL     1      -6.749 -13.263   6.791  0.00  0.00    +0.000 HD
BRANCH   4   7
ATOM      7  C   UNL     1      -8.035 -14.999   6.857  0.00  0.00    +0.000 C 
ATOM      8  H   UNL     1      -7.083 -15.538   6.798  0.00  0.00    +0.000 HD
ATOM      9  H   UNL     1      -8.435 -15.155   7.866  0.00  0.00    +0.000 HD
BRANCH   7  10
ATOM     10  C   UNL     1      -9.005 -15.582   5.842  0.00  0.00    +0.000 C 
ATOM     11  H   UNL     1     -10.042 -15.411   6.146  0.00  0.00    +0.000 HD
ATOM     12  H   UNL     1      -8.857 -15.133   4.855  0.00  0.00    +0.000 HD
ATOM     13  H   UNL     1      -8.851 -16.663   5.750  0.00  0.00    +0.000 HD
ENDBRANCH   7  10
ENDBRANCH   4   7
ENDBRANCH   1   4
BRANCH   1  14
ATOM     14  C   UNL     1      -6.953 -12.848   4.331  0.00  0.00    +0.000 C 
ATOM     15  H   UNL     1      -6.172 -12.417   4.973  0.00  0.00    +0.000 HD
ATOM     16  H   UNL     1      -7.193 -12.096   3.569  0.00  0.00    +0.000 HD
BRANCH  14  17
ATOM     17  C   UNL     1      -6.405 -14.106   3.641  0.00  0.00    +0.000 C 
ATOM     18  H   UNL     1      -6.537 -14.960   4.318  0.00  0.00    +0.000 HD
BRANCH  17  19
ATOM     19  C   UNL     1      -7.078 -14.397   2.324  0.00  0.00    +0.000 C 
ATOM     20  C   UNL     1      -7.206 -13.554   1.291  0.00  0.00    +0.000 C 
ATOM     21  H   UNL     1      -7.509 -15.389   2.217  0.00  0.00    +0.000 HD
ATOM     22  H   UNL     1      -7.716 -13.864   0.388  0.00  0.00    +0.000 HD
ATOM     23  H   UNL     1      -6.805 -12.547   1.333  0.00  0.00    +0.000 HD
ENDBRANCH  17  19
BRANCH  17  24
ATOM     24  O   UNL     1      -4.999 -13.937   3.461  0.00  0.00    +0.000 OA
ATOM     25  H   UNL     1      -4.802 -14.087   2.521  0.00  0.00    +0.000 HD
ENDBRANCH  17  24
ENDBRANCH  14  17
ENDBRANCH   1  14
TORSDOF 7
ENDMDL
MODEL 4
REMARK VINA RESULT:    -3.900     22.167     23.191
REMARK INTER + INTRA:          -5.829
REMARK INTER:                  -5.465
REMARK INTRA:                  -0.363
REMARK UNBOUND:                -0.561
REMARK  Name = 18827
REMARK  7 active torsions:
REMARK  status: ('A' for Active; 'I' for Inactive)
REMARK    1  A    between atoms: O_1  and  C_6
REMARK    2  A    between atoms: C_2  and  C_3
REMARK    3  A    between atoms: C_2  and  C_4
REMARK    4  A    between atoms: C_3  and  C_5
REMARK    5  A    between atoms: C_4  and  C_6
REMARK    6  A    between atoms: C_5  and  C_7
REMARK    7  A    between atoms: C_6  and  C_8
REMARK                            x       y       z     vdW  Elec       q    Type
REMARK                         _______ _______ _______ _____ _____    ______ ____
ROOT
ATOM      1  C   UNL     1      -8.204 -13.099   5.144  0.00  0.00    +0.000 C 
ATOM      2  H   UNL     1      -8.587 -12.078   5.258  0.00  0.00    +0.000 HD
ATOM      3  H   UNL     1      -9.037 -13.721   4.794  0.00  0.00    +0.000 HD
ENDROOT
BRANCH   1   4
ATOM      4  C   UNL     1      -7.085 -13.111   4.098  0.00  0.00    +0.000 C 
ATOM      5  H   UNL     1      -6.125 -13.320   4.587  0.00  0.00    +0.000 HD
ATOM      6  H   UNL     1      -7.003 -12.118   3.639  0.00  0.00    +0.000 HD
BRANCH   4   7
ATOM      7  C   UNL     1      -7.345 -14.159   3.017  0.00  0.00    +0.000 C 
ATOM      8  H   UNL     1      -6.679 -15.017   3.162  0.00  0.00    +0.000 HD
ATOM      9  H   UNL     1      -8.374 -14.529   3.097  0.00  0.00    +0.000 HD
BRANCH   7  10
ATOM     10  C   UNL     1      -7.130 -13.588   1.624  0.00  0.00    +0.000 C 
ATOM     11  H   UNL     1      -6.118 -13.797   1.266  0.00  0.00    +0.000 HD
ATOM     12  H   UNL     1      -7.843 -14.013   0.911  0.00  0.00    +0.000 HD
ATOM     13  H   UNL     1      -7.269 -12.501   1.636  0.00  0.00    +0.000 HD
ENDBRANCH   7  10
ENDBRANCH   4   7
ENDBRANCH   1   4
BRANCH   1  14
ATOM     14  C   UNL     1      -7.707 -13.626   6.493  0.00  0.00    +0.000 C 
ATOM     15  H   UNL     1      -8.195 -13.047   7.288  0.00  0.00    +0.000 HD
ATOM     16  H   UNL     1      -6.628 -13.441   6.577  0.00  0.00    +0.000 HD
BRANCH  14  17
ATOM     17  C   UNL     1      -7.979 -15.121   6.712  0.00  0.00    +0.000 C 
ATOM     18  H   UNL     1      -8.194 -15.284   7.776  0.00  0.00    +0.000 HD
BRANCH  17  19
ATOM     19  C   UNL     1      -9.123 -15.640   5.880  0.00  0.00    +0.000 C 
ATOM     20  C   UNL     1      -9.622 -16.883   5.897  0.00  0.00    +0.000 C 
ATOM     21  H   UNL     1      -9.574 -14.929   5.192  0.00  0.00    +0.000 HD
ATOM     22  H   UNL     1     -10.447 -17.154   5.249  0.00  0.00    +0.000 HD
ATOM     23  H   UNL     1      -9.216 -17.644   6.554  0.00  0.00    +0.000 HD
ENDBRANCH  17  19
BRANCH  17  24
ATOM     24  O   UNL     1      -6.779 -15.838   6.420  0.00  0.00    +0.000 OA
ATOM     25  H   UNL     1      -6.824 -16.122   5.492  0.00  0.00    +0.000 HD
ENDBRANCH  17  24
ENDBRANCH  14  17
ENDBRANCH   1  14
TORSDOF 7
ENDMDL
MODEL 5
REMARK VINA RESULT:    -3.799     18.103     19.020
REMARK INTER + INTRA:          -5.692
REMARK INTER:                  -5.449
REMARK INTRA:                  -0.244
REMARK UNBOUND:                -0.561
REMARK  Name = 18827
REMARK  7 active torsions:
REMARK  status: ('A' for Active; 'I' for Inactive)
REMARK    1  A    between atoms: O_1  and  C_6
REMARK    2  A    between atoms: C_2  and  C_3
REMARK    3  A    between atoms: C_2  and  C_4
REMARK    4  A    between atoms: C_3  and  C_5
REMARK    5  A    between atoms: C_4  and  C_6
REMARK    6  A    between atoms: C_5  and  C_7
REMARK    7  A    between atoms: C_6  and  C_8
REMARK                            x       y       z     vdW  Elec       q    Type
REMARK                         _______ _______ _______ _____ _____    ______ ____
ROOT
ATOM      1  C   UNL     1      14.783   5.504  -1.477  0.00  0.00    +0.000 C 
ATOM      2  H   UNL     1      13.935   4.814  -1.580  0.00  0.00    +0.000 HD
ATOM      3  H   UNL     1      14.466   6.309  -0.803  0.00  0.00    +0.000 HD
ENDROOT
BRANCH   1   4
ATOM      4  C   UNL     1      15.972   4.762  -0.863  0.00  0.00    +0.000 C 
ATOM      5  H   UNL     1      16.794   5.467  -0.683  0.00  0.00    +0.000 HD
ATOM      6  H   UNL     1      16.342   4.012  -1.572  0.00  0.00    +0.000 HD
BRANCH   4   7
ATOM      7  C   UNL     1      15.587   4.084   0.452  0.00  0.00    +0.000 C 
ATOM      8  H   UNL     1      16.458   3.571   0.876  0.00  0.00    +0.000 HD
ATOM      9  H   UNL     1      15.267   4.838   1.180  0.00  0.00    +0.000 HD
BRANCH   7  10
ATOM     10  C   UNL     1      14.464   3.079   0.251  0.00  0.00    +0.000 C 
ATOM     11  H   UNL     1      13.703   3.471  -0.430  0.00  0.00    +0.000 HD
ATOM     12  H   UNL     1      14.846   2.141  -0.164  0.00  0.00    +0.000 HD
ATOM     13  H   UNL     1      13.981   2.854   1.208  0.00  0.00    +0.000 HD
ENDBRANCH   7  10
ENDBRANCH   4   7
ENDBRANCH   1   4
BRANCH   1  14
ATOM     14  C   UNL     1      15.143   6.095  -2.843  0.00  0.00    +0.000 C 
ATOM     15  H   UNL     1      14.712   5.451  -3.621  0.00  0.00    +0.000 HD
ATOM     16  H   UNL     1      16.233   6.068  -2.971  0.00  0.00    +0.000 HD
BRANCH  14  17
ATOM     17  C   UNL     1      14.648   7.535  -3.045  0.00  0.00    +0.000 C 
ATOM     18  H   UNL     1      13.956   7.783  -2.230  0.00  0.00    +0.000 HD
BRANCH  17  19
ATOM     19  C   UNL     1      15.767   8.543  -3.081  0.00  0.00    +0.000 C 
ATOM     20  C   UNL     1      17.075   8.289  -2.940  0.00  0.00    +0.000 C 
ATOM     21  H   UNL     1      15.471   9.580  -3.227  0.00  0.00    +0.000 HD
ATOM     22  H   UNL     1      17.799   9.094  -2.977  0.00  0.00    +0.000 HD
ATOM     23  H   UNL     1      17.438   7.280  -2.786  0.00  0.00    +0.000 HD
ENDBRANCH  17  19
BRANCH  17  24
ATOM     24  O   UNL     1      13.893   7.578  -4.256  0.00  0.00    +0.000 OA
ATOM     25  H   UNL     1      14.292   8.254  -4.828  0.00  0.00    +0.000 HD
ENDBRANCH  17  24
ENDBRANCH  14  17
ENDBRANCH   1  14
TORSDOF 7
ENDMDL
MODEL 6
REMARK VINA RESULT:    -3.756     12.477     13.754
REMARK INTER + INTRA:          -5.634
REMARK INTER:                  -5.161
REMARK INTRA:                  -0.473
REMARK UNBOUND:                -0.561
REMARK  Name = 18827
REMARK  7 active torsions:
REMARK  status: ('A' for Active; 'I' for Inactive)
REMARK    1  A    between atoms: O_1  and  C_6
REMARK    2  A    between atoms: C_2  and  C_3
REMARK    3  A    between atoms: C_2  and  C_4
REMARK    4  A    between atoms: C_3  and  C_5
REMARK    5  A    between atoms: C_4  and  C_6
REMARK    6  A    between atoms: C_5  and  C_7
REMARK    7  A    between atoms: C_6  and  C_8
REMARK                            x       y       z     vdW  Elec       q    Type
REMARK                         _______ _______ _______ _____ _____    ______ ____
ROOT
ATOM      1  C   UNL     1       0.417   2.965 -19.993  0.00  0.00    +0.000 C 
ATOM      2  H   UNL     1       0.912   1.996 -20.131  0.00  0.00    +0.000 HD
ATOM      3  H   UNL     1       0.152   3.045 -18.931  0.00  0.00    +0.000 HD
ENDROOT
BRANCH   1   4
ATOM      4  C   UNL     1       1.387   4.090 -20.362  0.00  0.00    +0.000 C 
ATOM      5  H   UNL     1       1.865   3.865 -21.324  0.00  0.00    +0.000 HD
ATOM      6  H   UNL     1       2.185   4.147 -19.611  0.00  0.00    +0.000 HD
BRANCH   4   7
ATOM      7  C   UNL     1       0.668   5.437 -20.455  0.00  0.00    +0.000 C 
ATOM      8  H   UNL     1       1.115   6.043 -21.251  0.00  0.00    +0.000 HD
ATOM      9  H   UNL     1      -0.384   5.279 -20.717  0.00  0.00    +0.000 HD
BRANCH   7  10
ATOM     10  C   UNL     1       0.744   6.199 -19.142  0.00  0.00    +0.000 C 
ATOM     11  H   UNL     1       1.238   5.603 -18.369  0.00  0.00    +0.000 HD
ATOM     12  H   UNL     1       1.300   7.135 -19.263  0.00  0.00    +0.000 HD
ATOM     13  H   UNL     1      -0.263   6.446 -18.789  0.00  0.00    +0.000 HD
ENDBRANCH   7  10
ENDBRANCH   4   7
ENDBRANCH   1   4
BRANCH   1  14
ATOM     14  C   UNL     1      -0.855   3.030 -20.841  0.00  0.00    +0.000 C 
ATOM     15  H   UNL     1      -0.922   4.033 -21.284  0.00  0.00    +0.000 HD
ATOM     16  H   UNL     1      -1.730   2.908 -20.190  0.00  0.00    +0.000 HD
BRANCH  14  17
ATOM     17  C   UNL     1      -0.909   1.977 -21.958  0.00  0.00    +0.000 C 
ATOM     18  H   UNL     1      -1.883   1.473 -21.916  0.00  0.00    +0.000 HD
BRANCH  17  19
ATOM     19  C   UNL     1      -0.703   2.564 -23.331  0.00  0.00    +0.000 C 
ATOM     20  C   UNL     1      -0.449   3.846 -23.621  0.00  0.00    +0.000 C 
ATOM     21  H   UNL     1      -0.782   1.868 -24.164  0.00  0.00    +0.000 HD
ATOM     22  H   UNL     1      -0.324   4.164 -24.649  0.00  0.00    +0.000 HD
ATOM     23  H   UNL     1      -0.365   4.593 -22.839  0.00  0.00    +0.000 HD
ENDBRANCH  17  19
BRANCH  17  24
ATOM     24  O   UNL     1       0.080   0.986 -21.682  0.00  0.00    +0.000 OA
ATOM     25  H   UNL     1       0.214   0.468 -22.493  0.00  0.00    +0.000 HD
ENDBRANCH  17  24
ENDBRANCH  14  17
ENDBRANCH   1  14
TORSDOF 7
ENDMDL
MODEL 7
REMARK VINA RESULT:    -3.657     12.062     12.963
REMARK INTER + INTRA:          -5.500
REMARK INTER:                  -4.980
REMARK INTRA:                  -0.520
REMARK UNBOUND:                -0.561
REMARK  Name = 18827
REMARK  7 active torsions:
REMARK  status: ('A' for Active; 'I' for Inactive)
REMARK    1  A    between atoms: O_1  and  C_6
REMARK    2  A    between atoms: C_2  and  C_3
REMARK    3  A    between atoms: C_2  and  C_4
REMARK    4  A    between atoms: C_3  and  C_5
REMARK    5  A    between atoms: C_4  and  C_6
REMARK    6  A    between atoms: C_5  and  C_7
REMARK    7  A    between atoms: C_6  and  C_8
REMARK                            x       y       z     vdW  Elec       q    Type
REMARK                         _______ _______ _______ _____ _____    ______ ____
ROOT
ATOM      1  C   UNL     1       1.814   2.539 -21.476  0.00  0.00    +0.000 C 
ATOM      2  H   UNL     1       2.182   2.933 -22.431  0.00  0.00    +0.000 HD
ATOM      3  H   UNL     1       1.529   1.493 -21.644  0.00  0.00    +0.000 HD
ENDROOT
BRANCH   1   4
ATOM      4  C   UNL     1       2.932   2.603 -20.433  0.00  0.00    +0.000 C 
ATOM      5  H   UNL     1       3.342   1.598 -20.268  0.00  0.00    +0.000 HD
ATOM      6  H   UNL     1       2.521   2.944 -19.475  0.00  0.00    +0.000 HD
BRANCH   4   7
ATOM      7  C   UNL     1       4.054   3.542 -20.876  0.00  0.00    +0.000 C 
ATOM      8  H   UNL     1       4.716   3.025 -21.580  0.00  0.00    +0.000 HD
ATOM      9  H   UNL     1       3.630   4.405 -21.403  0.00  0.00    +0.000 HD
BRANCH   7  10
ATOM     10  C   UNL     1       4.869   4.034 -19.691  0.00  0.00    +0.000 C 
ATOM     11  H   UNL     1       5.357   4.986 -19.917  0.00  0.00    +0.000 HD
ATOM     12  H   UNL     1       4.235   4.173 -18.810  0.00  0.00    +0.000 HD
ATOM     13  H   UNL     1       5.647   3.305 -19.438  0.00  0.00    +0.000 HD
ENDBRANCH   7  10
ENDBRANCH   4   7
ENDBRANCH   1   4
BRANCH   1  14
ATOM     14  C   UNL     1       0.586   3.333 -21.021  0.00  0.00    +0.000 C 
ATOM     15  H   UNL     1      -0.285   2.665 -21.049  0.00  0.00    +0.000 HD
ATOM     16  H   UNL     1       0.394   4.142 -21.737  0.00  0.00    +0.000 HD
BRANCH  14  17
ATOM     17  C   UNL     1       0.722   3.931 -19.612  0.00  0.00    +0.000 C 
ATOM     18  H   UNL     1       1.661   3.574 -19.171  0.00  0.00    +0.000 HD
BRANCH  17  19
ATOM     19  C   UNL     1       0.700   5.437 -19.606  0.00  0.00    +0.000 C 
ATOM     20  C   UNL     1       1.764   6.251 -19.645  0.00  0.00    +0.000 C 
ATOM     21  H   UNL     1      -0.283   5.900 -19.554  0.00  0.00    +0.000 HD
ATOM     22  H   UNL     1       1.635   7.326 -19.630  0.00  0.00    +0.000 HD
ATOM     23  H   UNL     1       2.772   5.856 -19.691  0.00  0.00    +0.000 HD
ENDBRANCH  17  19
BRANCH  17  24
ATOM     24  O   UNL     1      -0.335   3.410 -18.806  0.00  0.00    +0.000 OA
ATOM     25  H   UNL     1      -0.729   2.661 -19.284  0.00  0.00    +0.000 HD
ENDBRANCH  17  24
ENDBRANCH  14  17
ENDBRANCH   1  14
TORSDOF 7
ENDMDL
MODEL 8
REMARK VINA RESULT:    -3.599     20.884     21.970
REMARK INTER + INTRA:          -5.422
REMARK INTER:                  -4.886
REMARK INTRA:                  -0.536
REMARK UNBOUND:                -0.561
REMARK  Name = 18827
REMARK  7 active torsions:
REMARK  status: ('A' for Active; 'I' for Inactive)
REMARK    1  A    between atoms: O_1  and  C_6
REMARK    2  A    between atoms: C_2  and  C_3
REMARK    3  A    between atoms: C_2  and  C_4
REMARK    4  A    between atoms: C_3  and  C_5
REMARK    5  A    between atoms: C_4  and  C_6
REMARK    6  A    between atoms: C_5  and  C_7
REMARK    7  A    between atoms: C_6  and  C_8
REMARK                            x       y       z     vdW  Elec       q    Type
REMARK                         _______ _______ _______ _____ _____    ______ ____
ROOT
ATOM      1  C   UNL     1      -7.517 -13.246   4.157  0.00  0.00    +0.000 C 
ATOM      2  H   UNL     1      -7.743 -14.237   3.745  0.00  0.00    +0.000 HD
ATOM      3  H   UNL     1      -7.911 -12.504   3.451  0.00  0.00    +0.000 HD
ENDROOT
BRANCH   1   4
ATOM      4  C   UNL     1      -8.215 -13.084   5.510  0.00  0.00    +0.000 C 
ATOM      5  H   UNL     1      -9.299 -13.004   5.360  0.00  0.00    +0.000 HD
ATOM      6  H   UNL     1      -7.885 -12.151   5.983  0.00  0.00    +0.000 HD
BRANCH   4   7
ATOM      7  C   UNL     1      -7.917 -14.265   6.434  0.00  0.00    +0.000 C 
ATOM      8  H   UNL     1      -6.848 -14.504   6.400  0.00  0.00    +0.000 HD
ATOM      9  H   UNL     1      -8.157 -13.997   7.470  0.00  0.00    +0.000 HD
BRANCH   7  10
ATOM     10  C   UNL     1      -8.718 -15.496   6.041  0.00  0.00    +0.000 C 
ATOM     11  H   UNL     1      -8.059 -16.346   5.841  0.00  0.00    +0.000 HD
ATOM     12  H   UNL     1      -9.415 -15.780   6.835  0.00  0.00    +0.000 HD
ATOM     13  H   UNL     1      -9.299 -15.295   5.134  0.00  0.00    +0.000 HD
ENDBRANCH   7  10
ENDBRANCH   4   7
ENDBRANCH   1   4
BRANCH   1  14
ATOM     14  C   UNL     1      -6.002 -13.067   4.290  0.00  0.00    +0.000 C 
ATOM     15  H   UNL     1      -5.731 -13.209   5.345  0.00  0.00    +0.000 HD
ATOM     16  H   UNL     1      -5.737 -12.036   4.025  0.00  0.00    +0.000 HD
BRANCH  14  17
ATOM     17  C   UNL     1      -5.186 -14.036   3.422  0.00  0.00    +0.000 C 
ATOM     18  H   UNL     1      -4.154 -13.666   3.362  0.00  0.00    +0.000 HD
BRANCH  17  19
ATOM     19  C   UNL     1      -5.188 -15.447   3.951  0.00  0.00    +0.000 C 
ATOM     20  C   UNL     1      -4.781 -15.844   5.164  0.00  0.00    +0.000 C 
ATOM     21  H   UNL     1      -5.547 -16.212   3.268  0.00  0.00    +0.000 HD
ATOM     22  H   UNL     1      -4.819 -16.890   5.442  0.00  0.00    +0.000 HD
ATOM     23  H   UNL     1      -4.406 -15.134   5.892  0.00  0.00    +0.000 HD
ENDBRANCH  17  19
BRANCH  17  24
ATOM     24  O   UNL     1      -5.715 -13.996   2.096  0.00  0.00    +0.000 OA
ATOM     25  H   UNL     1      -4.974 -13.834   1.488  0.00  0.00    +0.000 HD
ENDBRANCH  17  24
ENDBRANCH  14  17
ENDBRANCH   1  14
TORSDOF 7
ENDMDL
MODEL 9
REMARK VINA RESULT:    -3.483     10.461     12.590
REMARK INTER + INTRA:          -5.265
REMARK INTER:                  -4.704
REMARK INTRA:                  -0.561
REMARK UNBOUND:                -0.561
REMARK  Name = 18827
REMARK  7 active torsions:
REMARK  status: ('A' for Active; 'I' for Inactive)
REMARK    1  A    between atoms: O_1  and  C_6
REMARK    2  A    between atoms: C_2  and  C_3
REMARK    3  A    between atoms: C_2  and  C_4
REMARK    4  A    between atoms: C_3  and  C_5
REMARK    5  A    between atoms: C_4  and  C_6
REMARK    6  A    between atoms: C_5  and  C_7
REMARK    7  A    between atoms: C_6  and  C_8
REMARK                            x       y       z     vdW  Elec       q    Type
REMARK                         _______ _______ _______ _____ _____    ______ ____
ROOT
ATOM      1  C   UNL     1      -7.373  -8.061 -13.597  0.00  0.00    +0.000 C 
ATOM      2  H   UNL     1      -6.888  -7.096 -13.404  0.00  0.00    +0.000 HD
ATOM      3  H   UNL     1      -7.321  -8.240 -14.678  0.00  0.00    +0.000 HD
ENDROOT
BRANCH   1   4
ATOM      4  C   UNL     1      -6.616  -9.168 -12.859  0.00  0.00    +0.000 C 
ATOM      5  H   UNL     1      -5.783  -9.523 -13.479  0.00  0.00    +0.000 HD
ATOM      6  H   UNL     1      -7.284 -10.023 -12.697  0.00  0.00    +0.000 HD
BRANCH   4   7
ATOM      7  C   UNL     1      -6.076  -8.674 -11.517  0.00  0.00    +0.000 C 
ATOM      8  H   UNL     1      -6.908  -8.390 -10.862  0.00  0.00    +0.000 HD
ATOM      9  H   UNL     1      -5.529  -9.482 -11.016  0.00  0.00    +0.000 HD
BRANCH   7  10
ATOM     10  C   UNL     1      -5.149  -7.482 -11.695  0.00  0.00    +0.000 C 
ATOM     11  H   UNL     1      -4.168  -7.677 -11.251  0.00  0.00    +0.000 HD
ATOM     12  H   UNL     1      -5.007  -7.251 -12.755  0.00  0.00    +0.000 HD
ATOM     13  H   UNL     1      -5.573  -6.597 -11.208  0.00  0.00    +0.000 HD
ENDBRANCH   7  10
ENDBRANCH   4   7
ENDBRANCH   1   4
BRANCH   1  14
ATOM     14  C   UNL     1      -8.839  -8.006 -13.160  0.00  0.00    +0.000 C 
ATOM     15  H   UNL     1      -9.020  -8.834 -12.460  0.00  0.00    +0.000 HD
ATOM     16  H   UNL     1      -9.482  -8.177 -14.033  0.00  0.00    +0.000 HD
BRANCH  14  17
ATOM     17  C   UNL     1      -9.239  -6.682 -12.493  0.00  0.00    +0.000 C 
ATOM     18  H   UNL     1     -10.054  -6.231 -13.073  0.00  0.00    +0.000 HD
BRANCH  17  19
ATOM     19  C   UNL     1      -9.671  -6.850 -11.060  0.00  0.00    +0.000 C 
ATOM     20  C   UNL     1      -9.293  -7.824 -10.222  0.00  0.00    +0.000 C 
ATOM     21  H   UNL     1     -10.369  -6.107 -10.682  0.00  0.00    +0.000 HD
ATOM     22  H   UNL     1      -9.671  -7.855  -9.207  0.00  0.00    +0.000 HD
ATOM     23  H   UNL     1      -8.604  -8.600 -10.535  0.00  0.00    +0.000 HD
ENDBRANCH  17  19
BRANCH  17  24
ATOM     24  O   UNL     1      -8.128  -5.788 -12.582  0.00  0.00    +0.000 OA
ATOM     25  H   UNL     1      -8.185  -5.331 -13.437  0.00  0.00    +0.000 HD
ENDBRANCH  17  24
ENDBRANCH  14  17
ENDBRANCH   1  14
TORSDOF 7
ENDMDL
MODEL 10
REMARK VINA RESULT:    -3.461     11.984     13.855
REMARK INTER + INTRA:          -5.235
REMARK INTER:                  -4.717
REMARK INTRA:                  -0.517
REMARK UNBOUND:                -0.561
REMARK  Name = 18827
REMARK  7 active torsions:
REMARK  status: ('A' for Active; 'I' for Inactive)
REMARK    1  A    between atoms: O_1  and  C_6
REMARK    2  A    between atoms: C_2  and  C_3
REMARK    3  A    between atoms: C_2  and  C_4
REMARK    4  A    between atoms: C_3  and  C_5
REMARK    5  A    between atoms: C_4  and  C_6
REMARK    6  A    between atoms: C_5  and  C_7
REMARK    7  A    between atoms: C_6  and  C_8
REMARK                            x       y       z     vdW  Elec       q    Type
REMARK                         _______ _______ _______ _____ _____    ______ ____
ROOT
ATOM      1  C   UNL     1       0.653   5.519 -20.844  0.00  0.00    +0.000 C 
ATOM      2  H   UNL     1       1.044   5.241 -19.857  0.00  0.00    +0.000 HD
ATOM      3  H   UNL     1      -0.103   6.298 -20.686  0.00  0.00    +0.000 HD
ENDROOT
BRANCH   1   4
ATOM      4  C   UNL     1       1.789   6.076 -21.705  0.00  0.00    +0.000 C 
ATOM      5  H   UNL     1       1.442   6.967 -22.243  0.00  0.00    +0.000 HD
ATOM      6  H   UNL     1       2.074   5.334 -22.460  0.00  0.00    +0.000 HD
BRANCH   4   7
ATOM      7  C   UNL     1       3.006   6.439 -20.853  0.00  0.00    +0.000 C 
ATOM      8  H   UNL     1       3.834   5.756 -21.075  0.00  0.00    +0.000 HD
ATOM      9  H   UNL     1       3.345   7.452 -21.101  0.00  0.00    +0.000 HD
BRANCH   7  10
ATOM     10  C   UNL     1       2.686   6.372 -19.368  0.00  0.00    +0.000 C 
ATOM     11  H   UNL     1       2.471   5.345 -19.059  0.00  0.00    +0.000 HD
ATOM     12  H   UNL     1       3.523   6.743 -18.769  0.00  0.00    +0.000 HD
ATOM     13  H   UNL     1       1.808   6.986 -19.142  0.00  0.00    +0.000 HD
ENDBRANCH   7  10
ENDBRANCH   4   7
ENDBRANCH   1   4
BRANCH   1  14
ATOM     14  C   UNL     1      -0.001   4.304 -21.508  0.00  0.00    +0.000 C 
ATOM     15  H   UNL     1       0.463   4.160 -22.493  0.00  0.00    +0.000 HD
ATOM     16  H   UNL     1      -1.063   4.517 -21.682  0.00  0.00    +0.000 HD
BRANCH  14  17
ATOM     17  C   UNL     1       0.126   3.009 -20.693  0.00  0.00    +0.000 C 
ATOM     18  H   UNL     1       0.021   2.155 -21.375  0.00  0.00    +0.000 HD
BRANCH  17  19
ATOM     19  C   UNL     1       1.433   2.905 -19.951  0.00  0.00    +0.000 C 
ATOM     20  C   UNL     1       2.564   2.349 -20.402  0.00  0.00    +0.000 C 
ATOM     21  H   UNL     1       1.444   3.317 -18.944  0.00  0.00    +0.000 HD
ATOM     22  H   UNL     1       3.451   2.322 -19.779  0.00  0.00    +0.000 HD
ATOM     23  H   UNL     1       2.621   1.914 -21.393  0.00  0.00    +0.000 HD
ENDBRANCH  17  19
BRANCH  17  24
ATOM     24  O   UNL     1      -0.974   2.947 -19.785  0.00  0.00    +0.000 OA
ATOM     25  H   UNL     1      -0.653   2.549 -18.958  0.00  0.00    +0.000 HD
ENDBRANCH  17  24
ENDBRANCH  14  17
ENDBRANCH   1  14
TORSDOF 7
ENDMDL
