MODEL 1
REMARK VINA RESULT:    -3.946      0.000      0.000
REMARK INTER + INTRA:          -5.892
REMARK INTER:                  -5.662
REMARK INTRA:                  -0.230
REMARK UNBOUND:                -0.330
REMARK  Name = 957
REMARK  8 active torsions:
REMARK  status: ('A' for Active; 'I' for Inactive)
REMARK    1  A    between atoms: O_1  and  C_8
REMARK    2  A    between atoms: C_2  and  C_3
REMARK    3  A    between atoms: C_2  and  C_4
REMARK    4  A    between atoms: C_3  and  C_5
REMARK    5  A    between atoms: C_4  and  C_6
REMARK    6  A    between atoms: C_5  and  C_7
REMARK    7  A    between atoms: C_6  and  C_8
REMARK    8  A    between atoms: C_7  and  C_9
REMARK                            x       y       z     vdW  Elec       q    Type
REMARK                         _______ _______ _______ _____ _____    ______ ____
ROOT
ATOM      1  C   UNL     1      -3.561   4.788  24.669  0.00  0.00    +0.000 C 
ATOM      2  H   UNL     1      -3.550   5.299  23.698  0.00  0.00    +0.000 HD
ATOM      3  H   UNL     1      -3.066   3.820  24.521  0.00  0.00    +0.000 HD
ENDROOT
BRANCH   1   4
ATOM      4  C   UNL     1      -2.752   5.611  25.676  0.00  0.00    +0.000 C 
ATOM      5  H   UNL     1      -3.442   6.196  26.298  0.00  0.00    +0.000 HD
ATOM      6  H   UNL     1      -2.224   4.925  26.350  0.00  0.00    +0.000 HD
BRANCH   4   7
ATOM      7  C   UNL     1      -1.738   6.550  25.020  0.00  0.00    +0.000 C 
ATOM      8  H   UNL     1      -0.767   6.450  25.521  0.00  0.00    +0.000 HD
ATOM      9  H   UNL     1      -2.064   7.588  25.151  0.00  0.00    +0.000 HD
BRANCH   7  10
ATOM     10  C   UNL     1      -1.585   6.245  23.529  0.00  0.00    +0.000 C 
ATOM     11  H   UNL     1      -0.755   5.546  23.375  0.00  0.00    +0.000 HD
ATOM     12  H   UNL     1      -2.493   5.759  23.153  0.00  0.00    +0.000 HD
BRANCH  10  13
ATOM     13  C   UNL     1      -1.331   7.510  22.725  0.00  0.00    +0.000 C 
ATOM     14  H   UNL     1      -2.175   7.731  22.064  0.00  0.00    +0.000 HD
ATOM     15  H   UNL     1      -0.429   7.411  22.111  0.00  0.00    +0.000 HD
ATOM     16  H   UNL     1      -1.193   8.364  23.396  0.00  0.00    +0.000 HD
ENDBRANCH  10  13
ENDBRANCH   7  10
ENDBRANCH   4   7
ENDBRANCH   1   4
BRANCH   1  17
ATOM     17  C   UNL     1      -5.009   4.548  25.102  0.00  0.00    +0.000 C 
ATOM     18  H   UNL     1      -5.243   3.480  25.011  0.00  0.00    +0.000 HD
ATOM     19  H   UNL     1      -5.688   5.087  24.433  0.00  0.00    +0.000 HD
BRANCH  17  20
ATOM     20  C   UNL     1      -5.238   5.005  26.543  0.00  0.00    +0.000 C 
ATOM     21  H   UNL     1      -6.174   5.571  26.614  0.00  0.00    +0.000 HD
ATOM     22  H   UNL     1      -4.444   5.697  26.853  0.00  0.00    +0.000 HD
BRANCH  20  23
ATOM     23  C   UNL     1      -5.280   3.827  27.506  0.00  0.00    +0.000 C 
ATOM     24  H   UNL     1      -4.978   2.895  27.016  0.00  0.00    +0.000 HD
ATOM     25  H   UNL     1      -4.622   3.996  28.364  0.00  0.00    +0.000 HD
BRANCH  23  26
ATOM     26  O   UNL     1      -6.608   3.676  27.988  0.00  0.00    +0.000 OA
ATOM     27  H   UNL     1      -7.115   3.201  27.309  0.00  0.00    +0.000 HD
ENDBRANCH  23  26
ENDBRANCH  20  23
ENDBRANCH  17  20
ENDBRANCH   1  17
TORSDOF 8
ENDMDL
MODEL 2
REMARK VINA RESULT:    -3.914     35.272     36.968
REMARK INTER + INTRA:          -5.847
REMARK INTER:                  -5.429
REMARK INTRA:                  -0.418
REMARK UNBOUND:                -0.330
REMARK  Name = 957
REMARK  8 active torsions:
REMARK  status: ('A' for Active; 'I' for Inactive)
REMARK    1  A    between atoms: O_1  and  C_8
REMARK    2  A    between atoms: C_2  and  C_3
REMARK    3  A    between atoms: C_2  and  C_4
REMARK    4  A    between atoms: C_3  and  C_5
REMARK    5  A    between atoms: C_4  and  C_6
REMARK    6  A    between atoms: C_5  and  C_7
REMARK    7  A    between atoms: C_6  and  C_8
REMARK    8  A    between atoms: C_7  and  C_9
REMARK                            x       y       z     vdW  Elec       q    Type
REMARK                         _______ _______ _______ _____ _____    ______ ____
ROOT
ATOM      1  C   UNL     1      16.187  -4.527  -1.364  0.00  0.00    +0.000 C 
ATOM      2  H   UNL     1      15.797  -3.509  -1.237  0.00  0.00    +0.000 HD
ATOM      3  H   UNL     1      15.517  -5.194  -0.807  0.00  0.00    +0.000 HD
ENDROOT
BRANCH   1   4
ATOM      4  C   UNL     1      16.139  -4.899  -2.849  0.00  0.00    +0.000 C 
ATOM      5  H   UNL     1      15.091  -5.000  -3.160  0.00  0.00    +0.000 HD
ATOM      6  H   UNL     1      16.563  -4.073  -3.433  0.00  0.00    +0.000 HD
BRANCH   4   7
ATOM      7  C   UNL     1      16.895  -6.187  -3.179  0.00  0.00    +0.000 C 
ATOM      8  H   UNL     1      16.178  -6.988  -3.395  0.00  0.00    +0.000 HD
ATOM      9  H   UNL     1      17.478  -6.502  -2.305  0.00  0.00    +0.000 HD
BRANCH   7  10
ATOM     10  C   UNL     1      17.828  -5.990  -4.374  0.00  0.00    +0.000 C 
ATOM     11  H   UNL     1      17.833  -4.935  -4.672  0.00  0.00    +0.000 HD
ATOM     12  H   UNL     1      18.855  -6.252  -4.093  0.00  0.00    +0.000 HD
BRANCH  10  13
ATOM     13  C   UNL     1      17.404  -6.843  -5.558  0.00  0.00    +0.000 C 
ATOM     14  H   UNL     1      18.246  -7.021  -6.235  0.00  0.00    +0.000 HD
ATOM     15  H   UNL     1      16.603  -6.358  -6.126  0.00  0.00    +0.000 HD
ATOM     16  H   UNL     1      17.037  -7.815  -5.214  0.00  0.00    +0.000 HD
ENDBRANCH  10  13
ENDBRANCH   7  10
ENDBRANCH   4   7
ENDBRANCH   1   4
BRANCH   1  17
ATOM     17  C   UNL     1      17.591  -4.614  -0.760  0.00  0.00    +0.000 C 
ATOM     18  H   UNL     1      18.104  -5.497  -1.158  0.00  0.00    +0.000 HD
ATOM     19  H   UNL     1      17.517  -4.743   0.326  0.00  0.00    +0.000 HD
BRANCH  17  20
ATOM     20  C   UNL     1      18.406  -3.359  -1.073  0.00  0.00    +0.000 C 
ATOM     21  H   UNL     1      18.668  -2.839  -0.144  0.00  0.00    +0.000 HD
ATOM     22  H   UNL     1      17.804  -2.649  -1.655  0.00  0.00    +0.000 HD
BRANCH  20  23
ATOM     23  C   UNL     1      19.674  -3.692  -1.846  0.00  0.00    +0.000 C 
ATOM     24  H   UNL     1      20.562  -3.271  -1.364  0.00  0.00    +0.000 HD
ATOM     25  H   UNL     1      19.808  -4.774  -1.935  0.00  0.00    +0.000 HD
BRANCH  23  26
ATOM     26  O   UNL     1      19.568  -3.150  -3.156  0.00  0.00    +0.000 OA
ATOM     27  H   UNL     1      18.622  -3.081  -3.370  0.00  0.00    +0.000 HD
ENDBRANCH  23  26
ENDBRANCH  20  23
ENDBRANCH  17  20
ENDBRANCH   1  17
TORSDOF 8
ENDMDL
MODEL 3
REMARK VINA RESULT:    -3.864     28.164     29.175
REMARK INTER + INTRA:          -5.775
REMARK INTER:                  -5.503
REMARK INTRA:                  -0.272
REMARK UNBOUND:                -0.330
REMARK  Name = 957
REMARK  8 active torsions:
REMARK  status: ('A' for Active; 'I' for Inactive)
REMARK    1  A    between atoms: O_1  and  C_8
REMARK    2  A    between atoms: C_2  and  C_3
REMARK    3  A    between atoms: C_2  and  C_4
REMARK    4  A    between atoms: C_3  and  C_5
REMARK    5  A    between atoms: C_4  and  C_6
REMARK    6  A    between atoms: C_5  and  C_7
REMARK    7  A    between atoms: C_6  and  C_8
REMARK    8  A    between atoms: C_7  and  C_9
REMARK                            x       y       z     vdW  Elec       q    Type
REMARK                         _______ _______ _______ _____ _____    ______ ____
ROOT
ATOM      1  C   UNL     1      -8.157 -13.111   5.133  0.00  0.00    +0.000 C 
ATOM      2  H   UNL     1      -8.887 -13.833   4.745  0.00  0.00    +0.000 HD
ATOM      3  H   UNL     1      -8.647 -12.129   5.120  0.00  0.00    +0.000 HD
ENDROOT
BRANCH   1   4
ATOM      4  C   UNL     1      -7.812 -13.477   6.579  0.00  0.00    +0.000 C 
ATOM      5  H   UNL     1      -6.766 -13.208   6.778  0.00  0.00    +0.000 HD
ATOM      6  H   UNL     1      -8.427 -12.869   7.254  0.00  0.00    +0.000 HD
BRANCH   4   7
ATOM      7  C   UNL     1      -8.027 -14.957   6.900  0.00  0.00    +0.000 C 
ATOM      8  H   UNL     1      -8.439 -15.057   7.912  0.00  0.00    +0.000 HD
ATOM      9  H   UNL     1      -7.061 -15.476   6.892  0.00  0.00    +0.000 HD
BRANCH   7  10
ATOM     10  C   UNL     1      -8.968 -15.612   5.889  0.00  0.00    +0.000 C 
ATOM     11  H   UNL     1      -9.861 -14.990   5.754  0.00  0.00    +0.000 HD
ATOM     12  H   UNL     1      -8.474 -15.686   4.913  0.00  0.00    +0.000 HD
BRANCH  10  13
ATOM     13  C   UNL     1      -9.390 -17.001   6.338  0.00  0.00    +0.000 C 
ATOM     14  H   UNL     1     -10.134 -16.946   7.140  0.00  0.00    +0.000 HD
ATOM     15  H   UNL     1      -8.531 -17.573   6.706  0.00  0.00    +0.000 HD
ATOM     16  H   UNL     1      -9.833 -17.552   5.503  0.00  0.00    +0.000 HD
ENDBRANCH  10  13
ENDBRANCH   7  10
ENDBRANCH   4   7
ENDBRANCH   1   4
BRANCH   1  17
ATOM     17  C   UNL     1      -6.938 -13.071   4.207  0.00  0.00    +0.000 C 
ATOM     18  H   UNL     1      -6.116 -13.634   4.664  0.00  0.00    +0.000 HD
ATOM     19  H   UNL     1      -6.598 -12.036   4.091  0.00  0.00    +0.000 HD
BRANCH  17  20
ATOM     20  C   UNL     1      -7.267 -13.660   2.835  0.00  0.00    +0.000 C 
ATOM     21  H   UNL     1      -7.689 -12.885   2.184  0.00  0.00    +0.000 HD
ATOM     22  H   UNL     1      -8.042 -14.431   2.928  0.00  0.00    +0.000 HD
BRANCH  20  23
ATOM     23  C   UNL     1      -6.035 -14.265   2.176  0.00  0.00    +0.000 C 
ATOM     24  H   UNL     1      -6.069 -15.359   2.187  0.00  0.00    +0.000 HD
ATOM     25  H   UNL     1      -5.941 -13.931   1.138  0.00  0.00    +0.000 HD
BRANCH  23  26
ATOM     26  O   UNL     1      -4.879 -13.839   2.885  0.00  0.00    +0.000 OA
ATOM     27  H   UNL     1      -4.472 -14.628   3.283  0.00  0.00    +0.000 HD
ENDBRANCH  23  26
ENDBRANCH  20  23
ENDBRANCH  17  20
ENDBRANCH   1  17
TORSDOF 8
ENDMDL
MODEL 4
REMARK VINA RESULT:    -3.779     44.567     45.269
REMARK INTER + INTRA:          -5.657
REMARK INTER:                  -5.501
REMARK INTRA:                  -0.156
REMARK UNBOUND:                -0.330
REMARK  Name = 957
REMARK  8 active torsions:
REMARK  status: ('A' for Active; 'I' for Inactive)
REMARK    1  A    between atoms: O_1  and  C_8
REMARK    2  A    between atoms: C_2  and  C_3
REMARK    3  A    between atoms: C_2  and  C_4
REMARK    4  A    between atoms: C_3  and  C_5
REMARK    5  A    between atoms: C_4  and  C_6
REMARK    6  A    between atoms: C_5  and  C_7
REMARK    7  A    between atoms: C_6  and  C_8
REMARK    8  A    between atoms: C_7  and  C_9
REMARK                            x       y       z     vdW  Elec       q    Type
REMARK                         _______ _______ _______ _____ _____    ______ ____
ROOT
ATOM      1  C   UNL     1       3.061   6.104 -19.504  0.00  0.00    +0.000 C 
ATOM      2  H   UNL     1       2.775   6.104 -18.444  0.00  0.00    +0.000 HD
ATOM      3  H   UNL     1       2.682   7.039 -19.934  0.00  0.00    +0.000 HD
ENDROOT
BRANCH   1   4
ATOM      4  C   UNL     1       4.589   6.092 -19.608  0.00  0.00    +0.000 C 
ATOM      5  H   UNL     1       4.883   6.426 -20.611  0.00  0.00    +0.000 HD
ATOM      6  H   UNL     1       4.997   6.824 -18.900  0.00  0.00    +0.000 HD
BRANCH   4   7
ATOM      7  C   UNL     1       5.209   4.722 -19.325  0.00  0.00    +0.000 C 
ATOM      8  H   UNL     1       5.789   4.395 -20.196  0.00  0.00    +0.000 HD
ATOM      9  H   UNL     1       4.410   3.986 -19.173  0.00  0.00    +0.000 HD
BRANCH   7  10
ATOM     10  C   UNL     1       6.107   4.767 -18.088  0.00  0.00    +0.000 C 
ATOM     11  H   UNL     1       6.337   5.807 -17.832  0.00  0.00    +0.000 HD
ATOM     12  H   UNL     1       5.584   4.329 -17.230  0.00  0.00    +0.000 HD
BRANCH  10  13
ATOM     13  C   UNL     1       7.406   4.009 -18.317  0.00  0.00    +0.000 C 
ATOM     14  H   UNL     1       7.210   2.965 -18.581  0.00  0.00    +0.000 HD
ATOM     15  H   UNL     1       8.033   4.025 -17.419  0.00  0.00    +0.000 HD
ATOM     16  H   UNL     1       7.972   4.466 -19.135  0.00  0.00    +0.000 HD
ENDBRANCH  10  13
ENDBRANCH   7  10
ENDBRANCH   4   7
ENDBRANCH   1   4
BRANCH   1  17
ATOM     17  C   UNL     1       2.394   4.922 -20.211  0.00  0.00    +0.000 C 
ATOM     18  H   UNL     1       2.857   3.987 -19.874  0.00  0.00    +0.000 HD
ATOM     19  H   UNL     1       2.564   4.996 -21.292  0.00  0.00    +0.000 HD
BRANCH  17  20
ATOM     20  C   UNL     1       0.892   4.884 -19.929  0.00  0.00    +0.000 C 
ATOM     21  H   UNL     1       0.339   5.302 -20.779  0.00  0.00    +0.000 HD
ATOM     22  H   UNL     1       0.650   5.523 -19.070  0.00  0.00    +0.000 HD
BRANCH  20  23
ATOM     23  C   UNL     1       0.409   3.468 -19.652  0.00  0.00    +0.000 C 
ATOM     24  H   UNL     1      -0.230   3.095 -20.460  0.00  0.00    +0.000 HD
ATOM     25  H   UNL     1       1.252   2.781 -19.531  0.00  0.00    +0.000 HD
BRANCH  23  26
ATOM     26  O   UNL     1      -0.340   3.467 -18.444  0.00  0.00    +0.000 OA
ATOM     27  H   UNL     1      -0.105   4.272 -17.953  0.00  0.00    +0.000 HD
ENDBRANCH  23  26
ENDBRANCH  20  23
ENDBRANCH  17  20
ENDBRANCH   1  17
TORSDOF 8
ENDMDL
MODEL 5
REMARK VINA RESULT:    -3.776     45.263     45.857
REMARK INTER + INTRA:          -5.651
REMARK INTER:                  -5.234
REMARK INTRA:                  -0.417
REMARK UNBOUND:                -0.330
REMARK  Name = 957
REMARK  8 active torsions:
REMARK  status: ('A' for Active; 'I' for Inactive)
REMARK    1  A    between atoms: O_1  and  C_8
REMARK    2  A    between atoms: C_2  and  C_3
REMARK    3  A    between atoms: C_2  and  C_4
REMARK    4  A    between atoms: C_3  and  C_5
REMARK    5  A    between atoms: C_4  and  C_6
REMARK    6  A    between atoms: C_5  and  C_7
REMARK    7  A    between atoms: C_6  and  C_8
REMARK    8  A    between atoms: C_7  and  C_9
REMARK                            x       y       z     vdW  Elec       q    Type
REMARK                         _______ _______ _______ _____ _____    ______ ____
ROOT
ATOM      1  C   UNL     1       3.443   2.585 -20.330  0.00  0.00    +0.000 C 
ATOM      2  H   UNL     1       3.788   1.974 -21.174  0.00  0.00    +0.000 HD
ATOM      3  H   UNL     1       4.087   2.338 -19.476  0.00  0.00    +0.000 HD
ENDROOT
BRANCH   1   4
ATOM      4  C   UNL     1       3.624   4.066 -20.677  0.00  0.00    +0.000 C 
ATOM      5  H   UNL     1       4.035   4.148 -21.692  0.00  0.00    +0.000 HD
ATOM      6  H   UNL     1       2.639   4.547 -20.696  0.00  0.00    +0.000 HD
BRANCH   4   7
ATOM      7  C   UNL     1       4.530   4.815 -19.699  0.00  0.00    +0.000 C 
ATOM      8  H   UNL     1       5.497   5.018 -20.175  0.00  0.00    +0.000 HD
ATOM      9  H   UNL     1       4.727   4.180 -18.826  0.00  0.00    +0.000 HD
BRANCH   7  10
ATOM     10  C   UNL     1       3.889   6.126 -19.244  0.00  0.00    +0.000 C 
ATOM     11  H   UNL     1       3.983   6.229 -18.157  0.00  0.00    +0.000 HD
ATOM     12  H   UNL     1       4.413   6.975 -19.698  0.00  0.00    +0.000 HD
BRANCH  10  13
ATOM     13  C   UNL     1       2.419   6.189 -19.628  0.00  0.00    +0.000 C 
ATOM     14  H   UNL     1       2.003   5.184 -19.754  0.00  0.00    +0.000 HD
ATOM     15  H   UNL     1       2.280   6.739 -20.564  0.00  0.00    +0.000 HD
ATOM     16  H   UNL     1       1.845   6.697 -18.846  0.00  0.00    +0.000 HD
ENDBRANCH  10  13
ENDBRANCH   7  10
ENDBRANCH   4   7
ENDBRANCH   1   4
BRANCH   1  17
ATOM     17  C   UNL     1       1.998   2.213 -19.988  0.00  0.00    +0.000 C 
ATOM     18  H   UNL     1       1.783   2.504 -18.953  0.00  0.00    +0.000 HD
ATOM     19  H   UNL     1       1.874   1.126 -20.051  0.00  0.00    +0.000 HD
BRANCH  17  20
ATOM     20  C   UNL     1       1.012   2.899 -20.933  0.00  0.00    +0.000 C 
ATOM     21  H   UNL     1       0.986   2.373 -21.895  0.00  0.00    +0.000 HD
ATOM     22  H   UNL     1       1.347   3.920 -21.157  0.00  0.00    +0.000 HD
BRANCH  20  23
ATOM     23  C   UNL     1      -0.389   2.950 -20.341  0.00  0.00    +0.000 C 
ATOM     24  H   UNL     1      -1.016   3.687 -20.852  0.00  0.00    +0.000 HD
ATOM     25  H   UNL     1      -0.880   1.973 -20.405  0.00  0.00    +0.000 HD
BRANCH  23  26
ATOM     26  O   UNL     1      -0.295   3.308 -18.969  0.00  0.00    +0.000 OA
ATOM     27  H   UNL     1      -0.031   2.513 -18.475  0.00  0.00    +0.000 HD
ENDBRANCH  23  26
ENDBRANCH  20  23
ENDBRANCH  17  20
ENDBRANCH   1  17
TORSDOF 8
ENDMDL
MODEL 6
REMARK VINA RESULT:    -3.751     44.984     46.288
REMARK INTER + INTRA:          -5.617
REMARK INTER:                  -5.419
REMARK INTRA:                  -0.198
REMARK UNBOUND:                -0.330
REMARK  Name = 957
REMARK  8 active torsions:
REMARK  status: ('A' for Active; 'I' for Inactive)
REMARK    1  A    between atoms: O_1  and  C_8
REMARK    2  A    between atoms: C_2  and  C_3
REMARK    3  A    between atoms: C_2  and  C_4
REMARK    4  A    between atoms: C_3  and  C_5
REMARK    5  A    between atoms: C_4  and  C_6
REMARK    6  A    between atoms: C_5  and  C_7
REMARK    7  A    between atoms: C_6  and  C_8
REMARK    8  A    between atoms: C_7  and  C_9
REMARK                            x       y       z     vdW  Elec       q    Type
REMARK                         _______ _______ _______ _____ _____    ______ ____
ROOT
ATOM      1  C   UNL     1       3.342   4.106 -20.375  0.00  0.00    +0.000 C 
ATOM      2  H   UNL     1       2.723   4.634 -19.638  0.00  0.00    +0.000 HD
ATOM      3  H   UNL     1       3.204   4.624 -21.332  0.00  0.00    +0.000 HD
ENDROOT
BRANCH   1   4
ATOM      4  C   UNL     1       4.812   4.210 -19.959  0.00  0.00    +0.000 C 
ATOM      5  H   UNL     1       5.091   3.308 -19.398  0.00  0.00    +0.000 HD
ATOM      6  H   UNL     1       5.434   4.225 -20.862  0.00  0.00    +0.000 HD
BRANCH   4   7
ATOM      7  C   UNL     1       5.120   5.449 -19.116  0.00  0.00    +0.000 C 
ATOM      8  H   UNL     1       4.185   5.876 -18.735  0.00  0.00    +0.000 HD
ATOM      9  H   UNL     1       5.590   6.212 -19.748  0.00  0.00    +0.000 HD
BRANCH   7  10
ATOM     10  C   UNL     1       6.049   5.107 -17.950  0.00  0.00    +0.000 C 
ATOM     11  H   UNL     1       6.779   5.913 -17.808  0.00  0.00    +0.000 HD
ATOM     12  H   UNL     1       5.470   5.026 -17.023  0.00  0.00    +0.000 HD
BRANCH  10  13
ATOM     13  C   UNL     1       6.787   3.800 -18.191  0.00  0.00    +0.000 C 
ATOM     14  H   UNL     1       7.832   3.875 -17.872  0.00  0.00    +0.000 HD
ATOM     15  H   UNL     1       6.770   3.528 -19.251  0.00  0.00    +0.000 HD
ATOM     16  H   UNL     1       6.317   2.990 -17.624  0.00  0.00    +0.000 HD
ENDBRANCH  10  13
ENDBRANCH   7  10
ENDBRANCH   4   7
ENDBRANCH   1   4
BRANCH   1  17
ATOM     17  C   UNL     1       2.849   2.664 -20.514  0.00  0.00    +0.000 C 
ATOM     18  H   UNL     1       3.217   2.071 -19.668  0.00  0.00    +0.000 HD
ATOM     19  H   UNL     1       3.263   2.220 -21.426  0.00  0.00    +0.000 HD
BRANCH  17  20
ATOM     20  C   UNL     1       1.322   2.603 -20.561  0.00  0.00    +0.000 C 
ATOM     21  H   UNL     1       0.900   3.595 -20.360  0.00  0.00    +0.000 HD
ATOM     22  H   UNL     1       0.942   1.948 -19.766  0.00  0.00    +0.000 HD
BRANCH  20  23
ATOM     23  C   UNL     1       0.822   2.099 -21.907  0.00  0.00    +0.000 C 
ATOM     24  H   UNL     1       0.060   1.321 -21.788  0.00  0.00    +0.000 HD
ATOM     25  H   UNL     1       0.396   2.914 -22.500  0.00  0.00    +0.000 HD
BRANCH  23  26
ATOM     26  O   UNL     1       1.919   1.553 -22.629  0.00  0.00    +0.000 OA
ATOM     27  H   UNL     1       1.594   0.775 -23.113  0.00  0.00    +0.000 HD
ENDBRANCH  23  26
ENDBRANCH  20  23
ENDBRANCH  17  20
ENDBRANCH   1  17
TORSDOF 8
ENDMDL
MODEL 7
REMARK VINA RESULT:    -3.736     27.960     28.695
REMARK INTER + INTRA:          -5.596
REMARK INTER:                  -5.237
REMARK INTRA:                  -0.359
REMARK UNBOUND:                -0.330
REMARK  Name = 957
REMARK  8 active torsions:
REMARK  status: ('A' for Active; 'I' for Inactive)
REMARK    1  A    between atoms: O_1  and  C_8
REMARK    2  A    between atoms: C_2  and  C_3
REMARK    3  A    between atoms: C_2  and  C_4
REMARK    4  A    between atoms: C_3  and  C_5
REMARK    5  A    between atoms: C_4  and  C_6
REMARK    6  A    between atoms: C_5  and  C_7
REMARK    7  A    between atoms: C_6  and  C_8
REMARK    8  A    between atoms: C_7  and  C_9
REMARK                            x       y       z     vdW  Elec       q    Type
REMARK                         _______ _______ _______ _____ _____    ______ ____
ROOT
ATOM      1  C   UNL     1      -7.911 -13.639   6.087  0.00  0.00    +0.000 C 
ATOM      2  H   UNL     1      -6.914 -13.809   6.515  0.00  0.00    +0.000 HD
ATOM      3  H   UNL     1      -8.459 -13.013   6.802  0.00  0.00    +0.000 HD
ENDROOT
BRANCH   1   4
ATOM      4  C   UNL     1      -7.764 -12.876   4.768  0.00  0.00    +0.000 C 
ATOM      5  H   UNL     1      -8.707 -12.360   4.544  0.00  0.00    +0.000 HD
ATOM      6  H   UNL     1      -7.001 -12.097   4.893  0.00  0.00    +0.000 HD
BRANCH   4   7
ATOM      7  C   UNL     1      -7.379 -13.769   3.587  0.00  0.00    +0.000 C 
ATOM      8  H   UNL     1      -7.989 -13.506   2.714  0.00  0.00    +0.000 HD
ATOM      9  H   UNL     1      -7.601 -14.814   3.833  0.00  0.00    +0.000 HD
BRANCH   7  10
ATOM     10  C   UNL     1      -5.896 -13.626   3.245  0.00  0.00    +0.000 C 
ATOM     11  H   UNL     1      -5.322 -14.419   3.739  0.00  0.00    +0.000 HD
ATOM     12  H   UNL     1      -5.748 -13.743   2.165  0.00  0.00    +0.000 HD
BRANCH  10  13
ATOM     13  C   UNL     1      -5.352 -12.273   3.677  0.00  0.00    +0.000 C 
ATOM     14  H   UNL     1      -5.138 -12.261   4.751  0.00  0.00    +0.000 HD
ATOM     15  H   UNL     1      -6.069 -11.474   3.461  0.00  0.00    +0.000 HD
ATOM     16  H   UNL     1      -4.423 -12.050   3.144  0.00  0.00    +0.000 HD
ENDBRANCH  10  13
ENDBRANCH   7  10
ENDBRANCH   4   7
ENDBRANCH   1   4
BRANCH   1  17
ATOM     17  C   UNL     1      -8.637 -14.979   5.937  0.00  0.00    +0.000 C 
ATOM     18  H   UNL     1      -8.421 -15.401   4.949  0.00  0.00    +0.000 HD
ATOM     19  H   UNL     1      -9.719 -14.818   5.993  0.00  0.00    +0.000 HD
BRANCH  17  20
ATOM     20  C   UNL     1      -8.207 -15.964   7.024  0.00  0.00    +0.000 C 
ATOM     21  H   UNL     1      -9.044 -16.624   7.285  0.00  0.00    +0.000 HD
ATOM     22  H   UNL     1      -7.949 -15.427   7.945  0.00  0.00    +0.000 HD
BRANCH  20  23
ATOM     23  C   UNL     1      -7.016 -16.802   6.583  0.00  0.00    +0.000 C 
ATOM     24  H   UNL     1      -6.067 -16.331   6.860  0.00  0.00    +0.000 HD
ATOM     25  H   UNL     1      -7.050 -17.801   7.028  0.00  0.00    +0.000 HD
BRANCH  23  26
ATOM     26  O   UNL     1      -7.055 -16.946   5.169  0.00  0.00    +0.000 OA
ATOM     27  H   UNL     1      -7.605 -17.722   4.968  0.00  0.00    +0.000 HD
ENDBRANCH  23  26
ENDBRANCH  20  23
ENDBRANCH  17  20
ENDBRANCH   1  17
TORSDOF 8
ENDMDL
MODEL 8
REMARK VINA RESULT:    -3.658     40.833     41.797
REMARK INTER + INTRA:          -5.486
REMARK INTER:                  -5.214
REMARK INTRA:                  -0.272
REMARK UNBOUND:                -0.330
REMARK  Name = 957
REMARK  8 active torsions:
REMARK  status: ('A' for Active; 'I' for Inactive)
REMARK    1  A    between atoms: O_1  and  C_8
REMARK    2  A    between atoms: C_2  and  C_3
REMARK    3  A    between atoms: C_2  and  C_4
REMARK    4  A    between atoms: C_3  and  C_5
REMARK    5  A    between atoms: C_4  and  C_6
REMARK    6  A    between atoms: C_5  and  C_7
REMARK    7  A    between atoms: C_6  and  C_8
REMARK    8  A    between atoms: C_7  and  C_9
REMARK                            x       y       z     vdW  Elec       q    Type
REMARK                         _______ _______ _______ _____ _____    ______ ____
ROOT
ATOM      1  C   UNL     1      11.200  19.306 -11.501  0.00  0.00    +0.000 C 
ATOM      2  H   UNL     1      11.610  18.956 -12.457  0.00  0.00    +0.000 HD
ATOM      3  H   UNL     1      10.225  18.817 -11.377  0.00  0.00    +0.000 HD
ENDROOT
BRANCH   1   4
ATOM      4  C   UNL     1      12.127  18.861 -10.367  0.00  0.00    +0.000 C 
ATOM      5  H   UNL     1      12.632  19.743  -9.949  0.00  0.00    +0.000 HD
ATOM      6  H   UNL     1      11.519  18.435  -9.560  0.00  0.00    +0.000 HD
BRANCH   4   7
ATOM      7  C   UNL     1      13.173  17.834 -10.802  0.00  0.00    +0.000 C 
ATOM      8  H   UNL     1      13.591  17.337  -9.919  0.00  0.00    +0.000 HD
ATOM      9  H   UNL     1      14.001  18.348 -11.306  0.00  0.00    +0.000 HD
BRANCH   7  10
ATOM     10  C   UNL     1      12.568  16.794 -11.745  0.00  0.00    +0.000 C 
ATOM     11  H   UNL     1      11.913  16.118 -11.183  0.00  0.00    +0.000 HD
ATOM     12  H   UNL     1      11.949  17.291 -12.502  0.00  0.00    +0.000 HD
BRANCH  10  13
ATOM     13  C   UNL     1      13.646  15.980 -12.444  0.00  0.00    +0.000 C 
ATOM     14  H   UNL     1      13.332  14.939 -12.569  0.00  0.00    +0.000 HD
ATOM     15  H   UNL     1      14.579  15.991 -11.872  0.00  0.00    +0.000 HD
ATOM     16  H   UNL     1      13.850  16.394 -13.436  0.00  0.00    +0.000 HD
ENDBRANCH  10  13
ENDBRANCH   7  10
ENDBRANCH   4   7
ENDBRANCH   1   4
BRANCH   1  17
ATOM     17  C   UNL     1      10.993  20.822 -11.560  0.00  0.00    +0.000 C 
ATOM     18  H   UNL     1       9.992  21.037 -11.951  0.00  0.00    +0.000 HD
ATOM     19  H   UNL     1      11.716  21.265 -12.255  0.00  0.00    +0.000 HD
BRANCH  17  20
ATOM     20  C   UNL     1      11.155  21.456 -10.178  0.00  0.00    +0.000 C 
ATOM     21  H   UNL     1      11.710  22.398 -10.259  0.00  0.00    +0.000 HD
ATOM     22  H   UNL     1      11.757  20.807  -9.530  0.00  0.00    +0.000 HD
BRANCH  20  23
ATOM     23  C   UNL     1       9.808  21.712  -9.518  0.00  0.00    +0.000 C 
ATOM     24  H   UNL     1       9.867  22.522  -8.783  0.00  0.00    +0.000 HD
ATOM     25  H   UNL     1       9.048  21.973 -10.261  0.00  0.00    +0.000 HD
BRANCH  23  26
ATOM     26  O   UNL     1       9.389  20.527  -8.855  0.00  0.00    +0.000 OA
ATOM     27  H   UNL     1       8.471  20.661  -8.565  0.00  0.00    +0.000 HD
ENDBRANCH  23  26
ENDBRANCH  20  23
ENDBRANCH  17  20
ENDBRANCH   1  17
TORSDOF 8
ENDMDL
MODEL 9
REMARK VINA RESULT:    -3.648     44.643     46.480
REMARK INTER + INTRA:          -5.471
REMARK INTER:                  -5.158
REMARK INTRA:                  -0.313
REMARK UNBOUND:                -0.330
REMARK  Name = 957
REMARK  8 active torsions:
REMARK  status: ('A' for Active; 'I' for Inactive)
REMARK    1  A    between atoms: O_1  and  C_8
REMARK    2  A    between atoms: C_2  and  C_3
REMARK    3  A    between atoms: C_2  and  C_4
REMARK    4  A    between atoms: C_3  and  C_5
REMARK    5  A    between atoms: C_4  and  C_6
REMARK    6  A    between atoms: C_5  and  C_7
REMARK    7  A    between atoms: C_6  and  C_8
REMARK    8  A    between atoms: C_7  and  C_9
REMARK                            x       y       z     vdW  Elec       q    Type
REMARK                         _______ _______ _______ _____ _____    ______ ____
ROOT
ATOM      1  C   UNL     1       0.694   2.820 -20.217  0.00  0.00    +0.000 C 
ATOM      2  H   UNL     1       1.087   1.926 -20.718  0.00  0.00    +0.000 HD
ATOM      3  H   UNL     1       0.623   2.578 -19.149  0.00  0.00    +0.000 HD
ENDROOT
BRANCH   1   4
ATOM      4  C   UNL     1       1.686   3.972 -20.401  0.00  0.00    +0.000 C 
ATOM      5  H   UNL     1       2.396   3.973 -19.564  0.00  0.00    +0.000 HD
ATOM      6  H   UNL     1       2.271   3.793 -21.311  0.00  0.00    +0.000 HD
BRANCH   4   7
ATOM      7  C   UNL     1       1.015   5.344 -20.499  0.00  0.00    +0.000 C 
ATOM      8  H   UNL     1      -0.074   5.224 -20.451  0.00  0.00    +0.000 HD
ATOM      9  H   UNL     1       1.248   5.795 -21.472  0.00  0.00    +0.000 HD
BRANCH   7  10
ATOM     10  C   UNL     1       1.485   6.271 -19.379  0.00  0.00    +0.000 C 
ATOM     11  H   UNL     1       2.283   5.786 -18.804  0.00  0.00    +0.000 HD
ATOM     12  H   UNL     1       1.904   7.190 -19.805  0.00  0.00    +0.000 HD
BRANCH  10  13
ATOM     13  C   UNL     1       0.345   6.635 -18.441  0.00  0.00    +0.000 C 
ATOM     14  H   UNL     1       0.689   6.675 -17.402  0.00  0.00    +0.000 HD
ATOM     15  H   UNL     1      -0.467   5.903 -18.506  0.00  0.00    +0.000 HD
ATOM     16  H   UNL     1      -0.062   7.617 -18.702  0.00  0.00    +0.000 HD
ENDBRANCH  10  13
ENDBRANCH   7  10
ENDBRANCH   4   7
ENDBRANCH   1   4
BRANCH   1  17
ATOM     17  C   UNL     1      -0.706   3.131 -20.751  0.00  0.00    +0.000 C 
ATOM     18  H   UNL     1      -0.708   4.127 -21.209  0.00  0.00    +0.000 HD
ATOM     19  H   UNL     1      -1.420   3.155 -19.920  0.00  0.00    +0.000 HD
BRANCH  17  20
ATOM     20  C   UNL     1      -1.149   2.090 -21.779  0.00  0.00    +0.000 C 
ATOM     21  H   UNL     1      -1.868   2.533 -22.479  0.00  0.00    +0.000 HD
ATOM     22  H   UNL     1      -1.680   1.267 -21.283  0.00  0.00    +0.000 HD
BRANCH  20  23
ATOM     23  C   UNL     1       0.035   1.527 -22.553  0.00  0.00    +0.000 C 
ATOM     24  H   UNL     1       0.033   1.866 -23.594  0.00  0.00    +0.000 HD
ATOM     25  H   UNL     1       0.983   1.823 -22.093  0.00  0.00    +0.000 HD
BRANCH  23  26
ATOM     26  O   UNL     1      -0.040   0.107 -22.537  0.00  0.00    +0.000 OA
ATOM     27  H   UNL     1      -0.970  -0.136 -22.391  0.00  0.00    +0.000 HD
ENDBRANCH  23  26
ENDBRANCH  20  23
ENDBRANCH  17  20
ENDBRANCH   1  17
TORSDOF 8
ENDMDL
MODEL 10
REMARK VINA RESULT:    -3.584     35.655     37.733
REMARK INTER + INTRA:          -5.381
REMARK INTER:                  -5.051
REMARK INTRA:                  -0.330
REMARK UNBOUND:                -0.330
REMARK  Name = 957
REMARK  8 active torsions:
REMARK  status: ('A' for Active; 'I' for Inactive)
REMARK    1  A    between atoms: O_1  and  C_8
REMARK    2  A    between atoms: C_2  and  C_3
REMARK    3  A    between atoms: C_2  and  C_4
REMARK    4  A    between atoms: C_3  and  C_5
REMARK    5  A    between atoms: C_4  and  C_6
REMARK    6  A    between atoms: C_5  and  C_7
REMARK    7  A    between atoms: C_6  and  C_8
REMARK    8  A    between atoms: C_7  and  C_9
REMARK                            x       y       z     vdW  Elec       q    Type
REMARK                         _______ _______ _______ _____ _____    ______ ____
ROOT
ATOM      1  C   UNL     1      18.471  -6.055  -1.920  0.00  0.00    +0.000 C 
ATOM      2  H   UNL     1      18.874  -5.483  -1.075  0.00  0.00    +0.000 HD
ATOM      3  H   UNL     1      17.895  -6.886  -1.493  0.00  0.00    +0.000 HD
ENDROOT
BRANCH   1   4
ATOM      4  C   UNL     1      17.527  -5.158  -2.727  0.00  0.00    +0.000 C 
ATOM      5  H   UNL     1      18.076  -4.267  -3.060  0.00  0.00    +0.000 HD
ATOM      6  H   UNL     1      17.217  -5.695  -3.632  0.00  0.00    +0.000 HD
BRANCH   4   7
ATOM      7  C   UNL     1      16.283  -4.728  -1.948  0.00  0.00    +0.000 C 
ATOM      8  H   UNL     1      15.644  -4.108  -2.589  0.00  0.00    +0.000 HD
ATOM      9  H   UNL     1      16.583  -4.107  -1.095  0.00  0.00    +0.000 HD
BRANCH   7  10
ATOM     10  C   UNL     1      15.497  -5.940  -1.448  0.00  0.00    +0.000 C 
ATOM     11  H   UNL     1      16.140  -6.569  -0.822  0.00  0.00    +0.000 HD
ATOM     12  H   UNL     1      14.659  -5.610  -0.823  0.00  0.00    +0.000 HD
BRANCH  10  13
ATOM     13  C   UNL     1      14.958  -6.769  -2.603  0.00  0.00    +0.000 C 
ATOM     14  H   UNL     1      15.767  -7.084  -3.271  0.00  0.00    +0.000 HD
ATOM     15  H   UNL     1      14.229  -6.200  -3.189  0.00  0.00    +0.000 HD
ATOM     16  H   UNL     1      14.462  -7.669  -2.225  0.00  0.00    +0.000 HD
ENDBRANCH  10  13
ENDBRANCH   7  10
ENDBRANCH   4   7
ENDBRANCH   1   4
BRANCH   1  17
ATOM     17  C   UNL     1      19.626  -6.624  -2.748  0.00  0.00    +0.000 C 
ATOM     18  H   UNL     1      19.584  -7.719  -2.728  0.00  0.00    +0.000 HD
ATOM     19  H   UNL     1      20.581  -6.327  -2.300  0.00  0.00    +0.000 HD
BRANCH  17  20
ATOM     20  C   UNL     1      19.564  -6.132  -4.194  0.00  0.00    +0.000 C 
ATOM     21  H   UNL     1      18.661  -5.529  -4.349  0.00  0.00    +0.000 HD
ATOM     22  H   UNL     1      19.479  -6.983  -4.883  0.00  0.00    +0.000 HD
BRANCH  20  23
ATOM     23  C   UNL     1      20.793  -5.312  -4.561  0.00  0.00    +0.000 C 
ATOM     24  H   UNL     1      21.685  -5.666  -4.034  0.00  0.00    +0.000 HD
ATOM     25  H   UNL     1      20.987  -5.354  -5.638  0.00  0.00    +0.000 HD
BRANCH  23  26
ATOM     26  O   UNL     1      20.562  -3.956  -4.206  0.00  0.00    +0.000 OA
ATOM     27  H   UNL     1      19.923  -3.949  -3.473  0.00  0.00    +0.000 HD
ENDBRANCH  23  26
ENDBRANCH  20  23
ENDBRANCH  17  20
ENDBRANCH   1  17
TORSDOF 8
ENDMDL
