MODEL 1
REMARK VINA RESULT:    -4.313      0.000      0.000
REMARK INTER + INTRA:          -5.331
REMARK INTER:                  -5.260
REMARK INTRA:                  -0.071
REMARK UNBOUND:                -0.009
REMARK  Name = 6276
REMARK  5 active torsions:
REMARK  status: ('A' for Active; 'I' for Inactive)
REMARK    1  A    between atoms: O_1  and  C_5
REMARK    2  A    between atoms: C_2  and  C_3
REMARK    3  A    between atoms: C_2  and  C_4
REMARK    4  A    between atoms: C_3  and  C_5
REMARK    5  A    between atoms: C_4  and  C_6
REMARK                            x       y       z     vdW  Elec       q    Type
REMARK                         _______ _______ _______ _____ _____    ______ ____
ROOT
ATOM      1  C   UNL     1       6.005  -5.772  -9.970  0.00  0.00    +0.000 C 
ATOM      2  H   UNL     1       6.308  -4.730  -9.813  0.00  0.00    +0.000 HD
ATOM      3  H   UNL     1       6.522  -6.127 -10.871  0.00  0.00    +0.000 HD
ENDROOT
BRANCH   1   4
ATOM      4  C   UNL     1       4.495  -5.841 -10.189  0.00  0.00    +0.000 C 
ATOM      5  H   UNL     1       4.268  -6.398 -11.106  0.00  0.00    +0.000 HD
ATOM      6  H   UNL     1       4.091  -4.833 -10.343  0.00  0.00    +0.000 HD
BRANCH   4   7
ATOM      7  C   UNL     1       3.786  -6.494  -9.011  0.00  0.00    +0.000 C 
ATOM      8  H   UNL     1       3.103  -5.796  -8.514  0.00  0.00    +0.000 HD
ATOM      9  H   UNL     1       4.506  -6.859  -8.272  0.00  0.00    +0.000 HD
BRANCH   7  10
ATOM     10  O   UNL     1       3.035  -7.603  -9.484  0.00  0.00    +0.000 OA
ATOM     11  H   UNL     1       2.206  -7.635  -8.976  0.00  0.00    +0.000 HD
ENDBRANCH   7  10
ENDBRANCH   4   7
ENDBRANCH   1   4
BRANCH   1  12
ATOM     12  C   UNL     1       6.432  -6.618  -8.772  0.00  0.00    +0.000 C 
ATOM     13  H   UNL     1       5.596  -6.720  -8.071  0.00  0.00    +0.000 HD
ATOM     14  H   UNL     1       6.701  -7.628  -9.104  0.00  0.00    +0.000 HD
BRANCH  12  15
ATOM     15  C   UNL     1       7.619  -6.002  -8.049  0.00  0.00    +0.000 C 
ATOM     16  H   UNL     1       8.499  -5.964  -8.700  0.00  0.00    +0.000 HD
ATOM     17  H   UNL     1       7.392  -4.983  -7.719  0.00  0.00    +0.000 HD
ATOM     18  H   UNL     1       7.875  -6.596  -7.166  0.00  0.00    +0.000 HD
ENDBRANCH  12  15
ENDBRANCH   1  12
TORSDOF 5
ENDMDL
MODEL 2
REMARK VINA RESULT:    -4.207      1.813      2.114
REMARK INTER + INTRA:          -5.200
REMARK INTER:                  -5.183
REMARK INTRA:                  -0.017
REMARK UNBOUND:                -0.009
REMARK  Name = 6276
REMARK  5 active torsions:
REMARK  status: ('A' for Active; 'I' for Inactive)
REMARK    1  A    between atoms: O_1  and  C_5
REMARK    2  A    between atoms: C_2  and  C_3
REMARK    3  A    between atoms: C_2  and  C_4
REMARK    4  A    between atoms: C_3  and  C_5
REMARK    5  A    between atoms: C_4  and  C_6
REMARK                            x       y       z     vdW  Elec       q    Type
REMARK                         _______ _______ _______ _____ _____    ______ ____
ROOT
ATOM      1  C   UNL     1       5.101  -6.071 -10.011  0.00  0.00    +0.000 C 
ATOM      2  H   UNL     1       4.405  -6.810 -10.425  0.00  0.00    +0.000 HD
ATOM      3  H   UNL     1       4.653  -5.686  -9.086  0.00  0.00    +0.000 HD
ENDROOT
BRANCH   1   4
ATOM      4  C   UNL     1       5.284  -4.925 -11.003  0.00  0.00    +0.000 C 
ATOM      5  H   UNL     1       5.949  -5.232 -11.820  0.00  0.00    +0.000 HD
ATOM      6  H   UNL     1       5.782  -4.079 -10.514  0.00  0.00    +0.000 HD
BRANCH   4   7
ATOM      7  C   UNL     1       3.954  -4.463 -11.580  0.00  0.00    +0.000 C 
ATOM      8  H   UNL     1       4.089  -3.665 -12.318  0.00  0.00    +0.000 HD
ATOM      9  H   UNL     1       3.290  -4.097 -10.792  0.00  0.00    +0.000 HD
BRANCH   7  10
ATOM     10  O   UNL     1       3.321  -5.565 -12.216  0.00  0.00    +0.000 OA
ATOM     11  H   UNL     1       3.420  -6.337 -11.634  0.00  0.00    +0.000 HD
ENDBRANCH   7  10
ENDBRANCH   4   7
ENDBRANCH   1   4
BRANCH   1  12
ATOM     12  C   UNL     1       6.435  -6.745  -9.688  0.00  0.00    +0.000 C 
ATOM     13  H   UNL     1       6.274  -7.809  -9.483  0.00  0.00    +0.000 HD
ATOM     14  H   UNL     1       7.105  -6.679 -10.553  0.00  0.00    +0.000 HD
BRANCH  12  15
ATOM     15  C   UNL     1       7.109  -6.099  -8.488  0.00  0.00    +0.000 C 
ATOM     16  H   UNL     1       7.538  -5.128  -8.753  0.00  0.00    +0.000 HD
ATOM     17  H   UNL     1       6.395  -5.948  -7.672  0.00  0.00    +0.000 HD
ATOM     18  H   UNL     1       7.917  -6.739  -8.118  0.00  0.00    +0.000 HD
ENDBRANCH  12  15
ENDBRANCH   1  12
TORSDOF 5
ENDMDL
MODEL 3
REMARK VINA RESULT:    -3.758      4.766      5.819
REMARK INTER + INTRA:          -4.646
REMARK INTER:                  -4.634
REMARK INTRA:                  -0.012
REMARK UNBOUND:                -0.009
REMARK  Name = 6276
REMARK  5 active torsions:
REMARK  status: ('A' for Active; 'I' for Inactive)
REMARK    1  A    between atoms: O_1  and  C_5
REMARK    2  A    between atoms: C_2  and  C_3
REMARK    3  A    between atoms: C_2  and  C_4
REMARK    4  A    between atoms: C_3  and  C_5
REMARK    5  A    between atoms: C_4  and  C_6
REMARK                            x       y       z     vdW  Elec       q    Type
REMARK                         _______ _______ _______ _____ _____    ______ ____
ROOT
ATOM      1  C   UNL     1       1.541  -5.163  -6.372  0.00  0.00    +0.000 C 
ATOM      2  H   UNL     1       1.863  -4.131  -6.190  0.00  0.00    +0.000 HD
ATOM      3  H   UNL     1       0.955  -5.160  -7.300  0.00  0.00    +0.000 HD
ENDROOT
BRANCH   1   4
ATOM      4  C   UNL     1       0.664  -5.639  -5.216  0.00  0.00    +0.000 C 
ATOM      5  H   UNL     1       0.973  -5.158  -4.280  0.00  0.00    +0.000 HD
ATOM      6  H   UNL     1       0.799  -6.716  -5.059  0.00  0.00    +0.000 HD
BRANCH   4   7
ATOM      7  C   UNL     1      -0.809  -5.348  -5.471  0.00  0.00    +0.000 C 
ATOM      8  H   UNL     1      -1.264  -6.106  -6.118  0.00  0.00    +0.000 HD
ATOM      9  H   UNL     1      -0.939  -4.368  -5.942  0.00  0.00    +0.000 HD
BRANCH   7  10
ATOM     10  O   UNL     1      -1.497  -5.339  -4.229  0.00  0.00    +0.000 OA
ATOM     11  H   UNL     1      -1.681  -4.412  -4.001  0.00  0.00    +0.000 HD
ENDBRANCH   7  10
ENDBRANCH   4   7
ENDBRANCH   1   4
BRANCH   1  12
ATOM     12  C   UNL     1       2.765  -6.061  -6.546  0.00  0.00    +0.000 C 
ATOM     13  H   UNL     1       3.680  -5.481  -6.377  0.00  0.00    +0.000 HD
ATOM     14  H   UNL     1       2.748  -6.864  -5.800  0.00  0.00    +0.000 HD
BRANCH  12  15
ATOM     15  C   UNL     1       2.812  -6.676  -7.936  0.00  0.00    +0.000 C 
ATOM     16  H   UNL     1       3.420  -6.069  -8.614  0.00  0.00    +0.000 HD
ATOM     17  H   UNL     1       3.236  -7.685  -7.905  0.00  0.00    +0.000 HD
ATOM     18  H   UNL     1       1.802  -6.745  -8.354  0.00  0.00    +0.000 HD
ENDBRANCH  12  15
ENDBRANCH   1  12
TORSDOF 5
ENDMDL
MODEL 4
REMARK VINA RESULT:    -3.720      1.693      2.234
REMARK INTER + INTRA:          -4.599
REMARK INTER:                  -4.589
REMARK INTRA:                  -0.010
REMARK UNBOUND:                -0.009
REMARK  Name = 6276
REMARK  5 active torsions:
REMARK  status: ('A' for Active; 'I' for Inactive)
REMARK    1  A    between atoms: O_1  and  C_5
REMARK    2  A    between atoms: C_2  and  C_3
REMARK    3  A    between atoms: C_2  and  C_4
REMARK    4  A    between atoms: C_3  and  C_5
REMARK    5  A    between atoms: C_4  and  C_6
REMARK                            x       y       z     vdW  Elec       q    Type
REMARK                         _______ _______ _______ _____ _____    ______ ____
ROOT
ATOM      1  C   UNL     1       4.007  -6.390  -9.161  0.00  0.00    +0.000 C 
ATOM      2  H   UNL     1       4.055  -5.308  -8.991  0.00  0.00    +0.000 HD
ATOM      3  H   UNL     1       3.724  -6.541 -10.211  0.00  0.00    +0.000 HD
ENDROOT
BRANCH   1   4
ATOM      4  C   UNL     1       2.944  -7.005  -8.254  0.00  0.00    +0.000 C 
ATOM      5  H   UNL     1       3.417  -7.547  -7.426  0.00  0.00    +0.000 HD
ATOM      6  H   UNL     1       2.363  -7.754  -8.807  0.00  0.00    +0.000 HD
BRANCH   4   7
ATOM      7  C   UNL     1       2.002  -5.949  -7.695  0.00  0.00    +0.000 C 
ATOM      8  H   UNL     1       2.550  -5.146  -7.189  0.00  0.00    +0.000 HD
ATOM      9  H   UNL     1       1.297  -6.388  -6.982  0.00  0.00    +0.000 HD
BRANCH   7  10
ATOM     10  O   UNL     1       1.257  -5.385  -8.764  0.00  0.00    +0.000 OA
ATOM     11  H   UNL     1       1.892  -5.047  -9.419  0.00  0.00    +0.000 HD
ENDBRANCH   7  10
ENDBRANCH   4   7
ENDBRANCH   1   4
BRANCH   1  12
ATOM     12  C   UNL     1       5.380  -7.012  -8.909  0.00  0.00    +0.000 C 
ATOM     13  H   UNL     1       5.418  -7.434  -7.898  0.00  0.00    +0.000 HD
ATOM     14  H   UNL     1       5.550  -7.837  -9.611  0.00  0.00    +0.000 HD
BRANCH  12  15
ATOM     15  C   UNL     1       6.493  -5.989  -9.068  0.00  0.00    +0.000 C 
ATOM     16  H   UNL     1       6.837  -5.939 -10.105  0.00  0.00    +0.000 HD
ATOM     17  H   UNL     1       6.153  -4.991  -8.771  0.00  0.00    +0.000 HD
ATOM     18  H   UNL     1       7.347  -6.258  -8.438  0.00  0.00    +0.000 HD
ENDBRANCH  12  15
ENDBRANCH   1  12
TORSDOF 5
ENDMDL
MODEL 5
REMARK VINA RESULT:    -3.629      5.639      6.665
REMARK INTER + INTRA:          -4.487
REMARK INTER:                  -4.450
REMARK INTRA:                  -0.037
REMARK UNBOUND:                -0.009
REMARK  Name = 6276
REMARK  5 active torsions:
REMARK  status: ('A' for Active; 'I' for Inactive)
REMARK    1  A    between atoms: O_1  and  C_5
REMARK    2  A    between atoms: C_2  and  C_3
REMARK    3  A    between atoms: C_2  and  C_4
REMARK    4  A    between atoms: C_3  and  C_5
REMARK    5  A    between atoms: C_4  and  C_6
REMARK                            x       y       z     vdW  Elec       q    Type
REMARK                         _______ _______ _______ _____ _____    ______ ____
ROOT
ATOM      1  C   UNL     1      -0.009  -5.879  -7.481  0.00  0.00    +0.000 C 
ATOM      2  H   UNL     1      -1.017  -5.790  -7.901  0.00  0.00    +0.000 HD
ATOM      3  H   UNL     1       0.310  -6.920  -7.620  0.00  0.00    +0.000 HD
ENDROOT
BRANCH   1   4
ATOM      4  C   UNL     1      -0.044  -5.553  -5.989  0.00  0.00    +0.000 C 
ATOM      5  H   UNL     1       0.587  -4.682  -5.775  0.00  0.00    +0.000 HD
ATOM      6  H   UNL     1       0.385  -6.382  -5.412  0.00  0.00    +0.000 HD
BRANCH   4   7
ATOM      7  C   UNL     1      -1.462  -5.281  -5.506  0.00  0.00    +0.000 C 
ATOM      8  H   UNL     1      -2.181  -5.972  -5.959  0.00  0.00    +0.000 HD
ATOM      9  H   UNL     1      -1.768  -4.258  -5.743  0.00  0.00    +0.000 HD
BRANCH   7  10
ATOM     10  O   UNL     1      -1.505  -5.443  -4.096  0.00  0.00    +0.000 OA
ATOM     11  H   UNL     1      -2.359  -5.097  -3.786  0.00  0.00    +0.000 HD
ENDBRANCH   7  10
ENDBRANCH   4   7
ENDBRANCH   1   4
BRANCH   1  12
ATOM     12  C   UNL     1       0.945  -4.949  -8.230  0.00  0.00    +0.000 C 
ATOM     13  H   UNL     1       1.955  -5.039  -7.815  0.00  0.00    +0.000 HD
ATOM     14  H   UNL     1       1.000  -5.243  -9.285  0.00  0.00    +0.000 HD
BRANCH  12  15
ATOM     15  C   UNL     1       0.494  -3.500  -8.142  0.00  0.00    +0.000 C 
ATOM     16  H   UNL     1       0.975  -2.891  -8.914  0.00  0.00    +0.000 HD
ATOM     17  H   UNL     1      -0.591  -3.418  -8.267  0.00  0.00    +0.000 HD
ATOM     18  H   UNL     1       0.756  -3.081  -7.165  0.00  0.00    +0.000 HD
ENDBRANCH  12  15
ENDBRANCH   1  12
TORSDOF 5
ENDMDL
MODEL 6
REMARK VINA RESULT:    -3.573      2.960      3.796
REMARK INTER + INTRA:          -4.418
REMARK INTER:                  -4.408
REMARK INTRA:                  -0.010
REMARK UNBOUND:                -0.009
REMARK  Name = 6276
REMARK  5 active torsions:
REMARK  status: ('A' for Active; 'I' for Inactive)
REMARK    1  A    between atoms: O_1  and  C_5
REMARK    2  A    between atoms: C_2  and  C_3
REMARK    3  A    between atoms: C_2  and  C_4
REMARK    4  A    between atoms: C_3  and  C_5
REMARK    5  A    between atoms: C_4  and  C_6
REMARK                            x       y       z     vdW  Elec       q    Type
REMARK                         _______ _______ _______ _____ _____    ______ ____
ROOT
ATOM      1  C   UNL     1       2.892  -6.528  -8.121  0.00  0.00    +0.000 C 
ATOM      2  H   UNL     1       2.741  -5.607  -8.695  0.00  0.00    +0.000 HD
ATOM      3  H   UNL     1       2.025  -7.174  -8.310  0.00  0.00    +0.000 HD
ENDROOT
BRANCH   1   4
ATOM      4  C   UNL     1       2.967  -6.199  -6.632  0.00  0.00    +0.000 C 
ATOM      5  H   UNL     1       3.874  -5.622  -6.414  0.00  0.00    +0.000 HD
ATOM      6  H   UNL     1       3.051  -7.122  -6.045  0.00  0.00    +0.000 HD
BRANCH   4   7
ATOM      7  C   UNL     1       1.746  -5.417  -6.167  0.00  0.00    +0.000 C 
ATOM      8  H   UNL     1       0.816  -5.948  -6.395  0.00  0.00    +0.000 HD
ATOM      9  H   UNL     1       1.707  -4.431  -6.641  0.00  0.00    +0.000 HD
BRANCH   7  10
ATOM     10  O   UNL     1       1.828  -5.230  -4.762  0.00  0.00    +0.000 OA
ATOM     11  H   UNL     1       2.123  -6.069  -4.370  0.00  0.00    +0.000 HD
ENDBRANCH   7  10
ENDBRANCH   4   7
ENDBRANCH   1   4
BRANCH   1  12
ATOM     12  C   UNL     1       4.163  -7.229  -8.599  0.00  0.00    +0.000 C 
ATOM     13  H   UNL     1       4.782  -7.506  -7.738  0.00  0.00    +0.000 HD
ATOM     14  H   UNL     1       3.903  -8.156  -9.122  0.00  0.00    +0.000 HD
BRANCH  12  15
ATOM     15  C   UNL     1       4.971  -6.342  -9.533  0.00  0.00    +0.000 C 
ATOM     16  H   UNL     1       5.761  -6.912 -10.031  0.00  0.00    +0.000 HD
ATOM     17  H   UNL     1       4.332  -5.897 -10.302  0.00  0.00    +0.000 HD
ATOM     18  H   UNL     1       5.441  -5.529  -8.970  0.00  0.00    +0.000 HD
ENDBRANCH  12  15
ENDBRANCH   1  12
TORSDOF 5
ENDMDL
MODEL 7
REMARK VINA RESULT:    -3.453     25.299     25.623
REMARK INTER + INTRA:          -4.269
REMARK INTER:                  -4.196
REMARK INTRA:                  -0.074
REMARK UNBOUND:                -0.009
REMARK  Name = 6276
REMARK  5 active torsions:
REMARK  status: ('A' for Active; 'I' for Inactive)
REMARK    1  A    between atoms: O_1  and  C_5
REMARK    2  A    between atoms: C_2  and  C_3
REMARK    3  A    between atoms: C_2  and  C_4
REMARK    4  A    between atoms: C_3  and  C_5
REMARK    5  A    between atoms: C_4  and  C_6
REMARK                            x       y       z     vdW  Elec       q    Type
REMARK                         _______ _______ _______ _____ _____    ______ ____
ROOT
ATOM      1  C   UNL     1     -15.139 -16.623   4.022  0.00  0.00    +0.000 C 
ATOM      2  H   UNL     1     -14.802 -17.420   3.349  0.00  0.00    +0.000 HD
ATOM      3  H   UNL     1     -15.802 -17.086   4.765  0.00  0.00    +0.000 HD
ENDROOT
BRANCH   1   4
ATOM      4  C   UNL     1     -15.917 -15.576   3.227  0.00  0.00    +0.000 C 
ATOM      5  H   UNL     1     -15.497 -14.578   3.400  0.00  0.00    +0.000 HD
ATOM      6  H   UNL     1     -16.954 -15.529   3.581  0.00  0.00    +0.000 HD
BRANCH   4   7
ATOM      7  C   UNL     1     -15.905 -15.879   1.736  0.00  0.00    +0.000 C 
ATOM      8  H   UNL     1     -16.891 -15.723   1.285  0.00  0.00    +0.000 HD
ATOM      9  H   UNL     1     -15.599 -16.913   1.547  0.00  0.00    +0.000 HD
BRANCH   7  10
ATOM     10  O   UNL     1     -14.974 -15.017   1.099  0.00  0.00    +0.000 OA
ATOM     11  H   UNL     1     -14.457 -14.576   1.795  0.00  0.00    +0.000 HD
ENDBRANCH   7  10
ENDBRANCH   4   7
ENDBRANCH   1   4
BRANCH   1  12
ATOM     12  C   UNL     1     -13.935 -16.003   4.729  0.00  0.00    +0.000 C 
ATOM     13  H   UNL     1     -13.727 -16.548   5.657  0.00  0.00    +0.000 HD
ATOM     14  H   UNL     1     -13.045 -16.089   4.096  0.00  0.00    +0.000 HD
BRANCH  12  15
ATOM     15  C   UNL     1     -14.174 -14.536   5.053  0.00  0.00    +0.000 C 
ATOM     16  H   UNL     1     -14.052 -14.345   6.123  0.00  0.00    +0.000 HD
ATOM     17  H   UNL     1     -13.474 -13.895   4.507  0.00  0.00    +0.000 HD
ATOM     18  H   UNL     1     -15.191 -14.247   4.769  0.00  0.00    +0.000 HD
ENDBRANCH  12  15
ENDBRANCH   1  12
TORSDOF 5
ENDMDL
MODEL 8
REMARK VINA RESULT:    -3.345     13.453     14.132
REMARK INTER + INTRA:          -4.136
REMARK INTER:                  -4.085
REMARK INTRA:                  -0.051
REMARK UNBOUND:                -0.009
REMARK  Name = 6276
REMARK  5 active torsions:
REMARK  status: ('A' for Active; 'I' for Inactive)
REMARK    1  A    between atoms: O_1  and  C_5
REMARK    2  A    between atoms: C_2  and  C_3
REMARK    3  A    between atoms: C_2  and  C_4
REMARK    4  A    between atoms: C_3  and  C_5
REMARK    5  A    between atoms: C_4  and  C_6
REMARK                            x       y       z     vdW  Elec       q    Type
REMARK                         _______ _______ _______ _____ _____    ______ ____
ROOT
ATOM      1  C   UNL     1      16.486  -5.711  -3.222  0.00  0.00    +0.000 C 
ATOM      2  H   UNL     1      15.760  -5.442  -3.998  0.00  0.00    +0.000 HD
ATOM      3  H   UNL     1      16.075  -6.571  -2.679  0.00  0.00    +0.000 HD
ENDROOT
BRANCH   1   4
ATOM      4  C   UNL     1      16.666  -4.539  -2.259  0.00  0.00    +0.000 C 
ATOM      5  H   UNL     1      16.156  -4.745  -1.310  0.00  0.00    +0.000 HD
ATOM      6  H   UNL     1      16.187  -3.640  -2.667  0.00  0.00    +0.000 HD
BRANCH   4   7
ATOM      7  C   UNL     1      18.136  -4.251  -1.992  0.00  0.00    +0.000 C 
ATOM      8  H   UNL     1      18.786  -4.983  -2.485  0.00  0.00    +0.000 HD
ATOM      9  H   UNL     1      18.351  -4.265  -0.919  0.00  0.00    +0.000 HD
BRANCH   7  10
ATOM     10  O   UNL     1      18.450  -2.959  -2.491  0.00  0.00    +0.000 OA
ATOM     11  H   UNL     1      18.249  -2.954  -3.443  0.00  0.00    +0.000 HD
ENDBRANCH   7  10
ENDBRANCH   4   7
ENDBRANCH   1   4
BRANCH   1  12
ATOM     12  C   UNL     1      17.812  -6.105  -3.872  0.00  0.00    +0.000 C 
ATOM     13  H   UNL     1      18.437  -5.215  -4.009  0.00  0.00    +0.000 HD
ATOM     14  H   UNL     1      18.361  -6.788  -3.215  0.00  0.00    +0.000 HD
BRANCH  12  15
ATOM     15  C   UNL     1      17.594  -6.777  -5.218  0.00  0.00    +0.000 C 
ATOM     16  H   UNL     1      18.505  -6.748  -5.824  0.00  0.00    +0.000 HD
ATOM     17  H   UNL     1      17.300  -7.824  -5.090  0.00  0.00    +0.000 HD
ATOM     18  H   UNL     1      16.800  -6.267  -5.772  0.00  0.00    +0.000 HD
ENDBRANCH  12  15
ENDBRANCH   1  12
TORSDOF 5
ENDMDL
MODEL 9
REMARK VINA RESULT:    -3.305     38.255     38.743
REMARK INTER + INTRA:          -4.087
REMARK INTER:                  -4.030
REMARK INTRA:                  -0.057
REMARK UNBOUND:                -0.009
REMARK  Name = 6276
REMARK  5 active torsions:
REMARK  status: ('A' for Active; 'I' for Inactive)
REMARK    1  A    between atoms: O_1  and  C_5
REMARK    2  A    between atoms: C_2  and  C_3
REMARK    3  A    between atoms: C_2  and  C_4
REMARK    4  A    between atoms: C_3  and  C_5
REMARK    5  A    between atoms: C_4  and  C_6
REMARK                            x       y       z     vdW  Elec       q    Type
REMARK                         _______ _______ _______ _____ _____    ______ ____
ROOT
ATOM      1  C   UNL     1      -5.761   4.841  26.020  0.00  0.00    +0.000 C 
ATOM      2  H   UNL     1      -6.181   5.853  26.017  0.00  0.00    +0.000 HD
ATOM      3  H   UNL     1      -6.593   4.145  26.188  0.00  0.00    +0.000 HD
ENDROOT
BRANCH   1   4
ATOM      4  C   UNL     1      -4.749   4.708  27.156  0.00  0.00    +0.000 C 
ATOM      5  H   UNL     1      -4.789   5.590  27.807  0.00  0.00    +0.000 HD
ATOM      6  H   UNL     1      -3.730   4.681  26.751  0.00  0.00    +0.000 HD
BRANCH   4   7
ATOM      7  C   UNL     1      -4.996   3.455  27.985  0.00  0.00    +0.000 C 
ATOM      8  H   UNL     1      -4.455   3.488  28.937  0.00  0.00    +0.000 HD
ATOM      9  H   UNL     1      -4.685   2.557  27.442  0.00  0.00    +0.000 HD
BRANCH   7  10
ATOM     10  O   UNL     1      -6.386   3.350  28.257  0.00  0.00    +0.000 OA
ATOM     11  H   UNL     1      -6.504   2.647  28.918  0.00  0.00    +0.000 HD
ENDBRANCH   7  10
ENDBRANCH   4   7
ENDBRANCH   1   4
BRANCH   1  12
ATOM     12  C   UNL     1      -5.117   4.546  24.665  0.00  0.00    +0.000 C 
ATOM     13  H   UNL     1      -5.359   3.524  24.353  0.00  0.00    +0.000 HD
ATOM     14  H   UNL     1      -5.523   5.223  23.904  0.00  0.00    +0.000 HD
BRANCH  12  15
ATOM     15  C   UNL     1      -3.607   4.710  24.719  0.00  0.00    +0.000 C 
ATOM     16  H   UNL     1      -3.254   4.766  25.754  0.00  0.00    +0.000 HD
ATOM     17  H   UNL     1      -3.103   3.870  24.230  0.00  0.00    +0.000 HD
ATOM     18  H   UNL     1      -3.307   5.630  24.207  0.00  0.00    +0.000 HD
ENDBRANCH  12  15
ENDBRANCH   1  12
TORSDOF 5
ENDMDL
MODEL 10
REMARK VINA RESULT:    -3.275     25.462     25.892
REMARK INTER + INTRA:          -4.050
REMARK INTER:                  -4.041
REMARK INTRA:                  -0.009
REMARK UNBOUND:                -0.009
REMARK  Name = 6276
REMARK  5 active torsions:
REMARK  status: ('A' for Active; 'I' for Inactive)
REMARK    1  A    between atoms: O_1  and  C_5
REMARK    2  A    between atoms: C_2  and  C_3
REMARK    3  A    between atoms: C_2  and  C_4
REMARK    4  A    between atoms: C_3  and  C_5
REMARK    5  A    between atoms: C_4  and  C_6
REMARK                            x       y       z     vdW  Elec       q    Type
REMARK                         _______ _______ _______ _____ _____    ______ ____
ROOT
ATOM      1  C   UNL     1      12.182  18.322 -11.309  0.00  0.00    +0.000 C 
ATOM      2  H   UNL     1      12.569  18.957 -12.114  0.00  0.00    +0.000 HD
ATOM      3  H   UNL     1      11.216  17.925 -11.646  0.00  0.00    +0.000 HD
ENDROOT
BRANCH   1   4
ATOM      4  C   UNL     1      11.975  19.160 -10.049  0.00  0.00    +0.000 C 
ATOM      5  H   UNL     1      12.911  19.657  -9.765  0.00  0.00    +0.000 HD
ATOM      6  H   UNL     1      11.713  18.512  -9.204  0.00  0.00    +0.000 HD
BRANCH   4   7
ATOM      7  C   UNL     1      10.885  20.205 -10.241  0.00  0.00    +0.000 C 
ATOM      8  H   UNL     1      10.377  20.086 -11.204  0.00  0.00    +0.000 HD
ATOM      9  H   UNL     1      11.298  21.217 -10.191  0.00  0.00    +0.000 HD
BRANCH   7  10
ATOM     10  O   UNL     1       9.927  20.065  -9.202  0.00  0.00    +0.000 OA
ATOM     11  H   UNL     1       9.916  19.130  -8.935  0.00  0.00    +0.000 HD
ENDBRANCH   7  10
ENDBRANCH   4   7
ENDBRANCH   1   4
BRANCH   1  12
ATOM     12  C   UNL     1      13.148  17.166 -11.055  0.00  0.00    +0.000 C 
ATOM     13  H   UNL     1      14.180  17.507 -11.193  0.00  0.00    +0.000 HD
ATOM     14  H   UNL     1      13.056  16.824 -10.018  0.00  0.00    +0.000 HD
BRANCH  12  15
ATOM     15  C   UNL     1      12.876  15.998 -11.989  0.00  0.00    +0.000 C 
ATOM     16  H   UNL     1      13.808  15.600 -12.403  0.00  0.00    +0.000 HD
ATOM     17  H   UNL     1      12.361  15.187 -11.463  0.00  0.00    +0.000 HD
ATOM     18  H   UNL     1      12.243  16.319 -12.822  0.00  0.00    +0.000 HD
ENDBRANCH  12  15
ENDBRANCH   1  12
TORSDOF 5
ENDMDL
