MODEL 1
REMARK VINA RESULT:    -4.474      0.000      0.000
REMARK INTER + INTRA:          -6.962
REMARK INTER:                  -6.011
REMARK INTRA:                  -0.951
REMARK UNBOUND:                -0.396
REMARK  Name = 12741
REMARK  9 active torsions:
REMARK  status: ('A' for Active; 'I' for Inactive)
REMARK    1  A    between atoms: C_2  and  C_3
REMARK    2  A    between atoms: C_2  and  C_4
REMARK    3  A    between atoms: C_3  and  C_5
REMARK    4  A    between atoms: C_4  and  C_6
REMARK    5  A    between atoms: C_5  and  C_7
REMARK    6  A    between atoms: C_6  and  C_8
REMARK    7  A    between atoms: C_7  and  C_9
REMARK    8  A    between atoms: C_8  and  C_10
REMARK    9  A    between atoms: C_10  and  C_11
REMARK                            x       y       z     vdW  Elec       q    Type
REMARK                         _______ _______ _______ _____ _____    ______ ____
ROOT
ATOM      1  C   UNL     1      -8.132 -14.806   6.899  0.00  0.00    +0.000 C 
ATOM      2  H   UNL     1      -7.216 -15.262   7.295  0.00  0.00    +0.000 HD
ATOM      3  H   UNL     1      -8.884 -14.845   7.696  0.00  0.00    +0.000 HD
ENDROOT
BRANCH   1   4
ATOM      4  C   UNL     1      -8.624 -15.606   5.692  0.00  0.00    +0.000 C 
ATOM      5  H   UNL     1      -8.844 -14.924   4.862  0.00  0.00    +0.000 HD
ATOM      6  H   UNL     1      -9.559 -16.117   5.947  0.00  0.00    +0.000 HD
BRANCH   4   7
ATOM      7  C   UNL     1      -7.585 -16.638   5.248  0.00  0.00    +0.000 C 
ATOM      8  H   UNL     1      -8.047 -17.632   5.210  0.00  0.00    +0.000 HD
ATOM      9  H   UNL     1      -7.244 -16.402   4.233  0.00  0.00    +0.000 HD
BRANCH   7  10
ATOM     10  C   UNL     1      -6.387 -16.663   6.197  0.00  0.00    +0.000 C 
ATOM     11  H   UNL     1      -6.542 -15.947   7.012  0.00  0.00    +0.000 HD
ATOM     12  H   UNL     1      -6.292 -17.657   6.650  0.00  0.00    +0.000 HD
BRANCH  10  13
ATOM     13  C   UNL     1      -5.095 -16.318   5.473  0.00  0.00    +0.000 C 
ATOM     14  H   UNL     1      -4.283 -16.984   5.781  0.00  0.00    +0.000 HD
ATOM     15  H   UNL     1      -4.797 -15.290   5.701  0.00  0.00    +0.000 HD
ATOM     16  H   UNL     1      -5.218 -16.404   4.388  0.00  0.00    +0.000 HD
ENDBRANCH  10  13
ENDBRANCH   7  10
ENDBRANCH   4   7
ENDBRANCH   1   4
BRANCH   1  17
ATOM     17  C   UNL     1      -7.860 -13.347   6.526  0.00  0.00    +0.000 C 
ATOM     18  H   UNL     1      -6.869 -13.052   6.890  0.00  0.00    +0.000 HD
ATOM     19  H   UNL     1      -8.593 -12.700   7.023  0.00  0.00    +0.000 HD
BRANCH  17  20
ATOM     20  C   UNL     1      -7.930 -13.137   5.013  0.00  0.00    +0.000 C 
ATOM     21  H   UNL     1      -8.281 -14.055   4.526  0.00  0.00    +0.000 HD
ATOM     22  H   UNL     1      -8.668 -12.357   4.784  0.00  0.00    +0.000 HD
BRANCH  20  23
ATOM     23  C   UNL     1      -6.571 -12.739   4.444  0.00  0.00    +0.000 C 
ATOM     24  H   UNL     1      -5.789 -12.899   5.196  0.00  0.00    +0.000 HD
ATOM     25  H   UNL     1      -6.577 -11.679   4.169  0.00  0.00    +0.000 HD
BRANCH  23  27
ATOM     26  O   UNL     1      -5.038 -13.811   2.912  0.00  0.00    +0.000 OA
ATOM     27  C   UNL     1      -6.200 -13.538   3.206  0.00  0.00    +0.000 C 
BRANCH  27  28
ATOM     28  C   UNL     1      -7.348 -13.987   2.340  0.00  0.00    +0.000 C 
ATOM     29  H   UNL     1      -7.963 -14.703   2.889  0.00  0.00    +0.000 HD
ATOM     30  H   UNL     1      -7.946 -13.121   2.046  0.00  0.00    +0.000 HD
ATOM     31  H   UNL     1      -6.961 -14.472   1.439  0.00  0.00    +0.000 HD
ENDBRANCH  27  28
ENDBRANCH  23  27
ENDBRANCH  20  23
ENDBRANCH  17  20
ENDBRANCH   1  17
TORSDOF 9
ENDMDL
MODEL 2
REMARK VINA RESULT:    -4.339      3.084      4.930
REMARK INTER + INTRA:          -6.763
REMARK INTER:                  -6.215
REMARK INTRA:                  -0.549
REMARK UNBOUND:                -0.396
REMARK  Name = 12741
REMARK  9 active torsions:
REMARK  status: ('A' for Active; 'I' for Inactive)
REMARK    1  A    between atoms: C_2  and  C_3
REMARK    2  A    between atoms: C_2  and  C_4
REMARK    3  A    between atoms: C_3  and  C_5
REMARK    4  A    between atoms: C_4  and  C_6
REMARK    5  A    between atoms: C_5  and  C_7
REMARK    6  A    between atoms: C_6  and  C_8
REMARK    7  A    between atoms: C_7  and  C_9
REMARK    8  A    between atoms: C_8  and  C_10
REMARK    9  A    between atoms: C_10  and  C_11
REMARK                            x       y       z     vdW  Elec       q    Type
REMARK                         _______ _______ _______ _____ _____    ______ ____
ROOT
ATOM      1  C   UNL     1      -5.356 -15.446   1.465  0.00  0.00    +0.000 C 
ATOM      2  H   UNL     1      -5.405 -15.092   2.502  0.00  0.00    +0.000 HD
ATOM      3  H   UNL     1      -5.672 -16.496   1.466  0.00  0.00    +0.000 HD
ENDROOT
BRANCH   1   4
ATOM      4  C   UNL     1      -3.918 -15.344   0.954  0.00  0.00    +0.000 C 
ATOM      5  H   UNL     1      -3.892 -14.729   0.047  0.00  0.00    +0.000 HD
ATOM      6  H   UNL     1      -3.555 -16.341   0.680  0.00  0.00    +0.000 HD
BRANCH   4   7
ATOM      7  C   UNL     1      -2.994 -14.739   2.013  0.00  0.00    +0.000 C 
ATOM      8  H   UNL     1      -3.133 -13.651   2.045  0.00  0.00    +0.000 HD
ATOM      9  H   UNL     1      -3.265 -15.127   3.001  0.00  0.00    +0.000 HD
BRANCH   7  10
ATOM     10  C   UNL     1      -1.529 -15.062   1.721  0.00  0.00    +0.000 C 
ATOM     11  H   UNL     1      -1.458 -15.705   0.836  0.00  0.00    +0.000 HD
ATOM     12  H   UNL     1      -0.981 -14.139   1.497  0.00  0.00    +0.000 HD
BRANCH  10  13
ATOM     13  C   UNL     1      -0.868 -15.763   2.897  0.00  0.00    +0.000 C 
ATOM     14  H   UNL     1       0.071 -15.271   3.169  0.00  0.00    +0.000 HD
ATOM     15  H   UNL     1      -0.645 -16.803   2.641  0.00  0.00    +0.000 HD
ATOM     16  H   UNL     1      -1.523 -15.761   3.775  0.00  0.00    +0.000 HD
ENDBRANCH  10  13
ENDBRANCH   7  10
ENDBRANCH   4   7
ENDBRANCH   1   4
BRANCH   1  17
ATOM     17  C   UNL     1      -6.314 -14.627   0.597  0.00  0.00    +0.000 C 
ATOM     18  H   UNL     1      -7.123 -15.271   0.233  0.00  0.00    +0.000 HD
ATOM     19  H   UNL     1      -5.779 -14.252  -0.284  0.00  0.00    +0.000 HD
BRANCH  17  20
ATOM     20  C   UNL     1      -6.908 -13.454   1.378  0.00  0.00    +0.000 C 
ATOM     21  H   UNL     1      -6.158 -12.662   1.485  0.00  0.00    +0.000 HD
ATOM     22  H   UNL     1      -7.744 -13.022   0.812  0.00  0.00    +0.000 HD
BRANCH  20  23
ATOM     23  C   UNL     1      -7.395 -13.894   2.756  0.00  0.00    +0.000 C 
ATOM     24  H   UNL     1      -7.043 -14.910   2.970  0.00  0.00    +0.000 HD
ATOM     25  H   UNL     1      -8.490 -13.891   2.783  0.00  0.00    +0.000 HD
BRANCH  23  27
ATOM     26  O   UNL     1      -7.603 -12.649   4.818  0.00  0.00    +0.000 OA
ATOM     27  C   UNL     1      -6.900 -12.983   3.867  0.00  0.00    +0.000 C 
BRANCH  27  28
ATOM     28  C   UNL     1      -5.478 -12.499   3.743  0.00  0.00    +0.000 C 
ATOM     29  H   UNL     1      -4.921 -13.164   3.079  0.00  0.00    +0.000 HD
ATOM     30  H   UNL     1      -5.472 -11.480   3.350  0.00  0.00    +0.000 HD
ATOM     31  H   UNL     1      -5.001 -12.501   4.727  0.00  0.00    +0.000 HD
ENDBRANCH  27  28
ENDBRANCH  23  27
ENDBRANCH  20  23
ENDBRANCH  17  20
ENDBRANCH   1  17
TORSDOF 9
ENDMDL
MODEL 3
REMARK VINA RESULT:    -4.324      2.334      4.647
REMARK INTER + INTRA:          -6.743
REMARK INTER:                  -6.263
REMARK INTRA:                  -0.479
REMARK UNBOUND:                -0.396
REMARK  Name = 12741
REMARK  9 active torsions:
REMARK  status: ('A' for Active; 'I' for Inactive)
REMARK    1  A    between atoms: C_2  and  C_3
REMARK    2  A    between atoms: C_2  and  C_4
REMARK    3  A    between atoms: C_3  and  C_5
REMARK    4  A    between atoms: C_4  and  C_6
REMARK    5  A    between atoms: C_5  and  C_7
REMARK    6  A    between atoms: C_6  and  C_8
REMARK    7  A    between atoms: C_7  and  C_9
REMARK    8  A    between atoms: C_8  and  C_10
REMARK    9  A    between atoms: C_10  and  C_11
REMARK                            x       y       z     vdW  Elec       q    Type
REMARK                         _______ _______ _______ _____ _____    ______ ____
ROOT
ATOM      1  C   UNL     1      -5.996 -13.451   4.751  0.00  0.00    +0.000 C 
ATOM      2  H   UNL     1      -5.275 -13.075   5.488  0.00  0.00    +0.000 HD
ATOM      3  H   UNL     1      -5.883 -14.541   4.715  0.00  0.00    +0.000 HD
ENDROOT
BRANCH   1   4
ATOM      4  C   UNL     1      -5.683 -12.857   3.377  0.00  0.00    +0.000 C 
ATOM      5  H   UNL     1      -4.641 -12.516   3.352  0.00  0.00    +0.000 HD
ATOM      6  H   UNL     1      -6.315 -11.977   3.206  0.00  0.00    +0.000 HD
BRANCH   4   7
ATOM      7  C   UNL     1      -5.918 -13.879   2.263  0.00  0.00    +0.000 C 
ATOM      8  H   UNL     1      -5.106 -13.816   1.529  0.00  0.00    +0.000 HD
ATOM      9  H   UNL     1      -5.897 -14.891   2.683  0.00  0.00    +0.000 HD
BRANCH   7  10
ATOM     10  C   UNL     1      -7.259 -13.643   1.567  0.00  0.00    +0.000 C 
ATOM     11  H   UNL     1      -7.908 -14.515   1.704  0.00  0.00    +0.000 HD
ATOM     12  H   UNL     1      -7.768 -12.785   2.021  0.00  0.00    +0.000 HD
BRANCH  10  13
ATOM     13  C   UNL     1      -7.077 -13.389   0.080  0.00  0.00    +0.000 C 
ATOM     14  H   UNL     1      -6.279 -14.016  -0.330  0.00  0.00    +0.000 HD
ATOM     15  H   UNL     1      -6.811 -12.342  -0.096  0.00  0.00    +0.000 HD
ATOM     16  H   UNL     1      -7.999 -13.603  -0.471  0.00  0.00    +0.000 HD
ENDBRANCH  10  13
ENDBRANCH   7  10
ENDBRANCH   4   7
ENDBRANCH   1   4
BRANCH   1  17
ATOM     17  C   UNL     1      -7.417 -13.101   5.198  0.00  0.00    +0.000 C 
ATOM     18  H   UNL     1      -7.901 -12.480   4.435  0.00  0.00    +0.000 HD
ATOM     19  H   UNL     1      -7.375 -12.507   6.119  0.00  0.00    +0.000 HD
BRANCH  17  20
ATOM     20  C   UNL     1      -8.252 -14.360   5.435  0.00  0.00    +0.000 C 
ATOM     21  H   UNL     1      -9.302 -14.161   5.187  0.00  0.00    +0.000 HD
ATOM     22  H   UNL     1      -7.915 -15.157   4.760  0.00  0.00    +0.000 HD
BRANCH  20  23
ATOM     23  C   UNL     1      -8.145 -14.834   6.881  0.00  0.00    +0.000 C 
ATOM     24  H   UNL     1      -9.055 -14.567   7.431  0.00  0.00    +0.000 HD
ATOM     25  H   UNL     1      -7.290 -14.353   7.369  0.00  0.00    +0.000 HD
BRANCH  23  27
ATOM     26  O   UNL     1      -8.741 -17.066   7.595  0.00  0.00    +0.000 OA
ATOM     27  C   UNL     1      -7.957 -16.337   6.990  0.00  0.00    +0.000 C 
BRANCH  27  28
ATOM     28  C   UNL     1      -6.738 -16.904   6.308  0.00  0.00    +0.000 C 
ATOM     29  H   UNL     1      -6.649 -16.480   5.306  0.00  0.00    +0.000 HD
ATOM     30  H   UNL     1      -5.848 -16.672   6.898  0.00  0.00    +0.000 HD
ATOM     31  H   UNL     1      -6.834 -17.990   6.225  0.00  0.00    +0.000 HD
ENDBRANCH  27  28
ENDBRANCH  23  27
ENDBRANCH  20  23
ENDBRANCH  17  20
ENDBRANCH   1  17
TORSDOF 9
ENDMDL
MODEL 4
REMARK VINA RESULT:    -4.316      2.158      4.316
REMARK INTER + INTRA:          -6.731
REMARK INTER:                  -6.202
REMARK INTRA:                  -0.528
REMARK UNBOUND:                -0.396
REMARK  Name = 12741
REMARK  9 active torsions:
REMARK  status: ('A' for Active; 'I' for Inactive)
REMARK    1  A    between atoms: C_2  and  C_3
REMARK    2  A    between atoms: C_2  and  C_4
REMARK    3  A    between atoms: C_3  and  C_5
REMARK    4  A    between atoms: C_4  and  C_6
REMARK    5  A    between atoms: C_5  and  C_7
REMARK    6  A    between atoms: C_6  and  C_8
REMARK    7  A    between atoms: C_7  and  C_9
REMARK    8  A    between atoms: C_8  and  C_10
REMARK    9  A    between atoms: C_10  and  C_11
REMARK                            x       y       z     vdW  Elec       q    Type
REMARK                         _______ _______ _______ _____ _____    ______ ____
ROOT
ATOM      1  C   UNL     1      -8.479 -15.348   6.396  0.00  0.00    +0.000 C 
ATOM      2  H   UNL     1      -8.857 -15.510   5.379  0.00  0.00    +0.000 HD
ATOM      3  H   UNL     1      -9.343 -15.380   7.071  0.00  0.00    +0.000 HD
ENDROOT
BRANCH   1   4
ATOM      4  C   UNL     1      -7.811 -13.975   6.484  0.00  0.00    +0.000 C 
ATOM      5  H   UNL     1      -6.723 -14.097   6.542  0.00  0.00    +0.000 HD
ATOM      6  H   UNL     1      -8.130 -13.471   7.404  0.00  0.00    +0.000 HD
BRANCH   4   7
ATOM      7  C   UNL     1      -8.168 -13.105   5.276  0.00  0.00    +0.000 C 
ATOM      8  H   UNL     1      -9.069 -13.500   4.792  0.00  0.00    +0.000 HD
ATOM      9  H   UNL     1      -8.401 -12.089   5.614  0.00  0.00    +0.000 HD
BRANCH   7  10
ATOM     10  C   UNL     1      -7.020 -13.058   4.268  0.00  0.00    +0.000 C 
ATOM     11  H   UNL     1      -6.768 -12.016   4.038  0.00  0.00    +0.000 HD
ATOM     12  H   UNL     1      -6.126 -13.522   4.699  0.00  0.00    +0.000 HD
BRANCH  10  13
ATOM     13  C   UNL     1      -7.383 -13.776   2.978  0.00  0.00    +0.000 C 
ATOM     14  H   UNL     1      -7.350 -14.862   3.111  0.00  0.00    +0.000 HD
ATOM     15  H   UNL     1      -6.678 -13.509   2.184  0.00  0.00    +0.000 HD
ATOM     16  H   UNL     1      -8.390 -13.501   2.645  0.00  0.00    +0.000 HD
ENDBRANCH  10  13
ENDBRANCH   7  10
ENDBRANCH   4   7
ENDBRANCH   1   4
BRANCH   1  17
ATOM     17  C   UNL     1      -7.502 -16.466   6.766  0.00  0.00    +0.000 C 
ATOM     18  H   UNL     1      -7.953 -17.440   6.539  0.00  0.00    +0.000 HD
ATOM     19  H   UNL     1      -7.311 -16.443   7.846  0.00  0.00    +0.000 HD
BRANCH  17  20
ATOM     20  C   UNL     1      -6.183 -16.327   6.005  0.00  0.00    +0.000 C 
ATOM     21  H   UNL     1      -6.383 -16.203   4.934  0.00  0.00    +0.000 HD
ATOM     22  H   UNL     1      -5.662 -15.420   6.336  0.00  0.00    +0.000 HD
BRANCH  20  23
ATOM     23  C   UNL     1      -5.285 -17.542   6.224  0.00  0.00    +0.000 C 
ATOM     24  H   UNL     1      -5.285 -18.174   5.328  0.00  0.00    +0.000 HD
ATOM     25  H   UNL     1      -5.656 -18.133   7.068  0.00  0.00    +0.000 HD
BRANCH  23  27
ATOM     26  O   UNL     1      -3.163 -17.735   7.367  0.00  0.00    +0.000 OA
ATOM     27  C   UNL     1      -3.846 -17.157   6.524  0.00  0.00    +0.000 C 
BRANCH  27  28
ATOM     28  C   UNL     1      -3.287 -16.009   5.724  0.00  0.00    +0.000 C 
ATOM     29  H   UNL     1      -2.213 -15.926   5.904  0.00  0.00    +0.000 HD
ATOM     30  H   UNL     1      -3.480 -16.175   4.661  0.00  0.00    +0.000 HD
ATOM     31  H   UNL     1      -3.769 -15.076   6.030  0.00  0.00    +0.000 HD
ENDBRANCH  27  28
ENDBRANCH  23  27
ENDBRANCH  20  23
ENDBRANCH  17  20
ENDBRANCH   1  17
TORSDOF 9
ENDMDL
MODEL 5
REMARK VINA RESULT:    -4.267      1.553      3.489
REMARK INTER + INTRA:          -6.658
REMARK INTER:                  -5.754
REMARK INTRA:                  -0.904
REMARK UNBOUND:                -0.396
REMARK  Name = 12741
REMARK  9 active torsions:
REMARK  status: ('A' for Active; 'I' for Inactive)
REMARK    1  A    between atoms: C_2  and  C_3
REMARK    2  A    between atoms: C_2  and  C_4
REMARK    3  A    between atoms: C_3  and  C_5
REMARK    4  A    between atoms: C_4  and  C_6
REMARK    5  A    between atoms: C_5  and  C_7
REMARK    6  A    between atoms: C_6  and  C_8
REMARK    7  A    between atoms: C_7  and  C_9
REMARK    8  A    between atoms: C_8  and  C_10
REMARK    9  A    between atoms: C_10  and  C_11
REMARK                            x       y       z     vdW  Elec       q    Type
REMARK                         _______ _______ _______ _____ _____    ______ ____
ROOT
ATOM      1  C   UNL     1      -8.288 -13.108   5.444  0.00  0.00    +0.000 C 
ATOM      2  H   UNL     1      -9.070 -13.729   4.991  0.00  0.00    +0.000 HD
ATOM      3  H   UNL     1      -8.736 -12.131   5.664  0.00  0.00    +0.000 HD
ENDROOT
BRANCH   1   4
ATOM      4  C   UNL     1      -7.135 -12.932   4.455  0.00  0.00    +0.000 C 
ATOM      5  H   UNL     1      -6.213 -13.337   4.888  0.00  0.00    +0.000 HD
ATOM      6  H   UNL     1      -6.965 -11.863   4.277  0.00  0.00    +0.000 HD
BRANCH   4   7
ATOM      7  C   UNL     1      -7.431 -13.629   3.126  0.00  0.00    +0.000 C 
ATOM      8  H   UNL     1      -7.833 -14.632   3.318  0.00  0.00    +0.000 HD
ATOM      9  H   UNL     1      -8.202 -13.071   2.583  0.00  0.00    +0.000 HD
BRANCH   7  10
ATOM     10  C   UNL     1      -6.174 -13.737   2.263  0.00  0.00    +0.000 C 
ATOM     11  H   UNL     1      -6.366 -14.390   1.404  0.00  0.00    +0.000 HD
ATOM     12  H   UNL     1      -5.908 -12.750   1.867  0.00  0.00    +0.000 HD
BRANCH  10  13
ATOM     13  C   UNL     1      -5.000 -14.291   3.055  0.00  0.00    +0.000 C 
ATOM     14  H   UNL     1      -4.147 -14.493   2.400  0.00  0.00    +0.000 HD
ATOM     15  H   UNL     1      -5.282 -15.228   3.544  0.00  0.00    +0.000 HD
ATOM     16  H   UNL     1      -4.680 -13.586   3.829  0.00  0.00    +0.000 HD
ENDBRANCH  10  13
ENDBRANCH   7  10
ENDBRANCH   4   7
ENDBRANCH   1   4
BRANCH   1  17
ATOM     17  C   UNL     1      -7.810 -13.753   6.747  0.00  0.00    +0.000 C 
ATOM     18  H   UNL     1      -8.272 -13.244   7.601  0.00  0.00    +0.000 HD
ATOM     19  H   UNL     1      -6.725 -13.624   6.842  0.00  0.00    +0.000 HD
BRANCH  17  20
ATOM     20  C   UNL     1      -8.157 -15.241   6.791  0.00  0.00    +0.000 C 
ATOM     21  H   UNL     1      -8.473 -15.518   7.805  0.00  0.00    +0.000 HD
ATOM     22  H   UNL     1      -9.011 -15.440   6.131  0.00  0.00    +0.000 HD
BRANCH  20  23
ATOM     23  C   UNL     1      -6.971 -16.102   6.367  0.00  0.00    +0.000 C 
ATOM     24  H   UNL     1      -6.751 -16.845   7.143  0.00  0.00    +0.000 HD
ATOM     25  H   UNL     1      -6.086 -15.473   6.226  0.00  0.00    +0.000 HD
BRANCH  23  27
ATOM     26  O   UNL     1      -6.333 -17.410   4.436  0.00  0.00    +0.000 OA
ATOM     27  C   UNL     1      -7.225 -16.846   5.067  0.00  0.00    +0.000 C 
BRANCH  27  28
ATOM     28  C   UNL     1      -8.650 -16.858   4.579  0.00  0.00    +0.000 C 
ATOM     29  H   UNL     1      -8.872 -15.917   4.071  0.00  0.00    +0.000 HD
ATOM     30  H   UNL     1      -8.795 -17.699   3.896  0.00  0.00    +0.000 HD
ATOM     31  H   UNL     1      -9.330 -16.970   5.428  0.00  0.00    +0.000 HD
ENDBRANCH  27  28
ENDBRANCH  23  27
ENDBRANCH  20  23
ENDBRANCH  17  20
ENDBRANCH   1  17
TORSDOF 9
ENDMDL
MODEL 6
REMARK VINA RESULT:    -4.266     14.318     15.566
REMARK INTER + INTRA:          -6.657
REMARK INTER:                  -6.141
REMARK INTRA:                  -0.515
REMARK UNBOUND:                -0.396
REMARK  Name = 12741
REMARK  9 active torsions:
REMARK  status: ('A' for Active; 'I' for Inactive)
REMARK    1  A    between atoms: C_2  and  C_3
REMARK    2  A    between atoms: C_2  and  C_4
REMARK    3  A    between atoms: C_3  and  C_5
REMARK    4  A    between atoms: C_4  and  C_6
REMARK    5  A    between atoms: C_5  and  C_7
REMARK    6  A    between atoms: C_6  and  C_8
REMARK    7  A    between atoms: C_7  and  C_9
REMARK    8  A    between atoms: C_8  and  C_10
REMARK    9  A    between atoms: C_10  and  C_11
REMARK                            x       y       z     vdW  Elec       q    Type
REMARK                         _______ _______ _______ _____ _____    ______ ____
ROOT
ATOM      1  C   UNL     1     -16.033  -6.322  -4.341  0.00  0.00    +0.000 C 
ATOM      2  H   UNL     1     -16.546  -5.661  -5.051  0.00  0.00    +0.000 HD
ATOM      3  H   UNL     1     -16.599  -7.261  -4.308  0.00  0.00    +0.000 HD
ENDROOT
BRANCH   1   4
ATOM      4  C   UNL     1     -16.024  -5.680  -2.954  0.00  0.00    +0.000 C 
ATOM      5  H   UNL     1     -16.225  -4.606  -3.043  0.00  0.00    +0.000 HD
ATOM      6  H   UNL     1     -15.028  -5.786  -2.507  0.00  0.00    +0.000 HD
BRANCH   4   7
ATOM      7  C   UNL     1     -17.066  -6.323  -2.036  0.00  0.00    +0.000 C 
ATOM      8  H   UNL     1     -16.745  -7.338  -1.770  0.00  0.00    +0.000 HD
ATOM      9  H   UNL     1     -17.135  -5.752  -1.103  0.00  0.00    +0.000 HD
BRANCH   7  10
ATOM     10  C   UNL     1     -18.439  -6.377  -2.706  0.00  0.00    +0.000 C 
ATOM     11  H   UNL     1     -18.347  -6.113  -3.765  0.00  0.00    +0.000 HD
ATOM     12  H   UNL     1     -18.836  -7.397  -2.659  0.00  0.00    +0.000 HD
BRANCH  10  13
ATOM     13  C   UNL     1     -19.420  -5.425  -2.041  0.00  0.00    +0.000 C 
ATOM     14  H   UNL     1     -20.341  -5.947  -1.759  0.00  0.00    +0.000 HD
ATOM     15  H   UNL     1     -19.684  -4.614  -2.726  0.00  0.00    +0.000 HD
ATOM     16  H   UNL     1     -18.987  -4.982  -1.138  0.00  0.00    +0.000 HD
ENDBRANCH  10  13
ENDBRANCH   7  10
ENDBRANCH   4   7
ENDBRANCH   1   4
BRANCH   1  17
ATOM     17  C   UNL     1     -14.612  -6.602  -4.834  0.00  0.00    +0.000 C 
ATOM     18  H   UNL     1     -14.468  -6.147  -5.822  0.00  0.00    +0.000 HD
ATOM     19  H   UNL     1     -14.472  -7.683  -4.953  0.00  0.00    +0.000 HD
BRANCH  17  20
ATOM     20  C   UNL     1     -13.567  -6.051  -3.863  0.00  0.00    +0.000 C 
ATOM     21  H   UNL     1     -14.045  -5.363  -3.155  0.00  0.00    +0.000 HD
ATOM     22  H   UNL     1     -13.148  -6.873  -3.268  0.00  0.00    +0.000 HD
BRANCH  20  23
ATOM     23  C   UNL     1     -12.444  -5.331  -4.604  0.00  0.00    +0.000 C 
ATOM     24  H   UNL     1     -11.914  -6.035  -5.255  0.00  0.00    +0.000 HD
ATOM     25  H   UNL     1     -11.730  -4.914  -3.886  0.00  0.00    +0.000 HD
BRANCH  23  27
ATOM     26  O   UNL     1     -13.615  -3.255  -5.016  0.00  0.00    +0.000 OA
ATOM     27  C   UNL     1     -12.954  -4.189  -5.467  0.00  0.00    +0.000 C 
BRANCH  27  28
ATOM     28  C   UNL     1     -12.605  -4.258  -6.931  0.00  0.00    +0.000 C 
ATOM     29  H   UNL     1     -13.445  -4.676  -7.489  0.00  0.00    +0.000 HD
ATOM     30  H   UNL     1     -12.368  -3.256  -7.298  0.00  0.00    +0.000 HD
ATOM     31  H   UNL     1     -11.731  -4.901  -7.072  0.00  0.00    +0.000 HD
ENDBRANCH  27  28
ENDBRANCH  23  27
ENDBRANCH  20  23
ENDBRANCH  17  20
ENDBRANCH   1  17
TORSDOF 9
ENDMDL
MODEL 7
REMARK VINA RESULT:    -4.208      2.323      3.833
REMARK INTER + INTRA:          -6.571
REMARK INTER:                  -6.105
REMARK INTRA:                  -0.466
REMARK UNBOUND:                -0.396
REMARK  Name = 12741
REMARK  9 active torsions:
REMARK  status: ('A' for Active; 'I' for Inactive)
REMARK    1  A    between atoms: C_2  and  C_3
REMARK    2  A    between atoms: C_2  and  C_4
REMARK    3  A    between atoms: C_3  and  C_5
REMARK    4  A    between atoms: C_4  and  C_6
REMARK    5  A    between atoms: C_5  and  C_7
REMARK    6  A    between atoms: C_6  and  C_8
REMARK    7  A    between atoms: C_7  and  C_9
REMARK    8  A    between atoms: C_8  and  C_10
REMARK    9  A    between atoms: C_10  and  C_11
REMARK                            x       y       z     vdW  Elec       q    Type
REMARK                         _______ _______ _______ _____ _____    ______ ____
ROOT
ATOM      1  C   UNL     1      -6.037 -12.794   4.334  0.00  0.00    +0.000 C 
ATOM      2  H   UNL     1      -5.655 -13.142   5.302  0.00  0.00    +0.000 HD
ATOM      3  H   UNL     1      -5.926 -11.703   4.316  0.00  0.00    +0.000 HD
ENDROOT
BRANCH   1   4
ATOM      4  C   UNL     1      -7.516 -13.161   4.204  0.00  0.00    +0.000 C 
ATOM      5  H   UNL     1      -7.610 -14.163   3.770  0.00  0.00    +0.000 HD
ATOM      6  H   UNL     1      -8.007 -12.463   3.516  0.00  0.00    +0.000 HD
BRANCH   4   7
ATOM      7  C   UNL     1      -8.221 -13.120   5.562  0.00  0.00    +0.000 C 
ATOM      8  H   UNL     1      -7.937 -12.204   6.096  0.00  0.00    +0.000 HD
ATOM      9  H   UNL     1      -9.305 -13.082   5.410  0.00  0.00    +0.000 HD
BRANCH   7  10
ATOM     10  C   UNL     1      -7.866 -14.341   6.409  0.00  0.00    +0.000 C 
ATOM     11  H   UNL     1      -6.818 -14.617   6.244  0.00  0.00    +0.000 HD
ATOM     12  H   UNL     1      -7.974 -14.100   7.473  0.00  0.00    +0.000 HD
BRANCH  10  13
ATOM     13  C   UNL     1      -8.751 -15.530   6.071  0.00  0.00    +0.000 C 
ATOM     14  H   UNL     1      -9.435 -15.287   5.252  0.00  0.00    +0.000 HD
ATOM     15  H   UNL     1      -9.349 -15.816   6.941  0.00  0.00    +0.000 HD
ATOM     16  H   UNL     1      -8.149 -16.395   5.772  0.00  0.00    +0.000 HD
ENDBRANCH  10  13
ENDBRANCH   7  10
ENDBRANCH   4   7
ENDBRANCH   1   4
BRANCH   1  17
ATOM     17  C   UNL     1      -5.210 -13.410   3.204  0.00  0.00    +0.000 C 
ATOM     18  H   UNL     1      -4.190 -13.008   3.233  0.00  0.00    +0.000 HD
ATOM     19  H   UNL     1      -5.642 -13.124   2.237  0.00  0.00    +0.000 HD
BRANCH  17  20
ATOM     20  C   UNL     1      -5.160 -14.934   3.315  0.00  0.00    +0.000 C 
ATOM     21  H   UNL     1      -5.505 -15.244   4.310  0.00  0.00    +0.000 HD
ATOM     22  H   UNL     1      -5.853 -15.378   2.590  0.00  0.00    +0.000 HD
BRANCH  20  23
ATOM     23  C   UNL     1      -3.751 -15.464   3.069  0.00  0.00    +0.000 C 
ATOM     24  H   UNL     1      -3.729 -16.550   3.212  0.00  0.00    +0.000 HD
ATOM     25  H   UNL     1      -3.051 -15.005   3.776  0.00  0.00    +0.000 HD
BRANCH  23  27
ATOM     26  O   UNL     1      -3.892 -15.456   0.655  0.00  0.00    +0.000 OA
ATOM     27  C   UNL     1      -3.253 -15.166   1.665  0.00  0.00    +0.000 C 
BRANCH  27  28
ATOM     28  C   UNL     1      -1.913 -14.485   1.567  0.00  0.00    +0.000 C 
ATOM     29  H   UNL     1      -1.671 -14.301   0.518  0.00  0.00    +0.000 HD
ATOM     30  H   UNL     1      -1.939 -13.544   2.120  0.00  0.00    +0.000 HD
ATOM     31  H   UNL     1      -1.140 -15.128   1.999  0.00  0.00    +0.000 HD
ENDBRANCH  27  28
ENDBRANCH  23  27
ENDBRANCH  20  23
ENDBRANCH  17  20
ENDBRANCH   1  17
TORSDOF 9
ENDMDL
MODEL 8
REMARK VINA RESULT:    -4.072      4.818      6.812
REMARK INTER + INTRA:          -6.372
REMARK INTER:                  -5.977
REMARK INTRA:                  -0.396
REMARK UNBOUND:                -0.396
REMARK  Name = 12741
REMARK  9 active torsions:
REMARK  status: ('A' for Active; 'I' for Inactive)
REMARK    1  A    between atoms: C_2  and  C_3
REMARK    2  A    between atoms: C_2  and  C_4
REMARK    3  A    between atoms: C_3  and  C_5
REMARK    4  A    between atoms: C_4  and  C_6
REMARK    5  A    between atoms: C_5  and  C_7
REMARK    6  A    between atoms: C_6  and  C_8
REMARK    7  A    between atoms: C_7  and  C_9
REMARK    8  A    between atoms: C_8  and  C_10
REMARK    9  A    between atoms: C_10  and  C_11
REMARK                            x       y       z     vdW  Elec       q    Type
REMARK                         _______ _______ _______ _____ _____    ______ ____
ROOT
ATOM      1  C   UNL     1      -1.611 -16.051   1.346  0.00  0.00    +0.000 C 
ATOM      2  H   UNL     1      -0.605 -15.978   1.777  0.00  0.00    +0.000 HD
ATOM      3  H   UNL     1      -2.158 -16.805   1.925  0.00  0.00    +0.000 HD
ENDROOT
BRANCH   1   4
ATOM      4  C   UNL     1      -1.513 -16.498  -0.113  0.00  0.00    +0.000 C 
ATOM      5  H   UNL     1      -1.848 -17.537  -0.204  0.00  0.00    +0.000 HD
ATOM      6  H   UNL     1      -0.465 -16.466  -0.437  0.00  0.00    +0.000 HD
BRANCH   4   7
ATOM      7  C   UNL     1      -2.355 -15.603  -1.026  0.00  0.00    +0.000 C 
ATOM      8  H   UNL     1      -3.300 -15.355  -0.528  0.00  0.00    +0.000 HD
ATOM      9  H   UNL     1      -1.826 -14.660  -1.204  0.00  0.00    +0.000 HD
BRANCH   7  10
ATOM     10  C   UNL     1      -2.642 -16.288  -2.362  0.00  0.00    +0.000 C 
ATOM     11  H   UNL     1      -1.883 -17.054  -2.559  0.00  0.00    +0.000 HD
ATOM     12  H   UNL     1      -3.613 -16.795  -2.320  0.00  0.00    +0.000 HD
BRANCH  10  13
ATOM     13  C   UNL     1      -2.647 -15.290  -3.509  0.00  0.00    +0.000 C 
ATOM     14  H   UNL     1      -1.856 -15.519  -4.231  0.00  0.00    +0.000 HD
ATOM     15  H   UNL     1      -2.479 -14.277  -3.131  0.00  0.00    +0.000 HD
ATOM     16  H   UNL     1      -3.607 -15.302  -4.037  0.00  0.00    +0.000 HD
ENDBRANCH  10  13
ENDBRANCH   7  10
ENDBRANCH   4   7
ENDBRANCH   1   4
BRANCH   1  17
ATOM     17  C   UNL     1      -2.321 -14.701   1.468  0.00  0.00    +0.000 C 
ATOM     18  H   UNL     1      -2.652 -14.368   0.477  0.00  0.00    +0.000 HD
ATOM     19  H   UNL     1      -1.616 -13.950   1.843  0.00  0.00    +0.000 HD
BRANCH  17  20
ATOM     20  C   UNL     1      -3.526 -14.789   2.405  0.00  0.00    +0.000 C 
ATOM     21  H   UNL     1      -3.396 -15.627   3.100  0.00  0.00    +0.000 HD
ATOM     22  H   UNL     1      -3.584 -13.879   3.016  0.00  0.00    +0.000 HD
BRANCH  20  23
ATOM     23  C   UNL     1      -4.826 -14.965   1.624  0.00  0.00    +0.000 C 
ATOM     24  H   UNL     1      -5.076 -16.029   1.549  0.00  0.00    +0.000 HD
ATOM     25  H   UNL     1      -4.710 -14.561   0.612  0.00  0.00    +0.000 HD
BRANCH  23  27
ATOM     26  O   UNL     1      -6.181 -14.243   3.492  0.00  0.00    +0.000 OA
ATOM     27  C   UNL     1      -5.999 -14.253   2.276  0.00  0.00    +0.000 C 
BRANCH  27  28
ATOM     28  C   UNL     1      -6.948 -13.547   1.343  0.00  0.00    +0.000 C 
ATOM     29  H   UNL     1      -7.952 -13.961   1.459  0.00  0.00    +0.000 HD
ATOM     30  H   UNL     1      -6.951 -12.477   1.566  0.00  0.00    +0.000 HD
ATOM     31  H   UNL     1      -6.624 -13.692   0.308  0.00  0.00    +0.000 HD
ENDBRANCH  27  28
ENDBRANCH  23  27
ENDBRANCH  20  23
ENDBRANCH  17  20
ENDBRANCH   1  17
TORSDOF 9
ENDMDL
MODEL 9
REMARK VINA RESULT:    -4.024      3.157      5.006
REMARK INTER + INTRA:          -6.302
REMARK INTER:                  -5.901
REMARK INTRA:                  -0.400
REMARK UNBOUND:                -0.396
REMARK  Name = 12741
REMARK  9 active torsions:
REMARK  status: ('A' for Active; 'I' for Inactive)
REMARK    1  A    between atoms: C_2  and  C_3
REMARK    2  A    between atoms: C_2  and  C_4
REMARK    3  A    between atoms: C_3  and  C_5
REMARK    4  A    between atoms: C_4  and  C_6
REMARK    5  A    between atoms: C_5  and  C_7
REMARK    6  A    between atoms: C_6  and  C_8
REMARK    7  A    between atoms: C_7  and  C_9
REMARK    8  A    between atoms: C_8  and  C_10
REMARK    9  A    between atoms: C_10  and  C_11
REMARK                            x       y       z     vdW  Elec       q    Type
REMARK                         _______ _______ _______ _____ _____    ______ ____
ROOT
ATOM      1  C   UNL     1      -8.435 -14.623   5.685  0.00  0.00    +0.000 C 
ATOM      2  H   UNL     1      -7.932 -15.161   4.871  0.00  0.00    +0.000 HD
ATOM      3  H   UNL     1      -9.505 -14.599   5.444  0.00  0.00    +0.000 HD
ENDROOT
BRANCH   1   4
ATOM      4  C   UNL     1      -7.896 -13.194   5.767  0.00  0.00    +0.000 C 
ATOM      5  H   UNL     1      -7.267 -13.088   6.658  0.00  0.00    +0.000 HD
ATOM      6  H   UNL     1      -8.732 -12.493   5.875  0.00  0.00    +0.000 HD
BRANCH   4   7
ATOM      7  C   UNL     1      -7.087 -12.833   4.519  0.00  0.00    +0.000 C 
ATOM      8  H   UNL     1      -7.217 -11.767   4.293  0.00  0.00    +0.000 HD
ATOM      9  H   UNL     1      -6.021 -12.993   4.715  0.00  0.00    +0.000 HD
BRANCH   7  10
ATOM     10  C   UNL     1      -7.517 -13.671   3.316  0.00  0.00    +0.000 C 
ATOM     11  H   UNL     1      -7.642 -14.718   3.617  0.00  0.00    +0.000 HD
ATOM     12  H   UNL     1      -8.488 -13.321   2.946  0.00  0.00    +0.000 HD
BRANCH  10  13
ATOM     13  C   UNL     1      -6.496 -13.597   2.192  0.00  0.00    +0.000 C 
ATOM     14  H   UNL     1      -6.937 -13.160   1.290  0.00  0.00    +0.000 HD
ATOM     15  H   UNL     1      -6.134 -14.599   1.942  0.00  0.00    +0.000 HD
ATOM     16  H   UNL     1      -5.634 -12.987   2.483  0.00  0.00    +0.000 HD
ENDBRANCH  10  13
ENDBRANCH   7  10
ENDBRANCH   4   7
ENDBRANCH   1   4
BRANCH   1  17
ATOM     17  C   UNL     1      -8.226 -15.373   7.002  0.00  0.00    +0.000 C 
ATOM     18  H   UNL     1      -8.611 -14.771   7.834  0.00  0.00    +0.000 HD
ATOM     19  H   UNL     1      -7.152 -15.515   7.176  0.00  0.00    +0.000 HD
BRANCH  17  20
ATOM     20  C   UNL     1      -8.930 -16.730   6.988  0.00  0.00    +0.000 C 
ATOM     21  H   UNL     1      -8.194 -17.531   7.134  0.00  0.00    +0.000 HD
ATOM     22  H   UNL     1      -9.631 -16.790   7.830  0.00  0.00    +0.000 HD
BRANCH  20  23
ATOM     23  C   UNL     1      -9.681 -16.953   5.678  0.00  0.00    +0.000 C 
ATOM     24  H   UNL     1      -9.064 -17.542   4.989  0.00  0.00    +0.000 HD
ATOM     25  H   UNL     1      -9.906 -15.990   5.209  0.00  0.00    +0.000 HD
BRANCH  23  27
ATOM     26  O   UNL     1     -11.105 -18.667   6.616  0.00  0.00    +0.000 OA
ATOM     27  C   UNL     1     -10.994 -17.691   5.878  0.00  0.00    +0.000 C 
BRANCH  27  28
ATOM     28  C   UNL     1     -12.177 -17.157   5.112  0.00  0.00    +0.000 C 
ATOM     29  H   UNL     1     -12.675 -17.976   4.590  0.00  0.00    +0.000 HD
ATOM     30  H   UNL     1     -12.870 -16.671   5.802  0.00  0.00    +0.000 HD
ATOM     31  H   UNL     1     -11.838 -16.423   4.375  0.00  0.00    +0.000 HD
ENDBRANCH  27  28
ENDBRANCH  23  27
ENDBRANCH  20  23
ENDBRANCH  17  20
ENDBRANCH   1  17
TORSDOF 9
ENDMDL
MODEL 10
REMARK VINA RESULT:    -4.002     31.734     33.359
REMARK INTER + INTRA:          -6.270
REMARK INTER:                  -5.307
REMARK INTRA:                  -0.963
REMARK UNBOUND:                -0.396
REMARK  Name = 12741
REMARK  9 active torsions:
REMARK  status: ('A' for Active; 'I' for Inactive)
REMARK    1  A    between atoms: C_2  and  C_3
REMARK    2  A    between atoms: C_2  and  C_4
REMARK    3  A    between atoms: C_3  and  C_5
REMARK    4  A    between atoms: C_4  and  C_6
REMARK    5  A    between atoms: C_5  and  C_7
REMARK    6  A    between atoms: C_6  and  C_8
REMARK    7  A    between atoms: C_7  and  C_9
REMARK    8  A    between atoms: C_8  and  C_10
REMARK    9  A    between atoms: C_10  and  C_11
REMARK                            x       y       z     vdW  Elec       q    Type
REMARK                         _______ _______ _______ _____ _____    ______ ____
ROOT
ATOM      1  C   UNL     1       0.829   6.051 -20.342  0.00  0.00    +0.000 C 
ATOM      2  H   UNL     1       1.419   6.924 -20.039  0.00  0.00    +0.000 HD
ATOM      3  H   UNL     1      -0.157   6.146 -19.870  0.00  0.00    +0.000 HD
ENDROOT
BRANCH   1   4
ATOM      4  C   UNL     1       1.511   4.774 -19.850  0.00  0.00    +0.000 C 
ATOM      5  H   UNL     1       0.881   3.907 -20.079  0.00  0.00    +0.000 HD
ATOM      6  H   UNL     1       1.622   4.814 -18.760  0.00  0.00    +0.000 HD
BRANCH   4   7
ATOM      7  C   UNL     1       2.887   4.595 -20.496  0.00  0.00    +0.000 C 
ATOM      8  H   UNL     1       2.950   5.208 -21.403  0.00  0.00    +0.000 HD
ATOM      9  H   UNL     1       3.663   4.952 -19.810  0.00  0.00    +0.000 HD
BRANCH   7  10
ATOM     10  C   UNL     1       3.150   3.130 -20.846  0.00  0.00    +0.000 C 
ATOM     11  H   UNL     1       2.952   2.960 -21.911  0.00  0.00    +0.000 HD
ATOM     12  H   UNL     1       4.204   2.888 -20.668  0.00  0.00    +0.000 HD
BRANCH  10  13
ATOM     13  C   UNL     1       2.275   2.196 -20.025  0.00  0.00    +0.000 C 
ATOM     14  H   UNL     1       2.606   1.157 -20.130  0.00  0.00    +0.000 HD
ATOM     15  H   UNL     1       1.236   2.257 -20.361  0.00  0.00    +0.000 HD
ATOM     16  H   UNL     1       2.306   2.461 -18.963  0.00  0.00    +0.000 HD
ENDBRANCH  10  13
ENDBRANCH   7  10
ENDBRANCH   4   7
ENDBRANCH   1   4
BRANCH   1  17
ATOM     17  C   UNL     1       0.666   6.043 -21.864  0.00  0.00    +0.000 C 
ATOM     18  H   UNL     1       1.598   5.706 -22.333  0.00  0.00    +0.000 HD
ATOM     19  H   UNL     1       0.478   7.065 -22.216  0.00  0.00    +0.000 HD
BRANCH  17  20
ATOM     20  C   UNL     1      -0.482   5.130 -22.297  0.00  0.00    +0.000 C 
ATOM     21  H   UNL     1      -0.891   4.609 -21.422  0.00  0.00    +0.000 HD
ATOM     22  H   UNL     1      -1.297   5.736 -22.712  0.00  0.00    +0.000 HD
BRANCH  20  23
ATOM     23  C   UNL     1      -0.020   4.111 -23.335  0.00  0.00    +0.000 C 
ATOM     24  H   UNL     1       1.070   4.155 -23.442  0.00  0.00    +0.000 HD
ATOM     25  H   UNL     1      -0.476   4.335 -24.305  0.00  0.00    +0.000 HD
BRANCH  23  27
ATOM     26  O   UNL     1      -0.167   1.724 -23.690  0.00  0.00    +0.000 OA
ATOM     27  C   UNL     1      -0.397   2.688 -22.962  0.00  0.00    +0.000 C 
BRANCH  27  28
ATOM     28  C   UNL     1      -1.080   2.510 -21.631  0.00  0.00    +0.000 C 
ATOM     29  H   UNL     1      -0.418   2.851 -20.831  0.00  0.00    +0.000 HD
ATOM     30  H   UNL     1      -2.012   3.079 -21.619  0.00  0.00    +0.000 HD
ATOM     31  H   UNL     1      -1.309   1.452 -21.472  0.00  0.00    +0.000 HD
ENDBRANCH  27  28
ENDBRANCH  23  27
ENDBRANCH  20  23
ENDBRANCH  17  20
ENDBRANCH   1  17
TORSDOF 9
ENDMDL
