MODEL 1
REMARK VINA RESULT:    -3.929      0.000      0.000
REMARK INTER + INTRA:          -5.764
REMARK INTER:                  -5.595
REMARK INTRA:                  -0.168
REMARK UNBOUND:                -0.342
REMARK  Name = 7720
REMARK  8 active torsions:
REMARK  status: ('A' for Active; 'I' for Inactive)
REMARK    1  A    between atoms: O_1  and  C_6
REMARK    2  A    between atoms: C_2  and  C_3
REMARK    3  A    between atoms: C_2  and  C_5
REMARK    4  A    between atoms: C_2  and  C_6
REMARK    5  A    between atoms: C_3  and  C_4
REMARK    6  A    between atoms: C_4  and  C_7
REMARK    7  A    between atoms: C_5  and  C_8
REMARK    8  A    between atoms: C_7  and  C_9
REMARK                            x       y       z     vdW  Elec       q    Type
REMARK                         _______ _______ _______ _____ _____    ______ ____
ROOT
ATOM      1  C   UNL     1      14.586   5.310  -1.436  0.00  0.00    +0.000 C 
ATOM      2  H   UNL     1      14.024   4.546  -1.992  0.00  0.00    +0.000 HD
ENDROOT
BRANCH   1   3
ATOM      3  C   UNL     1      15.041   6.381  -2.450  0.00  0.00    +0.000 C 
ATOM      4  H   UNL     1      14.881   6.000  -3.467  0.00  0.00    +0.000 HD
ATOM      5  H   UNL     1      14.414   7.276  -2.358  0.00  0.00    +0.000 HD
BRANCH   3   6
ATOM      6  C   UNL     1      16.516   6.771  -2.311  0.00  0.00    +0.000 C 
ATOM      7  H   UNL     1      17.129   6.095  -2.921  0.00  0.00    +0.000 HD
ATOM      8  H   UNL     1      16.839   6.646  -1.272  0.00  0.00    +0.000 HD
BRANCH   6   9
ATOM      9  C   UNL     1      16.797   8.220  -2.718  0.00  0.00    +0.000 C 
ATOM     10  H   UNL     1      16.118   8.506  -3.530  0.00  0.00    +0.000 HD
ATOM     11  H   UNL     1      16.582   8.883  -1.872  0.00  0.00    +0.000 HD
BRANCH   9  12
ATOM     12  C   UNL     1      18.231   8.453  -3.168  0.00  0.00    +0.000 C 
ATOM     13  H   UNL     1      18.665   7.525  -3.554  0.00  0.00    +0.000 HD
ATOM     14  H   UNL     1      18.273   9.205  -3.962  0.00  0.00    +0.000 HD
ATOM     15  H   UNL     1      18.850   8.799  -2.335  0.00  0.00    +0.000 HD
ENDBRANCH   9  12
ENDBRANCH   6   9
ENDBRANCH   3   6
ENDBRANCH   1   3
BRANCH   1  16
ATOM     16  C   UNL     1      15.746   4.561  -0.744  0.00  0.00    +0.000 C 
ATOM     17  H   UNL     1      16.235   5.220  -0.018  0.00  0.00    +0.000 HD
ATOM     18  H   UNL     1      16.517   4.330  -1.490  0.00  0.00    +0.000 HD
BRANCH  16  19
ATOM     19  C   UNL     1      15.356   3.263  -0.049  0.00  0.00    +0.000 C 
ATOM     20  H   UNL     1      14.283   3.227   0.163  0.00  0.00    +0.000 HD
ATOM     21  H   UNL     1      15.882   3.183   0.908  0.00  0.00    +0.000 HD
ATOM     22  H   UNL     1      15.624   2.388  -0.645  0.00  0.00    +0.000 HD
ENDBRANCH  16  19
ENDBRANCH   1  16
BRANCH   1  23
ATOM     23  C   UNL     1      13.613   5.943  -0.428  0.00  0.00    +0.000 C 
ATOM     24  H   UNL     1      14.157   6.389   0.412  0.00  0.00    +0.000 HD
ATOM     25  H   UNL     1      12.915   5.211  -0.014  0.00  0.00    +0.000 HD
BRANCH  23  26
ATOM     26  O   UNL     1      12.865   6.979  -1.050  0.00  0.00    +0.000 OA
ATOM     27  H   UNL     1      13.361   7.269  -1.834  0.00  0.00    +0.000 HD
ENDBRANCH  23  26
ENDBRANCH   1  23
TORSDOF 8
ENDMDL
MODEL 2
REMARK VINA RESULT:    -3.855     29.280     30.791
REMARK INTER + INTRA:          -5.661
REMARK INTER:                  -5.479
REMARK INTRA:                  -0.182
REMARK UNBOUND:                -0.342
REMARK  Name = 7720
REMARK  8 active torsions:
REMARK  status: ('A' for Active; 'I' for Inactive)
REMARK    1  A    between atoms: O_1  and  C_6
REMARK    2  A    between atoms: C_2  and  C_3
REMARK    3  A    between atoms: C_2  and  C_5
REMARK    4  A    between atoms: C_2  and  C_6
REMARK    5  A    between atoms: C_3  and  C_4
REMARK    6  A    between atoms: C_4  and  C_7
REMARK    7  A    between atoms: C_5  and  C_8
REMARK    8  A    between atoms: C_7  and  C_9
REMARK                            x       y       z     vdW  Elec       q    Type
REMARK                         _______ _______ _______ _____ _____    ______ ____
ROOT
ATOM      1  C   UNL     1      -6.582 -14.206   2.719  0.00  0.00    +0.000 C 
ATOM      2  H   UNL     1      -6.485 -15.185   2.228  0.00  0.00    +0.000 HD
ENDROOT
BRANCH   1   3
ATOM      3  C   UNL     1      -7.558 -14.375   3.903  0.00  0.00    +0.000 C 
ATOM      4  H   UNL     1      -8.538 -14.680   3.516  0.00  0.00    +0.000 HD
ATOM      5  H   UNL     1      -7.220 -15.190   4.554  0.00  0.00    +0.000 HD
BRANCH   3   6
ATOM      6  C   UNL     1      -7.746 -13.100   4.731  0.00  0.00    +0.000 C 
ATOM      7  H   UNL     1      -8.647 -12.574   4.390  0.00  0.00    +0.000 HD
ATOM      8  H   UNL     1      -6.901 -12.422   4.571  0.00  0.00    +0.000 HD
BRANCH   6   9
ATOM      9  C   UNL     1      -7.852 -13.368   6.235  0.00  0.00    +0.000 C 
ATOM     10  H   UNL     1      -6.935 -13.025   6.729  0.00  0.00    +0.000 HD
ATOM     11  H   UNL     1      -8.678 -12.780   6.651  0.00  0.00    +0.000 HD
BRANCH   9  12
ATOM     12  C   UNL     1      -8.076 -14.833   6.573  0.00  0.00    +0.000 C 
ATOM     13  H   UNL     1      -7.281 -15.449   6.142  0.00  0.00    +0.000 HD
ATOM     14  H   UNL     1      -8.079 -14.988   7.656  0.00  0.00    +0.000 HD
ATOM     15  H   UNL     1      -9.034 -15.183   6.174  0.00  0.00    +0.000 HD
ENDBRANCH   9  12
ENDBRANCH   6   9
ENDBRANCH   3   6
ENDBRANCH   1   3
BRANCH   1  16
ATOM     16  C   UNL     1      -7.078 -13.233   1.626  0.00  0.00    +0.000 C 
ATOM     17  H   UNL     1      -6.474 -12.318   1.640  0.00  0.00    +0.000 HD
ATOM     18  H   UNL     1      -8.097 -12.911   1.871  0.00  0.00    +0.000 HD
BRANCH  16  19
ATOM     19  C   UNL     1      -7.086 -13.798   0.212  0.00  0.00    +0.000 C 
ATOM     20  H   UNL     1      -6.086 -13.786  -0.232  0.00  0.00    +0.000 HD
ATOM     21  H   UNL     1      -7.735 -13.190  -0.426  0.00  0.00    +0.000 HD
ATOM     22  H   UNL     1      -7.467 -14.822   0.186  0.00  0.00    +0.000 HD
ENDBRANCH  16  19
ENDBRANCH   1  16
BRANCH   1  23
ATOM     23  C   UNL     1      -5.192 -13.827   3.254  0.00  0.00    +0.000 C 
ATOM     24  H   UNL     1      -5.244 -13.544   4.311  0.00  0.00    +0.000 HD
ATOM     25  H   UNL     1      -4.758 -12.984   2.710  0.00  0.00    +0.000 HD
BRANCH  23  26
ATOM     26  O   UNL     1      -4.307 -14.934   3.152  0.00  0.00    +0.000 OA
ATOM     27  H   UNL     1      -4.641 -15.513   2.446  0.00  0.00    +0.000 HD
ENDBRANCH  23  26
ENDBRANCH   1  23
TORSDOF 8
ENDMDL
MODEL 3
REMARK VINA RESULT:    -3.839     14.640     15.941
REMARK INTER + INTRA:          -5.640
REMARK INTER:                  -5.372
REMARK INTRA:                  -0.268
REMARK UNBOUND:                -0.342
REMARK  Name = 7720
REMARK  8 active torsions:
REMARK  status: ('A' for Active; 'I' for Inactive)
REMARK    1  A    between atoms: O_1  and  C_6
REMARK    2  A    between atoms: C_2  and  C_3
REMARK    3  A    between atoms: C_2  and  C_5
REMARK    4  A    between atoms: C_2  and  C_6
REMARK    5  A    between atoms: C_3  and  C_4
REMARK    6  A    between atoms: C_4  and  C_7
REMARK    7  A    between atoms: C_5  and  C_8
REMARK    8  A    between atoms: C_7  and  C_9
REMARK                            x       y       z     vdW  Elec       q    Type
REMARK                         _______ _______ _______ _____ _____    ______ ____
ROOT
ATOM      1  C   UNL     1      13.429  17.425 -11.838  0.00  0.00    +0.000 C 
ATOM      2  H   UNL     1      13.010  18.015 -12.667  0.00  0.00    +0.000 HD
ENDROOT
BRANCH   1   3
ATOM      3  C   UNL     1      12.817  17.967 -10.528  0.00  0.00    +0.000 C 
ATOM      4  H   UNL     1      12.211  17.178 -10.065  0.00  0.00    +0.000 HD
ATOM      5  H   UNL     1      13.613  18.200  -9.811  0.00  0.00    +0.000 HD
BRANCH   3   6
ATOM      6  C   UNL     1      11.927  19.198 -10.729  0.00  0.00    +0.000 C 
ATOM      7  H   UNL     1      12.545  20.043 -11.059  0.00  0.00    +0.000 HD
ATOM      8  H   UNL     1      11.471  19.488  -9.777  0.00  0.00    +0.000 HD
BRANCH   6   9
ATOM      9  C   UNL     1      10.799  18.969 -11.738  0.00  0.00    +0.000 C 
ATOM     10  H   UNL     1      10.989  18.040 -12.289  0.00  0.00    +0.000 HD
ATOM     11  H   UNL     1       9.853  18.833 -11.200  0.00  0.00    +0.000 HD
BRANCH   9  12
ATOM     12  C   UNL     1      10.636  20.108 -12.732  0.00  0.00    +0.000 C 
ATOM     13  H   UNL     1      10.849  21.067 -12.250  0.00  0.00    +0.000 HD
ATOM     14  H   UNL     1      11.323  19.990 -13.576  0.00  0.00    +0.000 HD
ATOM     15  H   UNL     1       9.614  20.141 -13.123  0.00  0.00    +0.000 HD
ENDBRANCH   9  12
ENDBRANCH   6   9
ENDBRANCH   3   6
ENDBRANCH   1   3
BRANCH   1  16
ATOM     16  C   UNL     1      14.962  17.589 -11.935  0.00  0.00    +0.000 C 
ATOM     17  H   UNL     1      15.205  18.474 -12.534  0.00  0.00    +0.000 HD
ATOM     18  H   UNL     1      15.376  16.740 -12.491  0.00  0.00    +0.000 HD
BRANCH  16  19
ATOM     19  C   UNL     1      15.688  17.681 -10.600  0.00  0.00    +0.000 C 
ATOM     20  H   UNL     1      16.765  17.524 -10.716  0.00  0.00    +0.000 HD
ATOM     21  H   UNL     1      15.314  16.909  -9.921  0.00  0.00    +0.000 HD
ATOM     22  H   UNL     1      15.527  18.648 -10.117  0.00  0.00    +0.000 HD
ENDBRANCH  16  19
ENDBRANCH   1  16
BRANCH   1  23
ATOM     23  C   UNL     1      12.980  15.969 -12.046  0.00  0.00    +0.000 C 
ATOM     24  H   UNL     1      11.983  15.929 -12.496  0.00  0.00    +0.000 HD
ATOM     25  H   UNL     1      12.937  15.415 -11.105  0.00  0.00    +0.000 HD
BRANCH  23  26
ATOM     26  O   UNL     1      13.874  15.301 -12.925  0.00  0.00    +0.000 OA
ATOM     27  H   UNL     1      13.351  14.953 -13.667  0.00  0.00    +0.000 HD
ENDBRANCH  23  26
ENDBRANCH   1  23
TORSDOF 8
ENDMDL
MODEL 4
REMARK VINA RESULT:    -3.793     22.068     22.952
REMARK INTER + INTRA:          -5.575
REMARK INTER:                  -5.131
REMARK INTRA:                  -0.445
REMARK UNBOUND:                -0.342
REMARK  Name = 7720
REMARK  8 active torsions:
REMARK  status: ('A' for Active; 'I' for Inactive)
REMARK    1  A    between atoms: O_1  and  C_6
REMARK    2  A    between atoms: C_2  and  C_3
REMARK    3  A    between atoms: C_2  and  C_5
REMARK    4  A    between atoms: C_2  and  C_6
REMARK    5  A    between atoms: C_3  and  C_4
REMARK    6  A    between atoms: C_4  and  C_7
REMARK    7  A    between atoms: C_5  and  C_8
REMARK    8  A    between atoms: C_7  and  C_9
REMARK                            x       y       z     vdW  Elec       q    Type
REMARK                         _______ _______ _______ _____ _____    ______ ____
ROOT
ATOM      1  C   UNL     1       0.987   3.999 -20.781  0.00  0.00    +0.000 C 
ATOM      2  H   UNL     1       0.547   4.493 -21.660  0.00  0.00    +0.000 HD
ENDROOT
BRANCH   1   3
ATOM      3  C   UNL     1       1.323   5.097 -19.751  0.00  0.00    +0.000 C 
ATOM      4  H   UNL     1       0.406   5.650 -19.509  0.00  0.00    +0.000 HD
ATOM      5  H   UNL     1       1.660   4.641 -18.812  0.00  0.00    +0.000 HD
BRANCH   3   6
ATOM      6  C   UNL     1       2.372   6.100 -20.241  0.00  0.00    +0.000 C 
ATOM      7  H   UNL     1       1.876   7.040 -20.515  0.00  0.00    +0.000 HD
ATOM      8  H   UNL     1       2.858   5.720 -21.146  0.00  0.00    +0.000 HD
BRANCH   6   9
ATOM      9  C   UNL     1       3.465   6.384 -19.207  0.00  0.00    +0.000 C 
ATOM     10  H   UNL     1       3.748   7.442 -19.261  0.00  0.00    +0.000 HD
ATOM     11  H   UNL     1       3.066   6.211 -18.201  0.00  0.00    +0.000 HD
BRANCH   9  12
ATOM     12  C   UNL     1       4.709   5.530 -19.393  0.00  0.00    +0.000 C 
ATOM     13  H   UNL     1       4.643   4.623 -18.785  0.00  0.00    +0.000 HD
ATOM     14  H   UNL     1       4.825   5.231 -20.439  0.00  0.00    +0.000 HD
ATOM     15  H   UNL     1       5.607   6.079 -19.091  0.00  0.00    +0.000 HD
ENDBRANCH   9  12
ENDBRANCH   6   9
ENDBRANCH   3   6
ENDBRANCH   1   3
BRANCH   1  16
ATOM     16  C   UNL     1       2.218   3.225 -21.304  0.00  0.00    +0.000 C 
ATOM     17  H   UNL     1       2.946   3.925 -21.728  0.00  0.00    +0.000 HD
ATOM     18  H   UNL     1       1.909   2.587 -22.141  0.00  0.00    +0.000 HD
BRANCH  16  19
ATOM     19  C   UNL     1       2.917   2.348 -20.274  0.00  0.00    +0.000 C 
ATOM     20  H   UNL     1       2.737   1.286 -20.461  0.00  0.00    +0.000 HD
ATOM     21  H   UNL     1       2.534   2.576 -19.274  0.00  0.00    +0.000 HD
ATOM     22  H   UNL     1       3.996   2.523 -20.258  0.00  0.00    +0.000 HD
ENDBRANCH  16  19
ENDBRANCH   1  16
BRANCH   1  23
ATOM     23  C   UNL     1      -0.088   3.066 -20.200  0.00  0.00    +0.000 C 
ATOM     24  H   UNL     1       0.226   2.019 -20.267  0.00  0.00    +0.000 HD
ATOM     25  H   UNL     1      -1.040   3.157 -20.730  0.00  0.00    +0.000 HD
BRANCH  23  26
ATOM     26  O   UNL     1      -0.304   3.360 -18.827  0.00  0.00    +0.000 OA
ATOM     27  H   UNL     1       0.433   3.918 -18.527  0.00  0.00    +0.000 HD
ENDBRANCH  23  26
ENDBRANCH   1  23
TORSDOF 8
ENDMDL
MODEL 5
REMARK VINA RESULT:    -3.599     23.809     24.791
REMARK INTER + INTRA:          -5.308
REMARK INTER:                  -4.805
REMARK INTRA:                  -0.503
REMARK UNBOUND:                -0.342
REMARK  Name = 7720
REMARK  8 active torsions:
REMARK  status: ('A' for Active; 'I' for Inactive)
REMARK    1  A    between atoms: O_1  and  C_6
REMARK    2  A    between atoms: C_2  and  C_3
REMARK    3  A    between atoms: C_2  and  C_5
REMARK    4  A    between atoms: C_2  and  C_6
REMARK    5  A    between atoms: C_3  and  C_4
REMARK    6  A    between atoms: C_4  and  C_7
REMARK    7  A    between atoms: C_5  and  C_8
REMARK    8  A    between atoms: C_7  and  C_9
REMARK                            x       y       z     vdW  Elec       q    Type
REMARK                         _______ _______ _______ _____ _____    ______ ____
ROOT
ATOM      1  C   UNL     1       0.431   2.722 -21.150  0.00  0.00    +0.000 C 
ATOM      2  H   UNL     1       0.052   1.703 -20.983  0.00  0.00    +0.000 HD
ENDROOT
BRANCH   1   3
ATOM      3  C   UNL     1       0.956   3.249 -19.797  0.00  0.00    +0.000 C 
ATOM      4  H   UNL     1       0.570   2.610 -18.992  0.00  0.00    +0.000 HD
ATOM      5  H   UNL     1       2.048   3.162 -19.758  0.00  0.00    +0.000 HD
BRANCH   3   6
ATOM      6  C   UNL     1       0.544   4.694 -19.499  0.00  0.00    +0.000 C 
ATOM      7  H   UNL     1       0.154   4.757 -18.475  0.00  0.00    +0.000 HD
ATOM      8  H   UNL     1      -0.266   4.997 -20.170  0.00  0.00    +0.000 HD
BRANCH   6   9
ATOM      9  C   UNL     1       1.691   5.695 -19.669  0.00  0.00    +0.000 C 
ATOM     10  H   UNL     1       1.675   6.408 -18.836  0.00  0.00    +0.000 HD
ATOM     11  H   UNL     1       2.648   5.163 -19.616  0.00  0.00    +0.000 HD
BRANCH   9  12
ATOM     12  C   UNL     1       1.632   6.465 -20.979  0.00  0.00    +0.000 C 
ATOM     13  H   UNL     1       2.566   7.012 -21.141  0.00  0.00    +0.000 HD
ATOM     14  H   UNL     1       1.483   5.786 -21.825  0.00  0.00    +0.000 HD
ATOM     15  H   UNL     1       0.810   7.187 -20.970  0.00  0.00    +0.000 HD
ENDBRANCH   9  12
ENDBRANCH   6   9
ENDBRANCH   3   6
ENDBRANCH   1   3
BRANCH   1  16
ATOM     16  C   UNL     1      -0.756   3.527 -21.724  0.00  0.00    +0.000 C 
ATOM     17  H   UNL     1      -1.040   4.322 -21.026  0.00  0.00    +0.000 HD
ATOM     18  H   UNL     1      -1.633   2.871 -21.787  0.00  0.00    +0.000 HD
BRANCH  16  19
ATOM     19  C   UNL     1      -0.520   4.137 -23.099  0.00  0.00    +0.000 C 
ATOM     20  H   UNL     1       0.523   4.030 -23.413  0.00  0.00    +0.000 HD
ATOM     21  H   UNL     1      -0.747   5.208 -23.073  0.00  0.00    +0.000 HD
ATOM     22  H   UNL     1      -1.161   3.685 -23.859  0.00  0.00    +0.000 HD
ENDBRANCH  16  19
ENDBRANCH   1  16
BRANCH   1  23
ATOM     23  C   UNL     1       1.600   2.613 -22.142  0.00  0.00    +0.000 C 
ATOM     24  H   UNL     1       2.559   2.757 -21.633  0.00  0.00    +0.000 HD
ATOM     25  H   UNL     1       1.536   3.362 -22.936  0.00  0.00    +0.000 HD
BRANCH  23  26
ATOM     26  O   UNL     1       1.622   1.323 -22.737  0.00  0.00    +0.000 OA
ATOM     27  H   UNL     1       2.237   1.356 -23.489  0.00  0.00    +0.000 HD
ENDBRANCH  23  26
ENDBRANCH   1  23
TORSDOF 8
ENDMDL
MODEL 6
REMARK VINA RESULT:    -3.554     29.929     30.905
REMARK INTER + INTRA:          -5.247
REMARK INTER:                  -4.808
REMARK INTRA:                  -0.438
REMARK UNBOUND:                -0.342
REMARK  Name = 7720
REMARK  8 active torsions:
REMARK  status: ('A' for Active; 'I' for Inactive)
REMARK    1  A    between atoms: O_1  and  C_6
REMARK    2  A    between atoms: C_2  and  C_3
REMARK    3  A    between atoms: C_2  and  C_5
REMARK    4  A    between atoms: C_2  and  C_6
REMARK    5  A    between atoms: C_3  and  C_4
REMARK    6  A    between atoms: C_4  and  C_7
REMARK    7  A    between atoms: C_5  and  C_8
REMARK    8  A    between atoms: C_7  and  C_9
REMARK                            x       y       z     vdW  Elec       q    Type
REMARK                         _______ _______ _______ _____ _____    ______ ____
ROOT
ATOM      1  C   UNL     1      -6.071 -14.231   3.354  0.00  0.00    +0.000 C 
ATOM      2  H   UNL     1      -5.480 -13.394   3.753  0.00  0.00    +0.000 HD
ENDROOT
BRANCH   1   3
ATOM      3  C   UNL     1      -7.489 -14.125   3.952  0.00  0.00    +0.000 C 
ATOM      4  H   UNL     1      -8.208 -13.968   3.138  0.00  0.00    +0.000 HD
ATOM      5  H   UNL     1      -7.768 -15.073   4.427  0.00  0.00    +0.000 HD
BRANCH   3   6
ATOM      6  C   UNL     1      -7.647 -12.980   4.958  0.00  0.00    +0.000 C 
ATOM      7  H   UNL     1      -8.488 -12.343   4.655  0.00  0.00    +0.000 HD
ATOM      8  H   UNL     1      -6.751 -12.352   4.953  0.00  0.00    +0.000 HD
BRANCH   6   9
ATOM      9  C   UNL     1      -7.870 -13.466   6.394  0.00  0.00    +0.000 C 
ATOM     10  H   UNL     1      -6.986 -13.227   6.997  0.00  0.00    +0.000 HD
ATOM     11  H   UNL     1      -8.714 -12.922   6.834  0.00  0.00    +0.000 HD
BRANCH   9  12
ATOM     12  C   UNL     1      -8.145 -14.958   6.491  0.00  0.00    +0.000 C 
ATOM     13  H   UNL     1      -7.474 -15.513   5.828  0.00  0.00    +0.000 HD
ATOM     14  H   UNL     1      -7.990 -15.318   7.512  0.00  0.00    +0.000 HD
ATOM     15  H   UNL     1      -9.176 -15.184   6.201  0.00  0.00    +0.000 HD
ENDBRANCH   9  12
ENDBRANCH   6   9
ENDBRANCH   3   6
ENDBRANCH   1   3
BRANCH   1  16
ATOM     16  C   UNL     1      -5.309 -15.514   3.755  0.00  0.00    +0.000 C 
ATOM     17  H   UNL     1      -4.618 -15.804   2.955  0.00  0.00    +0.000 HD
ATOM     18  H   UNL     1      -6.024 -16.343   3.834  0.00  0.00    +0.000 HD
BRANCH  16  19
ATOM     19  C   UNL     1      -4.539 -15.427   5.066  0.00  0.00    +0.000 C 
ATOM     20  H   UNL     1      -3.708 -16.137   5.092  0.00  0.00    +0.000 HD
ATOM     21  H   UNL     1      -5.203 -15.667   5.902  0.00  0.00    +0.000 HD
ATOM     22  H   UNL     1      -4.146 -14.422   5.238  0.00  0.00    +0.000 HD
ENDBRANCH  16  19
ENDBRANCH   1  16
BRANCH   1  23
ATOM     23  C   UNL     1      -6.146 -14.047   1.829  0.00  0.00    +0.000 C 
ATOM     24  H   UNL     1      -6.039 -15.008   1.315  0.00  0.00    +0.000 HD
ATOM     25  H   UNL     1      -5.359 -13.386   1.456  0.00  0.00    +0.000 HD
BRANCH  23  26
ATOM     26  O   UNL     1      -7.406 -13.503   1.462  0.00  0.00    +0.000 OA
ATOM     27  H   UNL     1      -7.436 -12.587   1.786  0.00  0.00    +0.000 HD
ENDBRANCH  23  26
ENDBRANCH   1  23
TORSDOF 8
ENDMDL
MODEL 7
REMARK VINA RESULT:    -3.508     21.940     22.921
REMARK INTER + INTRA:          -5.183
REMARK INTER:                  -4.796
REMARK INTRA:                  -0.387
REMARK UNBOUND:                -0.342
REMARK  Name = 7720
REMARK  8 active torsions:
REMARK  status: ('A' for Active; 'I' for Inactive)
REMARK    1  A    between atoms: O_1  and  C_6
REMARK    2  A    between atoms: C_2  and  C_3
REMARK    3  A    between atoms: C_2  and  C_5
REMARK    4  A    between atoms: C_2  and  C_6
REMARK    5  A    between atoms: C_3  and  C_4
REMARK    6  A    between atoms: C_4  and  C_7
REMARK    7  A    between atoms: C_5  and  C_8
REMARK    8  A    between atoms: C_7  and  C_9
REMARK                            x       y       z     vdW  Elec       q    Type
REMARK                         _______ _______ _______ _____ _____    ______ ____
ROOT
ATOM      1  C   UNL     1       1.421   4.383 -19.905  0.00  0.00    +0.000 C 
ATOM      2  H   UNL     1       1.894   4.357 -18.913  0.00  0.00    +0.000 HD
ENDROOT
BRANCH   1   3
ATOM      3  C   UNL     1       2.475   3.918 -20.933  0.00  0.00    +0.000 C 
ATOM      4  H   UNL     1       2.037   3.131 -21.561  0.00  0.00    +0.000 HD
ATOM      5  H   UNL     1       2.728   4.743 -21.610  0.00  0.00    +0.000 HD
BRANCH   3   6
ATOM      6  C   UNL     1       3.753   3.366 -20.295  0.00  0.00    +0.000 C 
ATOM      7  H   UNL     1       4.044   2.440 -20.807  0.00  0.00    +0.000 HD
ATOM      8  H   UNL     1       3.567   3.108 -19.248  0.00  0.00    +0.000 HD
BRANCH   6   9
ATOM      9  C   UNL     1       4.922   4.355 -20.333  0.00  0.00    +0.000 C 
ATOM     10  H   UNL     1       5.866   3.799 -20.348  0.00  0.00    +0.000 HD
ATOM     11  H   UNL     1       4.877   4.935 -21.262  0.00  0.00    +0.000 HD
BRANCH   9  12
ATOM     12  C   UNL     1       4.935   5.318 -19.157  0.00  0.00    +0.000 C 
ATOM     13  H   UNL     1       5.772   6.019 -19.248  0.00  0.00    +0.000 HD
ATOM     14  H   UNL     1       4.008   5.898 -19.115  0.00  0.00    +0.000 HD
ATOM     15  H   UNL     1       5.045   4.778 -18.211  0.00  0.00    +0.000 HD
ENDBRANCH   9  12
ENDBRANCH   6   9
ENDBRANCH   3   6
ENDBRANCH   1   3
BRANCH   1  16
ATOM     16  C   UNL     1       0.940   5.837 -20.106  0.00  0.00    +0.000 C 
ATOM     17  H   UNL     1       1.015   6.389 -19.163  0.00  0.00    +0.000 HD
ATOM     18  H   UNL     1      -0.129   5.828 -20.351  0.00  0.00    +0.000 HD
BRANCH  16  19
ATOM     19  C   UNL     1       1.669   6.616 -21.193  0.00  0.00    +0.000 C 
ATOM     20  H   UNL     1       2.004   7.592 -20.833  0.00  0.00    +0.000 HD
ATOM     21  H   UNL     1       0.995   6.791 -22.038  0.00  0.00    +0.000 HD
ATOM     22  H   UNL     1       2.534   6.068 -21.573  0.00  0.00    +0.000 HD
ENDBRANCH  16  19
ENDBRANCH   1  16
BRANCH   1  23
ATOM     23  C   UNL     1       0.257   3.379 -19.880  0.00  0.00    +0.000 C 
ATOM     24  H   UNL     1       0.616   2.360 -20.061  0.00  0.00    +0.000 HD
ATOM     25  H   UNL     1      -0.495   3.601 -20.641  0.00  0.00    +0.000 HD
BRANCH  23  26
ATOM     26  O   UNL     1      -0.373   3.389 -18.606  0.00  0.00    +0.000 OA
ATOM     27  H   UNL     1       0.327   3.366 -17.932  0.00  0.00    +0.000 HD
ENDBRANCH  23  26
ENDBRANCH   1  23
TORSDOF 8
ENDMDL
MODEL 8
REMARK VINA RESULT:    -3.418     18.282     19.445
REMARK INTER + INTRA:          -5.058
REMARK INTER:                  -4.717
REMARK INTRA:                  -0.342
REMARK UNBOUND:                -0.342
REMARK  Name = 7720
REMARK  8 active torsions:
REMARK  status: ('A' for Active; 'I' for Inactive)
REMARK    1  A    between atoms: O_1  and  C_6
REMARK    2  A    between atoms: C_2  and  C_3
REMARK    3  A    between atoms: C_2  and  C_5
REMARK    4  A    between atoms: C_2  and  C_6
REMARK    5  A    between atoms: C_3  and  C_4
REMARK    6  A    between atoms: C_4  and  C_7
REMARK    7  A    between atoms: C_5  and  C_8
REMARK    8  A    between atoms: C_7  and  C_9
REMARK                            x       y       z     vdW  Elec       q    Type
REMARK                         _______ _______ _______ _____ _____    ______ ____
ROOT
ATOM      1  C   UNL     1       9.867   4.628 -19.532  0.00  0.00    +0.000 C 
ATOM      2  H   UNL     1      10.032   3.656 -20.018  0.00  0.00    +0.000 HD
ENDROOT
BRANCH   1   3
ATOM      3  C   UNL     1       8.949   4.388 -18.314  0.00  0.00    +0.000 C 
ATOM      4  H   UNL     1       8.806   3.307 -18.184  0.00  0.00    +0.000 HD
ATOM      5  H   UNL     1       9.439   4.742 -17.399  0.00  0.00    +0.000 HD
BRANCH   3   6
ATOM      6  C   UNL     1       7.570   5.042 -18.445  0.00  0.00    +0.000 C 
ATOM      7  H   UNL     1       7.514   5.583 -19.398  0.00  0.00    +0.000 HD
ATOM      8  H   UNL     1       7.429   5.780 -17.649  0.00  0.00    +0.000 HD
BRANCH   6   9
ATOM      9  C   UNL     1       6.417   4.038 -18.362  0.00  0.00    +0.000 C 
ATOM     10  H   UNL     1       6.820   3.019 -18.402  0.00  0.00    +0.000 HD
ATOM     11  H   UNL     1       5.912   4.144 -17.395  0.00  0.00    +0.000 HD
BRANCH   9  12
ATOM     12  C   UNL     1       5.389   4.205 -19.470  0.00  0.00    +0.000 C 
ATOM     13  H   UNL     1       5.153   3.235 -19.920  0.00  0.00    +0.000 HD
ATOM     14  H   UNL     1       4.461   4.636 -19.081  0.00  0.00    +0.000 HD
ATOM     15  H   UNL     1       5.769   4.863 -20.259  0.00  0.00    +0.000 HD
ENDBRANCH   9  12
ENDBRANCH   6   9
ENDBRANCH   3   6
ENDBRANCH   1   3
BRANCH   1  16
ATOM     16  C   UNL     1       9.254   5.544 -20.614  0.00  0.00    +0.000 C 
ATOM     17  H   UNL     1       9.978   6.313 -20.906  0.00  0.00    +0.000 HD
ATOM     18  H   UNL     1       8.409   6.093 -20.180  0.00  0.00    +0.000 HD
BRANCH  16  19
ATOM     19  C   UNL     1       8.761   4.828 -21.865  0.00  0.00    +0.000 C 
ATOM     20  H   UNL     1       9.511   4.132 -22.252  0.00  0.00    +0.000 HD
ATOM     21  H   UNL     1       8.554   5.559 -22.653  0.00  0.00    +0.000 HD
ATOM     22  H   UNL     1       7.836   4.277 -21.679  0.00  0.00    +0.000 HD
ENDBRANCH  16  19
ENDBRANCH   1  16
BRANCH   1  23
ATOM     23  C   UNL     1      11.237   5.130 -19.046  0.00  0.00    +0.000 C 
ATOM     24  H   UNL     1      11.270   6.224 -19.038  0.00  0.00    +0.000 HD
ATOM     25  H   UNL     1      12.052   4.782 -19.686  0.00  0.00    +0.000 HD
BRANCH  23  26
ATOM     26  O   UNL     1      11.481   4.685 -17.719  0.00  0.00    +0.000 OA
ATOM     27  H   UNL     1      12.433   4.506 -17.640  0.00  0.00    +0.000 HD
ENDBRANCH  23  26
ENDBRANCH   1  23
TORSDOF 8
ENDMDL
MODEL 9
REMARK VINA RESULT:    -3.367     22.087     22.907
REMARK INTER + INTRA:          -4.988
REMARK INTER:                  -4.758
REMARK INTRA:                  -0.230
REMARK UNBOUND:                -0.342
REMARK  Name = 7720
REMARK  8 active torsions:
REMARK  status: ('A' for Active; 'I' for Inactive)
REMARK    1  A    between atoms: O_1  and  C_6
REMARK    2  A    between atoms: C_2  and  C_3
REMARK    3  A    between atoms: C_2  and  C_5
REMARK    4  A    between atoms: C_2  and  C_6
REMARK    5  A    between atoms: C_3  and  C_4
REMARK    6  A    between atoms: C_4  and  C_7
REMARK    7  A    between atoms: C_5  and  C_8
REMARK    8  A    between atoms: C_7  and  C_9
REMARK                            x       y       z     vdW  Elec       q    Type
REMARK                         _______ _______ _______ _____ _____    ______ ____
ROOT
ATOM      1  C   UNL     1      -0.081  19.624 -10.623  0.00  0.00    +0.000 C 
ATOM      2  H   UNL     1       0.927  19.649 -10.185  0.00  0.00    +0.000 HD
ENDROOT
BRANCH   1   3
ATOM      3  C   UNL     1      -0.952  20.630  -9.842  0.00  0.00    +0.000 C 
ATOM      4  H   UNL     1      -0.968  21.584 -10.384  0.00  0.00    +0.000 HD
ATOM      5  H   UNL     1      -1.991  20.281  -9.808  0.00  0.00    +0.000 HD
BRANCH   3   6
ATOM      6  C   UNL     1      -0.454  20.898  -8.418  0.00  0.00    +0.000 C 
ATOM      7  H   UNL     1       0.173  21.799  -8.415  0.00  0.00    +0.000 HD
ATOM      8  H   UNL     1       0.177  20.069  -8.081  0.00  0.00    +0.000 HD
BRANCH   6   9
ATOM      9  C   UNL     1      -1.588  21.065  -7.403  0.00  0.00    +0.000 C 
ATOM     10  H   UNL     1      -1.878  22.122  -7.355  0.00  0.00    +0.000 HD
ATOM     11  H   UNL     1      -2.468  20.508  -7.747  0.00  0.00    +0.000 HD
BRANCH   9  12
ATOM     12  C   UNL     1      -1.224  20.590  -6.006  0.00  0.00    +0.000 C 
ATOM     13  H   UNL     1      -0.967  19.526  -6.020  0.00  0.00    +0.000 HD
ATOM     14  H   UNL     1      -0.364  21.143  -5.616  0.00  0.00    +0.000 HD
ATOM     15  H   UNL     1      -2.063  20.728  -5.316  0.00  0.00    +0.000 HD
ENDBRANCH   9  12
ENDBRANCH   6   9
ENDBRANCH   3   6
ENDBRANCH   1   3
BRANCH   1  16
ATOM     16  C   UNL     1      -0.554  18.158 -10.511  0.00  0.00    +0.000 C 
ATOM     17  H   UNL     1       0.073  17.617  -9.792  0.00  0.00    +0.000 HD
ATOM     18  H   UNL     1      -0.391  17.656 -11.472  0.00  0.00    +0.000 HD
BRANCH  16  19
ATOM     19  C   UNL     1      -2.016  17.977 -10.124  0.00  0.00    +0.000 C 
ATOM     20  H   UNL     1      -2.473  17.139 -10.659  0.00  0.00    +0.000 HD
ATOM     21  H   UNL     1      -2.581  18.878 -10.382  0.00  0.00    +0.000 HD
ATOM     22  H   UNL     1      -2.134  17.813  -9.050  0.00  0.00    +0.000 HD
ENDBRANCH  16  19
ENDBRANCH   1  16
BRANCH   1  23
ATOM     23  C   UNL     1       0.047  20.088 -12.083  0.00  0.00    +0.000 C 
ATOM     24  H   UNL     1      -0.392  21.082 -12.217  0.00  0.00    +0.000 HD
ATOM     25  H   UNL     1      -0.459  19.411 -12.776  0.00  0.00    +0.000 HD
BRANCH  23  26
ATOM     26  O   UNL     1       1.416  20.172 -12.453  0.00  0.00    +0.000 OA
ATOM     27  H   UNL     1       1.459  20.173 -13.424  0.00  0.00    +0.000 HD
ENDBRANCH  23  26
ENDBRANCH   1  23
TORSDOF 8
ENDMDL
MODEL 10
REMARK VINA RESULT:    -3.354     30.906     32.570
REMARK INTER + INTRA:          -4.970
REMARK INTER:                  -4.445
REMARK INTRA:                  -0.525
REMARK UNBOUND:                -0.342
REMARK  Name = 7720
REMARK  8 active torsions:
REMARK  status: ('A' for Active; 'I' for Inactive)
REMARK    1  A    between atoms: O_1  and  C_6
REMARK    2  A    between atoms: C_2  and  C_3
REMARK    3  A    between atoms: C_2  and  C_5
REMARK    4  A    between atoms: C_2  and  C_6
REMARK    5  A    between atoms: C_3  and  C_4
REMARK    6  A    between atoms: C_4  and  C_7
REMARK    7  A    between atoms: C_5  and  C_8
REMARK    8  A    between atoms: C_7  and  C_9
REMARK                            x       y       z     vdW  Elec       q    Type
REMARK                         _______ _______ _______ _____ _____    ______ ____
ROOT
ATOM      1  C   UNL     1      -7.625 -16.325   6.556  0.00  0.00    +0.000 C 
ATOM      2  H   UNL     1      -7.554 -16.929   7.472  0.00  0.00    +0.000 HD
ENDROOT
BRANCH   1   3
ATOM      3  C   UNL     1      -8.212 -14.953   6.950  0.00  0.00    +0.000 C 
ATOM      4  H   UNL     1      -9.253 -14.899   6.604  0.00  0.00    +0.000 HD
ATOM      5  H   UNL     1      -8.248 -14.859   8.042  0.00  0.00    +0.000 HD
BRANCH   3   6
ATOM      6  C   UNL     1      -7.449 -13.764   6.356  0.00  0.00    +0.000 C 
ATOM      7  H   UNL     1      -6.452 -14.095   6.038  0.00  0.00    +0.000 HD
ATOM      8  H   UNL     1      -7.302 -12.995   7.121  0.00  0.00    +0.000 HD
BRANCH   6   9
ATOM      9  C   UNL     1      -8.171 -13.114   5.173  0.00  0.00    +0.000 C 
ATOM     10  H   UNL     1      -9.204 -13.481   5.133  0.00  0.00    +0.000 HD
ATOM     11  H   UNL     1      -8.223 -12.031   5.329  0.00  0.00    +0.000 HD
BRANCH   9  12
ATOM     12  C   UNL     1      -7.501 -13.383   3.834  0.00  0.00    +0.000 C 
ATOM     13  H   UNL     1      -6.487 -12.971   3.827  0.00  0.00    +0.000 HD
ATOM     14  H   UNL     1      -7.434 -14.458   3.640  0.00  0.00    +0.000 HD
ATOM     15  H   UNL     1      -8.063 -12.920   3.017  0.00  0.00    +0.000 HD
ENDBRANCH   9  12
ENDBRANCH   6   9
ENDBRANCH   3   6
ENDBRANCH   1   3
BRANCH   1  16
ATOM     16  C   UNL     1      -8.509 -17.135   5.582  0.00  0.00    +0.000 C 
ATOM     17  H   UNL     1      -8.492 -18.196   5.858  0.00  0.00    +0.000 HD
ATOM     18  H   UNL     1      -8.067 -17.091   4.579  0.00  0.00    +0.000 HD
BRANCH  16  19
ATOM     19  C   UNL     1      -9.956 -16.672   5.484  0.00  0.00    +0.000 C 
ATOM     20  H   UNL     1     -10.205 -15.960   6.276  0.00  0.00    +0.000 HD
ATOM     21  H   UNL     1     -10.627 -17.530   5.590  0.00  0.00    +0.000 HD
ATOM     22  H   UNL     1     -10.168 -16.208   4.517  0.00  0.00    +0.000 HD
ENDBRANCH  16  19
ENDBRANCH   1  16
BRANCH   1  23
ATOM     23  C   UNL     1      -6.193 -16.133   6.028  0.00  0.00    +0.000 C 
ATOM     24  H   UNL     1      -5.476 -16.696   6.634  0.00  0.00    +0.000 HD
ATOM     25  H   UNL     1      -5.886 -15.085   6.046  0.00  0.00    +0.000 HD
BRANCH  23  26
ATOM     26  O   UNL     1      -6.094 -16.612   4.694  0.00  0.00    +0.000 OA
ATOM     27  H   UNL     1      -6.614 -17.431   4.636  0.00  0.00    +0.000 HD
ENDBRANCH  23  26
ENDBRANCH   1  23
TORSDOF 8
ENDMDL
