MODEL 1
REMARK VINA RESULT:    -3.437      0.000      0.000
REMARK INTER + INTRA:          -3.538
REMARK INTER:                  -3.538
REMARK INTRA:                   0.000
REMARK UNBOUND:                 0.000
REMARK  Name = 7976
REMARK  1 active torsions:
REMARK  status: ('A' for Active; 'I' for Inactive)
REMARK    1  A    between atoms: C_3  and  C_4
REMARK                            x       y       z     vdW  Elec       q    Type
REMARK                         _______ _______ _______ _____ _____    ______ ____
ROOT
ATOM      1  N   UNL     1      18.834  -4.980  -3.838  0.00  0.00    +0.000 NA
ATOM      2  N   UNL     1      16.608  -4.559  -2.186  0.00  0.00    +0.000 NA
ATOM      3  C   UNL     1      17.699  -5.693  -3.975  0.00  0.00    +0.000 A 
ATOM      4  C   UNL     1      16.605  -5.486  -3.163  0.00  0.00    +0.000 A 
ATOM      5  C   UNL     1      18.836  -4.053  -2.860  0.00  0.00    +0.000 A 
ATOM      6  C   UNL     1      17.743  -3.846  -2.049  0.00  0.00    +0.000 A 
ATOM      7  H   UNL     1      15.688  -6.055  -3.267  0.00  0.00    +0.000 HD
ATOM      8  H   UNL     1      19.749  -3.479  -2.750  0.00  0.00    +0.000 HD
ATOM      9  H   UNL     1      17.747  -3.100  -1.263  0.00  0.00    +0.000 HD
ENDROOT
BRANCH   3  10
ATOM     10  C   UNL     1      17.659  -6.727  -5.045  0.00  0.00    +0.000 C 
ATOM     11  H   UNL     1      18.437  -6.533  -5.792  0.00  0.00    +0.000 HD
ATOM     12  H   UNL     1      17.816  -7.723  -4.619  0.00  0.00    +0.000 HD
ATOM     13  H   UNL     1      16.692  -6.727  -5.558  0.00  0.00    +0.000 HD
ENDBRANCH   3  10
TORSDOF 1
ENDMDL
MODEL 2
REMARK VINA RESULT:    -3.396     25.800     26.341
REMARK INTER + INTRA:          -3.496
REMARK INTER:                  -3.496
REMARK INTRA:                   0.000
REMARK UNBOUND:                 0.000
REMARK  Name = 7976
REMARK  1 active torsions:
REMARK  status: ('A' for Active; 'I' for Inactive)
REMARK    1  A    between atoms: C_3  and  C_4
REMARK                            x       y       z     vdW  Elec       q    Type
REMARK                         _______ _______ _______ _____ _____    ______ ____
ROOT
ATOM      1  N   UNL     1       1.043   1.881 -22.588  0.00  0.00    +0.000 NA
ATOM      2  N   UNL     1      -0.944   2.778 -20.823  0.00  0.00    +0.000 NA
ATOM      3  C   UNL     1       1.344   2.449 -21.403  0.00  0.00    +0.000 A 
ATOM      4  C   UNL     1       0.368   2.890 -20.536  0.00  0.00    +0.000 A 
ATOM      5  C   UNL     1      -0.270   1.769 -22.874  0.00  0.00    +0.000 A 
ATOM      6  C   UNL     1      -1.245   2.209 -22.008  0.00  0.00    +0.000 A 
ATOM      7  H   UNL     1       0.601   3.348 -19.582  0.00  0.00    +0.000 HD
ATOM      8  H   UNL     1      -0.512   1.313 -23.826  0.00  0.00    +0.000 HD
ATOM      9  H   UNL     1      -2.299   2.119 -22.239  0.00  0.00    +0.000 HD
ENDROOT
BRANCH   3  10
ATOM     10  C   UNL     1       2.784   2.590 -21.053  0.00  0.00    +0.000 C 
ATOM     11  H   UNL     1       3.063   1.860 -20.286  0.00  0.00    +0.000 HD
ATOM     12  H   UNL     1       3.409   2.433 -21.938  0.00  0.00    +0.000 HD
ATOM     13  H   UNL     1       2.998   3.589 -20.661  0.00  0.00    +0.000 HD
ENDBRANCH   3  10
TORSDOF 1
ENDMDL
MODEL 3
REMARK VINA RESULT:    -3.384     26.044     26.646
REMARK INTER + INTRA:          -3.483
REMARK INTER:                  -3.483
REMARK INTRA:                   0.000
REMARK UNBOUND:                 0.000
REMARK  Name = 7976
REMARK  1 active torsions:
REMARK  status: ('A' for Active; 'I' for Inactive)
REMARK    1  A    between atoms: C_3  and  C_4
REMARK                            x       y       z     vdW  Elec       q    Type
REMARK                         _______ _______ _______ _____ _____    ______ ____
ROOT
ATOM      1  N   UNL     1      -0.928   2.971 -20.959  0.00  0.00    +0.000 NA
ATOM      2  N   UNL     1       1.057   1.944 -22.654  0.00  0.00    +0.000 NA
ATOM      3  C   UNL     1       0.370   3.309 -20.825  0.00  0.00    +0.000 A 
ATOM      4  C   UNL     1       1.345   2.804 -21.658  0.00  0.00    +0.000 A 
ATOM      5  C   UNL     1      -1.215   2.111 -21.956  0.00  0.00    +0.000 A 
ATOM      6  C   UNL     1      -0.241   1.606 -22.789  0.00  0.00    +0.000 A 
ATOM      7  H   UNL     1       2.391   3.070 -21.557  0.00  0.00    +0.000 HD
ATOM      8  H   UNL     1      -2.259   1.839 -22.065  0.00  0.00    +0.000 HD
ATOM      9  H   UNL     1      -0.474   0.915 -23.589  0.00  0.00    +0.000 HD
ENDROOT
BRANCH   3  10
ATOM     10  C   UNL     1       0.726   4.257 -19.735  0.00  0.00    +0.000 C 
ATOM     11  H   UNL     1       1.687   3.981 -19.287  0.00  0.00    +0.000 HD
ATOM     12  H   UNL     1       0.794   5.278 -20.124  0.00  0.00    +0.000 HD
ATOM     13  H   UNL     1      -0.030   4.247 -18.942  0.00  0.00    +0.000 HD
ENDBRANCH   3  10
TORSDOF 1
ENDMDL
MODEL 4
REMARK VINA RESULT:    -3.235     26.142     26.618
REMARK INTER + INTRA:          -3.330
REMARK INTER:                  -3.330
REMARK INTRA:                   0.000
REMARK UNBOUND:                 0.000
REMARK  Name = 7976
REMARK  1 active torsions:
REMARK  status: ('A' for Active; 'I' for Inactive)
REMARK    1  A    between atoms: C_3  and  C_4
REMARK                            x       y       z     vdW  Elec       q    Type
REMARK                         _______ _______ _______ _____ _____    ______ ____
ROOT
ATOM      1  N   UNL     1       0.058   5.196 -21.706  0.00  0.00    +0.000 NA
ATOM      2  N   UNL     1      -0.114   3.029 -19.933  0.00  0.00    +0.000 NA
ATOM      3  C   UNL     1       0.649   5.216 -20.495  0.00  0.00    +0.000 A 
ATOM      4  C   UNL     1       0.564   4.152 -19.624  0.00  0.00    +0.000 A 
ATOM      5  C   UNL     1      -0.620   4.072 -22.015  0.00  0.00    +0.000 A 
ATOM      6  C   UNL     1      -0.704   3.009 -21.144  0.00  0.00    +0.000 A 
ATOM      7  H   UNL     1       1.036   4.161 -18.648  0.00  0.00    +0.000 HD
ATOM      8  H   UNL     1      -1.095   4.055 -22.989  0.00  0.00    +0.000 HD
ATOM      9  H   UNL     1      -1.250   2.107 -21.394  0.00  0.00    +0.000 HD
ENDROOT
BRANCH   3  10
ATOM     10  C   UNL     1       1.407   6.441 -20.119  0.00  0.00    +0.000 C 
ATOM     11  H   UNL     1       1.612   6.448 -19.044  0.00  0.00    +0.000 HD
ATOM     12  H   UNL     1       2.356   6.484 -20.664  0.00  0.00    +0.000 HD
ATOM     13  H   UNL     1       0.838   7.345 -20.359  0.00  0.00    +0.000 HD
ENDBRANCH   3  10
TORSDOF 1
ENDMDL
MODEL 5
REMARK VINA RESULT:    -3.208      1.341      2.014
REMARK INTER + INTRA:          -3.302
REMARK INTER:                  -3.302
REMARK INTRA:                   0.000
REMARK UNBOUND:                 0.000
REMARK  Name = 7976
REMARK  1 active torsions:
REMARK  status: ('A' for Active; 'I' for Inactive)
REMARK    1  A    between atoms: C_3  and  C_4
REMARK                            x       y       z     vdW  Elec       q    Type
REMARK                         _______ _______ _______ _____ _____    ______ ____
ROOT
ATOM      1  N   UNL     1      17.280  -6.038  -3.576  0.00  0.00    +0.000 NA
ATOM      2  N   UNL     1      17.685  -3.767  -1.981  0.00  0.00    +0.000 NA
ATOM      3  C   UNL     1      16.393  -5.660  -2.634  0.00  0.00    +0.000 A 
ATOM      4  C   UNL     1      16.593  -4.544  -1.850  0.00  0.00    +0.000 A 
ATOM      5  C   UNL     1      18.373  -5.259  -3.707  0.00  0.00    +0.000 A 
ATOM      6  C   UNL     1      18.572  -4.144  -2.924  0.00  0.00    +0.000 A 
ATOM      7  H   UNL     1      15.885  -4.234  -1.090  0.00  0.00    +0.000 HD
ATOM      8  H   UNL     1      19.085  -5.562  -4.465  0.00  0.00    +0.000 HD
ATOM      9  H   UNL     1      19.450  -3.520  -3.030  0.00  0.00    +0.000 HD
ENDROOT
BRANCH   3  10
ATOM     10  C   UNL     1      15.174  -6.496  -2.461  0.00  0.00    +0.000 C 
ATOM     11  H   UNL     1      15.365  -7.522  -2.791  0.00  0.00    +0.000 HD
ATOM     12  H   UNL     1      14.868  -6.511  -1.410  0.00  0.00    +0.000 HD
ATOM     13  H   UNL     1      14.340  -6.102  -3.051  0.00  0.00    +0.000 HD
ENDBRANCH   3  10
TORSDOF 1
ENDMDL
MODEL 6
REMARK VINA RESULT:    -3.157     26.360     26.767
REMARK INTER + INTRA:          -3.249
REMARK INTER:                  -3.249
REMARK INTRA:                   0.000
REMARK UNBOUND:                 0.000
REMARK  Name = 7976
REMARK  1 active torsions:
REMARK  status: ('A' for Active; 'I' for Inactive)
REMARK    1  A    between atoms: C_3  and  C_4
REMARK                            x       y       z     vdW  Elec       q    Type
REMARK                         _______ _______ _______ _____ _____    ______ ____
ROOT
ATOM      1  N   UNL     1       0.541   4.554 -22.108  0.00  0.00    +0.000 NA
ATOM      2  N   UNL     1      -0.201   3.069 -19.847  0.00  0.00    +0.000 NA
ATOM      3  C   UNL     1      -0.329   3.528 -22.183  0.00  0.00    +0.000 A 
ATOM      4  C   UNL     1      -0.694   2.798 -21.072  0.00  0.00    +0.000 A 
ATOM      5  C   UNL     1       1.034   4.824 -20.883  0.00  0.00    +0.000 A 
ATOM      6  C   UNL     1       0.669   4.095 -19.773  0.00  0.00    +0.000 A 
ATOM      7  H   UNL     1      -1.393   1.971 -21.123  0.00  0.00    +0.000 HD
ATOM      8  H   UNL     1       1.733   5.650 -20.822  0.00  0.00    +0.000 HD
ATOM      9  H   UNL     1       1.066   4.314 -18.789  0.00  0.00    +0.000 HD
ENDROOT
BRANCH   3  10
ATOM     10  C   UNL     1      -0.894   3.200 -23.520  0.00  0.00    +0.000 C 
ATOM     11  H   UNL     1      -1.475   4.044 -23.906  0.00  0.00    +0.000 HD
ATOM     12  H   UNL     1      -0.091   2.967 -24.227  0.00  0.00    +0.000 HD
ATOM     13  H   UNL     1      -1.558   2.331 -23.465  0.00  0.00    +0.000 HD
ENDBRANCH   3  10
TORSDOF 1
ENDMDL
MODEL 7
REMARK VINA RESULT:    -3.064      1.127      2.416
REMARK INTER + INTRA:          -3.154
REMARK INTER:                  -3.154
REMARK INTRA:                   0.000
REMARK UNBOUND:                 0.000
REMARK  Name = 7976
REMARK  1 active torsions:
REMARK  status: ('A' for Active; 'I' for Inactive)
REMARK    1  A    between atoms: C_3  and  C_4
REMARK                            x       y       z     vdW  Elec       q    Type
REMARK                         _______ _______ _______ _____ _____    ______ ____
ROOT
ATOM      1  N   UNL     1      17.791  -3.832  -2.347  0.00  0.00    +0.000 NA
ATOM      2  N   UNL     1      18.604  -5.808  -4.165  0.00  0.00    +0.000 NA
ATOM      3  C   UNL     1      16.978  -4.843  -2.713  0.00  0.00    +0.000 A 
ATOM      4  C   UNL     1      17.378  -5.814  -3.607  0.00  0.00    +0.000 A 
ATOM      5  C   UNL     1      19.018  -3.827  -2.906  0.00  0.00    +0.000 A 
ATOM      6  C   UNL     1      19.417  -4.797  -3.798  0.00  0.00    +0.000 A 
ATOM      7  H   UNL     1      16.730  -6.630  -3.906  0.00  0.00    +0.000 HD
ATOM      8  H   UNL     1      19.672  -3.015  -2.612  0.00  0.00    +0.000 HD
ATOM      9  H   UNL     1      20.403  -4.791  -4.246  0.00  0.00    +0.000 HD
ENDROOT
BRANCH   3  10
ATOM     10  C   UNL     1      15.615  -4.882  -2.117  0.00  0.00    +0.000 C 
ATOM     11  H   UNL     1      15.376  -5.895  -1.777  0.00  0.00    +0.000 HD
ATOM     12  H   UNL     1      15.552  -4.196  -1.265  0.00  0.00    +0.000 HD
ATOM     13  H   UNL     1      14.857  -4.583  -2.848  0.00  0.00    +0.000 HD
ENDBRANCH   3  10
TORSDOF 1
ENDMDL
MODEL 8
REMARK VINA RESULT:    -3.040     24.524     25.070
REMARK INTER + INTRA:          -3.129
REMARK INTER:                  -3.129
REMARK INTRA:                   0.000
REMARK UNBOUND:                 0.000
REMARK  Name = 7976
REMARK  1 active torsions:
REMARK  status: ('A' for Active; 'I' for Inactive)
REMARK    1  A    between atoms: C_3  and  C_4
REMARK                            x       y       z     vdW  Elec       q    Type
REMARK                         _______ _______ _______ _____ _____    ______ ____
ROOT
ATOM      1  N   UNL     1      13.412  19.073 -12.358  0.00  0.00    +0.000 NA
ATOM      2  N   UNL     1      13.774  16.303 -12.097  0.00  0.00    +0.000 NA
ATOM      3  C   UNL     1      12.430  18.263 -11.914  0.00  0.00    +0.000 A 
ATOM      4  C   UNL     1      12.608  16.902 -11.786  0.00  0.00    +0.000 A 
ATOM      5  C   UNL     1      14.578  18.472 -12.668  0.00  0.00    +0.000 A 
ATOM      6  C   UNL     1      14.756  17.113 -12.540  0.00  0.00    +0.000 A 
ATOM      7  H   UNL     1      11.823  16.245 -11.431  0.00  0.00    +0.000 HD
ATOM      8  H   UNL     1      15.368  19.123 -13.025  0.00  0.00    +0.000 HD
ATOM      9  H   UNL     1      15.694  16.633 -12.790  0.00  0.00    +0.000 HD
ENDROOT
BRANCH   3  10
ATOM     10  C   UNL     1      11.127  18.890 -11.562  0.00  0.00    +0.000 C 
ATOM     11  H   UNL     1      10.905  19.718 -12.244  0.00  0.00    +0.000 HD
ATOM     12  H   UNL     1      10.320  18.153 -11.621  0.00  0.00    +0.000 HD
ATOM     13  H   UNL     1      11.146  19.289 -10.542  0.00  0.00    +0.000 HD
ENDBRANCH   3  10
TORSDOF 1
ENDMDL
MODEL 9
REMARK VINA RESULT:    -3.039     25.870     26.837
REMARK INTER + INTRA:          -3.127
REMARK INTER:                  -3.127
REMARK INTRA:                   0.000
REMARK UNBOUND:                 0.000
REMARK  Name = 7976
REMARK  1 active torsions:
REMARK  status: ('A' for Active; 'I' for Inactive)
REMARK    1  A    between atoms: C_3  and  C_4
REMARK                            x       y       z     vdW  Elec       q    Type
REMARK                         _______ _______ _______ _____ _____    ______ ____
ROOT
ATOM      1  N   UNL     1      -7.315  -8.576 -11.078  0.00  0.00    +0.000 NA
ATOM      2  N   UNL     1      -8.672  -6.328 -12.062  0.00  0.00    +0.000 NA
ATOM      3  C   UNL     1      -6.663  -7.535 -11.632  0.00  0.00    +0.000 A 
ATOM      4  C   UNL     1      -7.330  -6.430 -12.116  0.00  0.00    +0.000 A 
ATOM      5  C   UNL     1      -8.658  -8.473 -11.024  0.00  0.00    +0.000 A 
ATOM      6  C   UNL     1      -9.324  -7.369 -11.508  0.00  0.00    +0.000 A 
ATOM      7  H   UNL     1      -6.813  -5.589 -12.563  0.00  0.00    +0.000 HD
ATOM      8  H   UNL     1      -9.182  -9.310 -10.579  0.00  0.00    +0.000 HD
ATOM      9  H   UNL     1     -10.404  -7.288 -11.464  0.00  0.00    +0.000 HD
ENDROOT
BRANCH   3  10
ATOM     10  C   UNL     1      -5.178  -7.613 -11.708  0.00  0.00    +0.000 C 
ATOM     11  H   UNL     1      -4.727  -7.183 -10.808  0.00  0.00    +0.000 HD
ATOM     12  H   UNL     1      -4.856  -8.655 -11.805  0.00  0.00    +0.000 HD
ATOM     13  H   UNL     1      -4.799  -7.060 -12.573  0.00  0.00    +0.000 HD
ENDBRANCH   3  10
TORSDOF 1
ENDMDL
MODEL 10
REMARK VINA RESULT:    -2.972     24.569     25.832
REMARK INTER + INTRA:          -3.059
REMARK INTER:                  -3.059
REMARK INTRA:                   0.000
REMARK UNBOUND:                 0.000
REMARK  Name = 7976
REMARK  1 active torsions:
REMARK  status: ('A' for Active; 'I' for Inactive)
REMARK    1  A    between atoms: C_3  and  C_4
REMARK                            x       y       z     vdW  Elec       q    Type
REMARK                         _______ _______ _______ _____ _____    ______ ____
ROOT
ATOM      1  N   UNL     1      -0.684  -3.806  16.142  0.00  0.00    +0.000 NA
ATOM      2  N   UNL     1       1.465  -3.841  14.340  0.00  0.00    +0.000 NA
ATOM      3  C   UNL     1       0.138  -2.748  15.990  0.00  0.00    +0.000 A 
ATOM      4  C   UNL     1       1.194  -2.766  15.104  0.00  0.00    +0.000 A 
ATOM      5  C   UNL     1      -0.411  -4.882  15.376  0.00  0.00    +0.000 A 
ATOM      6  C   UNL     1       0.644  -4.899  14.492  0.00  0.00    +0.000 A 
ATOM      7  H   UNL     1       1.858  -1.919  14.976  0.00  0.00    +0.000 HD
ATOM      8  H   UNL     1      -1.071  -5.733  15.498  0.00  0.00    +0.000 HD
ATOM      9  H   UNL     1       0.862  -5.764  13.877  0.00  0.00    +0.000 HD
ENDROOT
BRANCH   3  10
ATOM     10  C   UNL     1      -0.133  -1.542  16.819  0.00  0.00    +0.000 C 
ATOM     11  H   UNL     1       0.484  -0.702  16.483  0.00  0.00    +0.000 HD
ATOM     12  H   UNL     1      -1.188  -1.260  16.749  0.00  0.00    +0.000 HD
ATOM     13  H   UNL     1       0.098  -1.729  17.873  0.00  0.00    +0.000 HD
ENDBRANCH   3  10
TORSDOF 1
ENDMDL
