MODEL 1
REMARK VINA RESULT:    -3.968      0.000      0.000
REMARK INTER + INTRA:          -5.754
REMARK INTER:                  -5.216
REMARK INTRA:                  -0.538
REMARK UNBOUND:                -0.278
REMARK  Name = 20083
REMARK  8 active torsions:
REMARK  status: ('A' for Active; 'I' for Inactive)
REMARK    1  A    between atoms: O_1  and  C_6
REMARK    2  A    between atoms: C_2  and  C_3
REMARK    3  A    between atoms: C_2  and  C_4
REMARK    4  A    between atoms: C_3  and  C_5
REMARK    5  A    between atoms: C_4  and  C_6
REMARK    6  A    between atoms: C_5  and  C_7
REMARK    7  A    between atoms: C_6  and  C_8
REMARK    8  A    between atoms: C_7  and  C_9
REMARK                            x       y       z     vdW  Elec       q    Type
REMARK                         _______ _______ _______ _____ _____    ______ ____
ROOT
ATOM      1  C   UNL     1      18.199  -3.880  -2.802  0.00  0.00    +0.000 C 
ATOM      2  H   UNL     1      18.699  -2.933  -2.565  0.00  0.00    +0.000 HD
ATOM      3  H   UNL     1      17.263  -3.634  -3.316  0.00  0.00    +0.000 HD
ENDROOT
BRANCH   1   4
ATOM      4  C   UNL     1      17.861  -4.621  -1.507  0.00  0.00    +0.000 C 
ATOM      5  H   UNL     1      18.391  -4.152  -0.669  0.00  0.00    +0.000 HD
ATOM      6  H   UNL     1      18.231  -5.653  -1.577  0.00  0.00    +0.000 HD
BRANCH   4   7
ATOM      7  C   UNL     1      16.362  -4.651  -1.196  0.00  0.00    +0.000 C 
ATOM      8  H   UNL     1      16.181  -5.343  -0.364  0.00  0.00    +0.000 HD
ATOM      9  H   UNL     1      16.052  -3.656  -0.852  0.00  0.00    +0.000 HD
BRANCH   7  10
ATOM     10  C   UNL     1      15.500  -5.058  -2.392  0.00  0.00    +0.000 C 
ATOM     11  H   UNL     1      14.563  -4.488  -2.385  0.00  0.00    +0.000 HD
ATOM     12  H   UNL     1      16.022  -4.813  -3.324  0.00  0.00    +0.000 HD
BRANCH  10  13
ATOM     13  C   UNL     1      15.180  -6.545  -2.365  0.00  0.00    +0.000 C 
ATOM     14  H   UNL     1      15.767  -7.059  -1.597  0.00  0.00    +0.000 HD
ATOM     15  H   UNL     1      14.119  -6.699  -2.143  0.00  0.00    +0.000 HD
ATOM     16  H   UNL     1      15.396  -7.009  -3.332  0.00  0.00    +0.000 HD
ENDBRANCH  10  13
ENDBRANCH   7  10
ENDBRANCH   4   7
ENDBRANCH   1   4
BRANCH   1  17
ATOM     17  C   UNL     1      19.100  -4.728  -3.708  0.00  0.00    +0.000 C 
ATOM     18  H   UNL     1      19.029  -4.369  -4.740  0.00  0.00    +0.000 HD
ATOM     19  H   UNL     1      20.140  -4.596  -3.382  0.00  0.00    +0.000 HD
BRANCH  17  20
ATOM     20  C   UNL     1      18.738  -6.216  -3.651  0.00  0.00    +0.000 C 
ATOM     21  H   UNL     1      18.157  -6.434  -2.747  0.00  0.00    +0.000 HD
BRANCH  20  22
ATOM     22  C   UNL     1      17.931  -6.633  -4.872  0.00  0.00    +0.000 C 
ATOM     23  H   UNL     1      18.063  -7.703  -5.069  0.00  0.00    +0.000 HD
ATOM     24  H   UNL     1      18.273  -6.106  -5.769  0.00  0.00    +0.000 HD
ATOM     25  H   UNL     1      16.864  -6.432  -4.732  0.00  0.00    +0.000 HD
ENDBRANCH  20  22
BRANCH  20  26
ATOM     26  O   UNL     1      19.935  -6.987  -3.605  0.00  0.00    +0.000 OA
ATOM     27  H   UNL     1      19.832  -7.734  -4.217  0.00  0.00    +0.000 HD
ENDBRANCH  20  26
ENDBRANCH  17  20
ENDBRANCH   1  17
TORSDOF 8
ENDMDL
MODEL 2
REMARK VINA RESULT:    -3.912      1.095      1.334
REMARK INTER + INTRA:          -5.677
REMARK INTER:                  -5.249
REMARK INTRA:                  -0.428
REMARK UNBOUND:                -0.278
REMARK  Name = 20083
REMARK  8 active torsions:
REMARK  status: ('A' for Active; 'I' for Inactive)
REMARK    1  A    between atoms: O_1  and  C_6
REMARK    2  A    between atoms: C_2  and  C_3
REMARK    3  A    between atoms: C_2  and  C_4
REMARK    4  A    between atoms: C_3  and  C_5
REMARK    5  A    between atoms: C_4  and  C_6
REMARK    6  A    between atoms: C_5  and  C_7
REMARK    7  A    between atoms: C_6  and  C_8
REMARK    8  A    between atoms: C_7  and  C_9
REMARK                            x       y       z     vdW  Elec       q    Type
REMARK                         _______ _______ _______ _____ _____    ______ ____
ROOT
ATOM      1  C   UNL     1      17.765  -4.273  -2.510  0.00  0.00    +0.000 C 
ATOM      2  H   UNL     1      18.177  -3.501  -1.849  0.00  0.00    +0.000 HD
ATOM      3  H   UNL     1      17.857  -3.904  -3.538  0.00  0.00    +0.000 HD
ENDROOT
BRANCH   1   4
ATOM      4  C   UNL     1      16.281  -4.480  -2.199  0.00  0.00    +0.000 C 
ATOM      5  H   UNL     1      15.807  -5.021  -3.028  0.00  0.00    +0.000 HD
ATOM      6  H   UNL     1      15.788  -3.501  -2.137  0.00  0.00    +0.000 HD
BRANCH   4   7
ATOM      7  C   UNL     1      16.033  -5.245  -0.897  0.00  0.00    +0.000 C 
ATOM      8  H   UNL     1      16.992  -5.425  -0.396  0.00  0.00    +0.000 HD
ATOM      9  H   UNL     1      15.439  -4.613  -0.223  0.00  0.00    +0.000 HD
BRANCH   7  10
ATOM     10  C   UNL     1      15.308  -6.576  -1.101  0.00  0.00    +0.000 C 
ATOM     11  H   UNL     1      15.941  -7.400  -0.752  0.00  0.00    +0.000 HD
ATOM     12  H   UNL     1      14.391  -6.594  -0.502  0.00  0.00    +0.000 HD
BRANCH  10  13
ATOM     13  C   UNL     1      14.961  -6.800  -2.565  0.00  0.00    +0.000 C 
ATOM     14  H   UNL     1      15.282  -7.793  -2.897  0.00  0.00    +0.000 HD
ATOM     15  H   UNL     1      13.880  -6.725  -2.713  0.00  0.00    +0.000 HD
ATOM     16  H   UNL     1      15.444  -6.051  -3.201  0.00  0.00    +0.000 HD
ENDBRANCH  10  13
ENDBRANCH   7  10
ENDBRANCH   4   7
ENDBRANCH   1   4
BRANCH   1  17
ATOM     17  C   UNL     1      18.555  -5.577  -2.338  0.00  0.00    +0.000 C 
ATOM     18  H   UNL     1      19.321  -5.445  -1.566  0.00  0.00    +0.000 HD
ATOM     19  H   UNL     1      17.864  -6.355  -1.990  0.00  0.00    +0.000 HD
BRANCH  17  20
ATOM     20  C   UNL     1      19.210  -6.031  -3.646  0.00  0.00    +0.000 C 
ATOM     21  H   UNL     1      19.933  -6.832  -3.453  0.00  0.00    +0.000 HD
BRANCH  20  22
ATOM     22  C   UNL     1      18.171  -6.531  -4.640  0.00  0.00    +0.000 C 
ATOM     23  H   UNL     1      18.653  -6.837  -5.574  0.00  0.00    +0.000 HD
ATOM     24  H   UNL     1      17.461  -5.737  -4.899  0.00  0.00    +0.000 HD
ATOM     25  H   UNL     1      17.614  -7.383  -4.238  0.00  0.00    +0.000 HD
ENDBRANCH  20  22
BRANCH  20  26
ATOM     26  O   UNL     1      19.910  -4.933  -4.225  0.00  0.00    +0.000 OA
ATOM     27  H   UNL     1      19.256  -4.355  -4.650  0.00  0.00    +0.000 HD
ENDBRANCH  20  26
ENDBRANCH  17  20
ENDBRANCH   1  17
TORSDOF 8
ENDMDL
MODEL 3
REMARK VINA RESULT:    -3.907      1.599      2.733
REMARK INTER + INTRA:          -5.670
REMARK INTER:                  -5.190
REMARK INTRA:                  -0.481
REMARK UNBOUND:                -0.278
REMARK  Name = 20083
REMARK  8 active torsions:
REMARK  status: ('A' for Active; 'I' for Inactive)
REMARK    1  A    between atoms: O_1  and  C_6
REMARK    2  A    between atoms: C_2  and  C_3
REMARK    3  A    between atoms: C_2  and  C_4
REMARK    4  A    between atoms: C_3  and  C_5
REMARK    5  A    between atoms: C_4  and  C_6
REMARK    6  A    between atoms: C_5  and  C_7
REMARK    7  A    between atoms: C_6  and  C_8
REMARK    8  A    between atoms: C_7  and  C_9
REMARK                            x       y       z     vdW  Elec       q    Type
REMARK                         _______ _______ _______ _____ _____    ______ ____
ROOT
ATOM      1  C   UNL     1      17.346  -6.044  -4.002  0.00  0.00    +0.000 C 
ATOM      2  H   UNL     1      17.211  -5.740  -5.048  0.00  0.00    +0.000 HD
ATOM      3  H   UNL     1      17.230  -7.133  -3.962  0.00  0.00    +0.000 HD
ENDROOT
BRANCH   1   4
ATOM      4  C   UNL     1      16.256  -5.408  -3.137  0.00  0.00    +0.000 C 
ATOM      5  H   UNL     1      15.686  -4.688  -3.738  0.00  0.00    +0.000 HD
ATOM      6  H   UNL     1      16.729  -4.838  -2.326  0.00  0.00    +0.000 HD
BRANCH   4   7
ATOM      7  C   UNL     1      15.288  -6.427  -2.529  0.00  0.00    +0.000 C 
ATOM      8  H   UNL     1      14.258  -6.122  -2.752  0.00  0.00    +0.000 HD
ATOM      9  H   UNL     1      15.443  -7.397  -3.018  0.00  0.00    +0.000 HD
BRANCH   7  10
ATOM     10  C   UNL     1      15.453  -6.596  -1.018  0.00  0.00    +0.000 C 
ATOM     11  H   UNL     1      14.518  -6.969  -0.583  0.00  0.00    +0.000 HD
ATOM     12  H   UNL     1      16.228  -7.344  -0.812  0.00  0.00    +0.000 HD
BRANCH  10  13
ATOM     13  C   UNL     1      15.826  -5.282  -0.349  0.00  0.00    +0.000 C 
ATOM     14  H   UNL     1      15.487  -5.262   0.691  0.00  0.00    +0.000 HD
ATOM     15  H   UNL     1      16.912  -5.150  -0.355  0.00  0.00    +0.000 HD
ATOM     16  H   UNL     1      15.378  -4.434  -0.876  0.00  0.00    +0.000 HD
ENDBRANCH  10  13
ENDBRANCH   7  10
ENDBRANCH   4   7
ENDBRANCH   1   4
BRANCH   1  17
ATOM     17  C   UNL     1      18.744  -5.636  -3.521  0.00  0.00    +0.000 C 
ATOM     18  H   UNL     1      19.174  -6.440  -2.914  0.00  0.00    +0.000 HD
ATOM     19  H   UNL     1      19.388  -5.506  -4.401  0.00  0.00    +0.000 HD
BRANCH  17  20
ATOM     20  C   UNL     1      18.720  -4.334  -2.715  0.00  0.00    +0.000 C 
ATOM     21  H   UNL     1      17.688  -3.999  -2.560  0.00  0.00    +0.000 HD
BRANCH  20  22
ATOM     22  C   UNL     1      19.392  -4.511  -1.361  0.00  0.00    +0.000 C 
ATOM     23  H   UNL     1      18.745  -5.081  -0.686  0.00  0.00    +0.000 HD
ATOM     24  H   UNL     1      19.570  -3.542  -0.881  0.00  0.00    +0.000 HD
ATOM     25  H   UNL     1      20.347  -5.037  -1.456  0.00  0.00    +0.000 HD
ENDBRANCH  20  22
BRANCH  20  26
ATOM     26  O   UNL     1      19.409  -3.321  -3.442  0.00  0.00    +0.000 OA
ATOM     27  H   UNL     1      19.049  -3.305  -4.344  0.00  0.00    +0.000 HD
ENDBRANCH  20  26
ENDBRANCH  17  20
ENDBRANCH   1  17
TORSDOF 8
ENDMDL
MODEL 4
REMARK VINA RESULT:    -3.896     11.077     12.143
REMARK INTER + INTRA:          -5.655
REMARK INTER:                  -5.452
REMARK INTRA:                  -0.202
REMARK UNBOUND:                -0.278
REMARK  Name = 20083
REMARK  8 active torsions:
REMARK  status: ('A' for Active; 'I' for Inactive)
REMARK    1  A    between atoms: O_1  and  C_6
REMARK    2  A    between atoms: C_2  and  C_3
REMARK    3  A    between atoms: C_2  and  C_4
REMARK    4  A    between atoms: C_3  and  C_5
REMARK    5  A    between atoms: C_4  and  C_6
REMARK    6  A    between atoms: C_5  and  C_7
REMARK    7  A    between atoms: C_6  and  C_8
REMARK    8  A    between atoms: C_7  and  C_9
REMARK                            x       y       z     vdW  Elec       q    Type
REMARK                         _______ _______ _______ _____ _____    ______ ____
ROOT
ATOM      1  C   UNL     1      16.417   6.668  -1.518  0.00  0.00    +0.000 C 
ATOM      2  H   UNL     1      17.455   6.733  -1.866  0.00  0.00    +0.000 HD
ATOM      3  H   UNL     1      16.178   7.616  -1.023  0.00  0.00    +0.000 HD
ENDROOT
BRANCH   1   4
ATOM      4  C   UNL     1      16.287   5.540  -0.492  0.00  0.00    +0.000 C 
ATOM      5  H   UNL     1      16.078   5.968   0.496  0.00  0.00    +0.000 HD
ATOM      6  H   UNL     1      17.248   5.016  -0.412  0.00  0.00    +0.000 HD
BRANCH   4   7
ATOM      7  C   UNL     1      15.195   4.525  -0.838  0.00  0.00    +0.000 C 
ATOM      8  H   UNL     1      14.211   4.984  -0.674  0.00  0.00    +0.000 HD
ATOM      9  H   UNL     1      15.258   4.287  -1.907  0.00  0.00    +0.000 HD
BRANCH   7  10
ATOM     10  C   UNL     1      15.291   3.229  -0.031  0.00  0.00    +0.000 C 
ATOM     11  H   UNL     1      15.592   2.404  -0.688  0.00  0.00    +0.000 HD
ATOM     12  H   UNL     1      16.064   3.329   0.740  0.00  0.00    +0.000 HD
BRANCH  10  13
ATOM     13  C   UNL     1      13.962   2.884   0.625  0.00  0.00    +0.000 C 
ATOM     14  H   UNL     1      14.102   2.626   1.680  0.00  0.00    +0.000 HD
ATOM     15  H   UNL     1      13.281   3.738   0.571  0.00  0.00    +0.000 HD
ATOM     16  H   UNL     1      13.486   2.036   0.122  0.00  0.00    +0.000 HD
ENDBRANCH  10  13
ENDBRANCH   7  10
ENDBRANCH   4   7
ENDBRANCH   1   4
BRANCH   1  17
ATOM     17  C   UNL     1      15.484   6.439  -2.714  0.00  0.00    +0.000 C 
ATOM     18  H   UNL     1      16.075   6.162  -3.595  0.00  0.00    +0.000 HD
ATOM     19  H   UNL     1      14.823   5.594  -2.480  0.00  0.00    +0.000 HD
BRANCH  17  20
ATOM     20  C   UNL     1      14.634   7.674  -3.028  0.00  0.00    +0.000 C 
ATOM     21  H   UNL     1      13.889   7.835  -2.241  0.00  0.00    +0.000 HD
BRANCH  20  22
ATOM     22  C   UNL     1      15.499   8.921  -3.154  0.00  0.00    +0.000 C 
ATOM     23  H   UNL     1      15.211   9.496  -4.040  0.00  0.00    +0.000 HD
ATOM     24  H   UNL     1      16.554   8.656  -3.283  0.00  0.00    +0.000 HD
ATOM     25  H   UNL     1      15.403   9.563  -2.273  0.00  0.00    +0.000 HD
ENDBRANCH  20  22
BRANCH  20  26
ATOM     26  O   UNL     1      13.943   7.467  -4.256  0.00  0.00    +0.000 OA
ATOM     27  H   UNL     1      13.487   8.293  -4.485  0.00  0.00    +0.000 HD
ENDBRANCH  20  26
ENDBRANCH  17  20
ENDBRANCH   1  17
TORSDOF 8
ENDMDL
MODEL 5
REMARK VINA RESULT:    -3.817     24.028     24.882
REMARK INTER + INTRA:          -5.546
REMARK INTER:                  -5.299
REMARK INTRA:                  -0.247
REMARK UNBOUND:                -0.278
REMARK  Name = 20083
REMARK  8 active torsions:
REMARK  status: ('A' for Active; 'I' for Inactive)
REMARK    1  A    between atoms: O_1  and  C_6
REMARK    2  A    between atoms: C_2  and  C_3
REMARK    3  A    between atoms: C_2  and  C_4
REMARK    4  A    between atoms: C_3  and  C_5
REMARK    5  A    between atoms: C_4  and  C_6
REMARK    6  A    between atoms: C_5  and  C_7
REMARK    7  A    between atoms: C_6  and  C_8
REMARK    8  A    between atoms: C_7  and  C_9
REMARK                            x       y       z     vdW  Elec       q    Type
REMARK                         _______ _______ _______ _____ _____    ______ ____
ROOT
ATOM      1  C   UNL     1       2.489   5.006 -20.127  0.00  0.00    +0.000 C 
ATOM      2  H   UNL     1       3.053   4.239 -19.582  0.00  0.00    +0.000 HD
ATOM      3  H   UNL     1       2.669   4.846 -21.196  0.00  0.00    +0.000 HD
ENDROOT
BRANCH   1   4
ATOM      4  C   UNL     1       3.011   6.394 -19.750  0.00  0.00    +0.000 C 
ATOM      5  H   UNL     1       2.283   6.894 -19.098  0.00  0.00    +0.000 HD
ATOM      6  H   UNL     1       3.092   7.006 -20.659  0.00  0.00    +0.000 HD
BRANCH   4   7
ATOM      7  C   UNL     1       4.371   6.364 -19.049  0.00  0.00    +0.000 C 
ATOM      8  H   UNL     1       4.988   7.191 -19.424  0.00  0.00    +0.000 HD
ATOM      9  H   UNL     1       4.221   6.544 -17.977  0.00  0.00    +0.000 HD
BRANCH   7  10
ATOM     10  C   UNL     1       5.123   5.045 -19.234  0.00  0.00    +0.000 C 
ATOM     11  H   UNL     1       4.406   4.220 -19.328  0.00  0.00    +0.000 HD
ATOM     12  H   UNL     1       5.704   5.077 -20.164  0.00  0.00    +0.000 HD
BRANCH  10  13
ATOM     13  C   UNL     1       6.053   4.768 -18.064  0.00  0.00    +0.000 C 
ATOM     14  H   UNL     1       6.792   4.002 -18.323  0.00  0.00    +0.000 HD
ATOM     15  H   UNL     1       6.591   5.679 -17.784  0.00  0.00    +0.000 HD
ATOM     16  H   UNL     1       5.492   4.423 -17.190  0.00  0.00    +0.000 HD
ENDBRANCH  10  13
ENDBRANCH   7  10
ENDBRANCH   4   7
ENDBRANCH   1   4
BRANCH   1  17
ATOM     17  C   UNL     1       0.994   4.872 -19.810  0.00  0.00    +0.000 C 
ATOM     18  H   UNL     1       0.826   5.052 -18.742  0.00  0.00    +0.000 HD
ATOM     19  H   UNL     1       0.452   5.647 -20.366  0.00  0.00    +0.000 HD
BRANCH  17  20
ATOM     20  C   UNL     1       0.444   3.495 -20.196  0.00  0.00    +0.000 C 
ATOM     21  H   UNL     1       0.019   3.523 -21.207  0.00  0.00    +0.000 HD
BRANCH  20  22
ATOM     22  C   UNL     1       1.532   2.432 -20.145  0.00  0.00    +0.000 C 
ATOM     23  H   UNL     1       2.021   2.434 -19.165  0.00  0.00    +0.000 HD
ATOM     24  H   UNL     1       2.314   2.635 -20.885  0.00  0.00    +0.000 HD
ATOM     25  H   UNL     1       1.123   1.434 -20.330  0.00  0.00    +0.000 HD
ENDBRANCH  20  22
BRANCH  20  26
ATOM     26  O   UNL     1      -0.595   3.135 -19.290  0.00  0.00    +0.000 OA
ATOM     27  H   UNL     1      -0.833   3.927 -18.780  0.00  0.00    +0.000 HD
ENDBRANCH  20  26
ENDBRANCH  17  20
ENDBRANCH   1  17
TORSDOF 8
ENDMDL
MODEL 6
REMARK VINA RESULT:    -3.760      1.606      2.162
REMARK INTER + INTRA:          -5.467
REMARK INTER:                  -5.210
REMARK INTRA:                  -0.256
REMARK UNBOUND:                -0.278
REMARK  Name = 20083
REMARK  8 active torsions:
REMARK  status: ('A' for Active; 'I' for Inactive)
REMARK    1  A    between atoms: O_1  and  C_6
REMARK    2  A    between atoms: C_2  and  C_3
REMARK    3  A    between atoms: C_2  and  C_4
REMARK    4  A    between atoms: C_3  and  C_5
REMARK    5  A    between atoms: C_4  and  C_6
REMARK    6  A    between atoms: C_5  and  C_7
REMARK    7  A    between atoms: C_6  and  C_8
REMARK    8  A    between atoms: C_7  and  C_9
REMARK                            x       y       z     vdW  Elec       q    Type
REMARK                         _______ _______ _______ _____ _____    ______ ____
ROOT
ATOM      1  C   UNL     1      18.392  -5.912  -4.361  0.00  0.00    +0.000 C 
ATOM      2  H   UNL     1      18.045  -5.597  -5.352  0.00  0.00    +0.000 HD
ATOM      3  H   UNL     1      18.926  -6.861  -4.489  0.00  0.00    +0.000 HD
ENDROOT
BRANCH   1   4
ATOM      4  C   UNL     1      17.190  -6.152  -3.446  0.00  0.00    +0.000 C 
ATOM      5  H   UNL     1      17.507  -6.739  -2.574  0.00  0.00    +0.000 HD
ATOM      6  H   UNL     1      16.447  -6.756  -3.981  0.00  0.00    +0.000 HD
BRANCH   4   7
ATOM      7  C   UNL     1      16.525  -4.860  -2.962  0.00  0.00    +0.000 C 
ATOM      8  H   UNL     1      17.293  -4.088  -2.829  0.00  0.00    +0.000 HD
ATOM      9  H   UNL     1      15.845  -4.498  -3.743  0.00  0.00    +0.000 HD
BRANCH   7  10
ATOM     10  C   UNL     1      15.744  -5.029  -1.659  0.00  0.00    +0.000 C 
ATOM     11  H   UNL     1      16.347  -4.674  -0.815  0.00  0.00    +0.000 HD
ATOM     12  H   UNL     1      14.835  -4.416  -1.689  0.00  0.00    +0.000 HD
BRANCH  10  13
ATOM     13  C   UNL     1      15.366  -6.484  -1.423  0.00  0.00    +0.000 C 
ATOM     14  H   UNL     1      15.534  -6.768  -0.379  0.00  0.00    +0.000 HD
ATOM     15  H   UNL     1      14.307  -6.641  -1.652  0.00  0.00    +0.000 HD
ATOM     16  H   UNL     1      15.954  -7.150  -2.061  0.00  0.00    +0.000 HD
ENDBRANCH  10  13
ENDBRANCH   7  10
ENDBRANCH   4   7
ENDBRANCH   1   4
BRANCH   1  17
ATOM     17  C   UNL     1      19.329  -4.846  -3.778  0.00  0.00    +0.000 C 
ATOM     18  H   UNL     1      19.212  -3.909  -4.334  0.00  0.00    +0.000 HD
ATOM     19  H   UNL     1      19.030  -4.654  -2.740  0.00  0.00    +0.000 HD
BRANCH  17  20
ATOM     20  C   UNL     1      20.796  -5.288  -3.809  0.00  0.00    +0.000 C 
ATOM     21  H   UNL     1      21.347  -4.842  -2.973  0.00  0.00    +0.000 HD
BRANCH  20  22
ATOM     22  C   UNL     1      20.917  -6.803  -3.731  0.00  0.00    +0.000 C 
ATOM     23  H   UNL     1      20.334  -7.273  -4.530  0.00  0.00    +0.000 HD
ATOM     24  H   UNL     1      20.515  -7.181  -2.785  0.00  0.00    +0.000 HD
ATOM     25  H   UNL     1      21.959  -7.124  -3.824  0.00  0.00    +0.000 HD
ENDBRANCH  20  22
BRANCH  20  26
ATOM     26  O   UNL     1      21.394  -4.839  -5.022  0.00  0.00    +0.000 OA
ATOM     27  H   UNL     1      21.896  -5.580  -5.398  0.00  0.00    +0.000 HD
ENDBRANCH  20  26
ENDBRANCH  17  20
ENDBRANCH   1  17
TORSDOF 8
ENDMDL
MODEL 7
REMARK VINA RESULT:    -3.686      1.791      2.638
REMARK INTER + INTRA:          -5.365
REMARK INTER:                  -5.014
REMARK INTRA:                  -0.351
REMARK UNBOUND:                -0.278
REMARK  Name = 20083
REMARK  8 active torsions:
REMARK  status: ('A' for Active; 'I' for Inactive)
REMARK    1  A    between atoms: O_1  and  C_6
REMARK    2  A    between atoms: C_2  and  C_3
REMARK    3  A    between atoms: C_2  and  C_4
REMARK    4  A    between atoms: C_3  and  C_5
REMARK    5  A    between atoms: C_4  and  C_6
REMARK    6  A    between atoms: C_5  and  C_7
REMARK    7  A    between atoms: C_6  and  C_8
REMARK    8  A    between atoms: C_7  and  C_9
REMARK                            x       y       z     vdW  Elec       q    Type
REMARK                         _______ _______ _______ _____ _____    ______ ____
ROOT
ATOM      1  C   UNL     1      15.704  -6.031  -2.513  0.00  0.00    +0.000 C 
ATOM      2  H   UNL     1      14.742  -6.022  -3.040  0.00  0.00    +0.000 HD
ATOM      3  H   UNL     1      16.043  -7.072  -2.471  0.00  0.00    +0.000 HD
ENDROOT
BRANCH   1   4
ATOM      4  C   UNL     1      15.514  -5.524  -1.082  0.00  0.00    +0.000 C 
ATOM      5  H   UNL     1      14.481  -5.176  -0.953  0.00  0.00    +0.000 HD
ATOM      6  H   UNL     1      16.163  -4.653  -0.921  0.00  0.00    +0.000 HD
BRANCH   4   7
ATOM      7  C   UNL     1      15.824  -6.578  -0.016  0.00  0.00    +0.000 C 
ATOM      8  H   UNL     1      15.766  -6.114   0.977  0.00  0.00    +0.000 HD
ATOM      9  H   UNL     1      15.047  -7.353  -0.048  0.00  0.00    +0.000 HD
BRANCH   7  10
ATOM     10  C   UNL     1      17.193  -7.236  -0.190  0.00  0.00    +0.000 C 
ATOM     11  H   UNL     1      17.278  -8.099   0.481  0.00  0.00    +0.000 HD
ATOM     12  H   UNL     1      17.296  -7.612  -1.215  0.00  0.00    +0.000 HD
BRANCH  10  13
ATOM     13  C   UNL     1      18.320  -6.259   0.107  0.00  0.00    +0.000 C 
ATOM     14  H   UNL     1      18.029  -5.235  -0.148  0.00  0.00    +0.000 HD
ATOM     15  H   UNL     1      18.572  -6.286   1.172  0.00  0.00    +0.000 HD
ATOM     16  H   UNL     1      19.220  -6.514  -0.461  0.00  0.00    +0.000 HD
ENDBRANCH  10  13
ENDBRANCH   7  10
ENDBRANCH   4   7
ENDBRANCH   1   4
BRANCH   1  17
ATOM     17  C   UNL     1      16.719  -5.170  -3.276  0.00  0.00    +0.000 C 
ATOM     18  H   UNL     1      16.231  -4.702  -4.138  0.00  0.00    +0.000 HD
ATOM     19  H   UNL     1      17.058  -4.365  -2.611  0.00  0.00    +0.000 HD
BRANCH  17  20
ATOM     20  C   UNL     1      17.930  -5.983  -3.744  0.00  0.00    +0.000 C 
ATOM     21  H   UNL     1      18.201  -6.733  -2.992  0.00  0.00    +0.000 HD
BRANCH  20  22
ATOM     22  C   UNL     1      17.645  -6.686  -5.064  0.00  0.00    +0.000 C 
ATOM     23  H   UNL     1      18.403  -7.452  -5.259  0.00  0.00    +0.000 HD
ATOM     24  H   UNL     1      17.690  -5.982  -5.902  0.00  0.00    +0.000 HD
ATOM     25  H   UNL     1      16.660  -7.162  -5.057  0.00  0.00    +0.000 HD
ENDBRANCH  20  22
BRANCH  20  26
ATOM     26  O   UNL     1      19.042  -5.109  -3.918  0.00  0.00    +0.000 OA
ATOM     27  H   UNL     1      19.139  -4.937  -4.869  0.00  0.00    +0.000 HD
ENDBRANCH  20  26
ENDBRANCH  17  20
ENDBRANCH   1  17
TORSDOF 8
ENDMDL
MODEL 8
REMARK VINA RESULT:    -3.674     23.191     25.563
REMARK INTER + INTRA:          -5.348
REMARK INTER:                  -5.007
REMARK INTRA:                  -0.341
REMARK UNBOUND:                -0.278
REMARK  Name = 20083
REMARK  8 active torsions:
REMARK  status: ('A' for Active; 'I' for Inactive)
REMARK    1  A    between atoms: O_1  and  C_6
REMARK    2  A    between atoms: C_2  and  C_3
REMARK    3  A    between atoms: C_2  and  C_4
REMARK    4  A    between atoms: C_3  and  C_5
REMARK    5  A    between atoms: C_4  and  C_6
REMARK    6  A    between atoms: C_5  and  C_7
REMARK    7  A    between atoms: C_6  and  C_8
REMARK    8  A    between atoms: C_7  and  C_9
REMARK                            x       y       z     vdW  Elec       q    Type
REMARK                         _______ _______ _______ _____ _____    ______ ____
ROOT
ATOM      1  C   UNL     1      -6.408 -13.870   1.492  0.00  0.00    +0.000 C 
ATOM      2  H   UNL     1      -6.943 -13.737   0.544  0.00  0.00    +0.000 HD
ATOM      3  H   UNL     1      -5.590 -13.141   1.511  0.00  0.00    +0.000 HD
ENDROOT
BRANCH   1   4
ATOM      4  C   UNL     1      -5.806 -15.275   1.552  0.00  0.00    +0.000 C 
ATOM      5  H   UNL     1      -6.417 -15.959   0.949  0.00  0.00    +0.000 HD
ATOM      6  H   UNL     1      -5.851 -15.641   2.586  0.00  0.00    +0.000 HD
BRANCH   4   7
ATOM      7  C   UNL     1      -4.356 -15.338   1.065  0.00  0.00    +0.000 C 
ATOM      8  H   UNL     1      -4.109 -16.375   0.803  0.00  0.00    +0.000 HD
ATOM      9  H   UNL     1      -4.267 -14.750   0.143  0.00  0.00    +0.000 HD
BRANCH   7  10
ATOM     10  C   UNL     1      -3.347 -14.818   2.089  0.00  0.00    +0.000 C 
ATOM     11  H   UNL     1      -3.711 -13.880   2.526  0.00  0.00    +0.000 HD
ATOM     12  H   UNL     1      -3.245 -15.539   2.908  0.00  0.00    +0.000 HD
BRANCH  10  13
ATOM     13  C   UNL     1      -1.986 -14.576   1.454  0.00  0.00    +0.000 C 
ATOM     14  H   UNL     1      -1.904 -15.094   0.493  0.00  0.00    +0.000 HD
ATOM     15  H   UNL     1      -1.836 -13.506   1.277  0.00  0.00    +0.000 HD
ATOM     16  H   UNL     1      -1.181 -14.929   2.106  0.00  0.00    +0.000 HD
ENDBRANCH  10  13
ENDBRANCH   7  10
ENDBRANCH   4   7
ENDBRANCH   1   4
BRANCH   1  17
ATOM     17  C   UNL     1      -7.367 -13.627   2.665  0.00  0.00    +0.000 C 
ATOM     18  H   UNL     1      -8.076 -12.834   2.404  0.00  0.00    +0.000 HD
ATOM     19  H   UNL     1      -7.945 -14.545   2.834  0.00  0.00    +0.000 HD
BRANCH  17  20
ATOM     20  C   UNL     1      -6.623 -13.255   3.951  0.00  0.00    +0.000 C 
ATOM     21  H   UNL     1      -6.228 -14.154   4.439  0.00  0.00    +0.000 HD
BRANCH  20  22
ATOM     22  C   UNL     1      -5.472 -12.300   3.666  0.00  0.00    +0.000 C 
ATOM     23  H   UNL     1      -4.724 -12.357   4.463  0.00  0.00    +0.000 HD
ATOM     24  H   UNL     1      -5.821 -11.261   3.638  0.00  0.00    +0.000 HD
ATOM     25  H   UNL     1      -4.988 -12.533   2.713  0.00  0.00    +0.000 HD
ENDBRANCH  20  22
BRANCH  20  26
ATOM     26  O   UNL     1      -7.532 -12.626   4.851  0.00  0.00    +0.000 OA
ATOM     27  H   UNL     1      -8.425 -12.944   4.642  0.00  0.00    +0.000 HD
ENDBRANCH  20  26
ENDBRANCH  17  20
ENDBRANCH   1  17
TORSDOF 8
ENDMDL
MODEL 9
REMARK VINA RESULT:    -3.638     32.117     33.993
REMARK INTER + INTRA:          -5.299
REMARK INTER:                  -5.132
REMARK INTRA:                  -0.167
REMARK UNBOUND:                -0.278
REMARK  Name = 20083
REMARK  8 active torsions:
REMARK  status: ('A' for Active; 'I' for Inactive)
REMARK    1  A    between atoms: O_1  and  C_6
REMARK    2  A    between atoms: C_2  and  C_3
REMARK    3  A    between atoms: C_2  and  C_4
REMARK    4  A    between atoms: C_3  and  C_5
REMARK    5  A    between atoms: C_4  and  C_6
REMARK    6  A    between atoms: C_5  and  C_7
REMARK    7  A    between atoms: C_6  and  C_8
REMARK    8  A    between atoms: C_7  and  C_9
REMARK                            x       y       z     vdW  Elec       q    Type
REMARK                         _______ _______ _______ _____ _____    ______ ____
ROOT
ATOM      1  C   UNL     1     -16.100  -6.383  -3.420  0.00  0.00    +0.000 C 
ATOM      2  H   UNL     1     -16.788  -6.357  -4.274  0.00  0.00    +0.000 HD
ATOM      3  H   UNL     1     -15.649  -7.381  -3.394  0.00  0.00    +0.000 HD
ENDROOT
BRANCH   1   4
ATOM      4  C   UNL     1     -16.881  -6.169  -2.122  0.00  0.00    +0.000 C 
ATOM      5  H   UNL     1     -16.391  -5.391  -1.524  0.00  0.00    +0.000 HD
ATOM      6  H   UNL     1     -16.848  -7.092  -1.528  0.00  0.00    +0.000 HD
BRANCH   4   7
ATOM      7  C   UNL     1     -18.344  -5.778  -2.348  0.00  0.00    +0.000 C 
ATOM      8  H   UNL     1     -18.768  -5.409  -1.406  0.00  0.00    +0.000 HD
ATOM      9  H   UNL     1     -18.381  -4.942  -3.059  0.00  0.00    +0.000 HD
BRANCH   7  10
ATOM     10  C   UNL     1     -19.206  -6.924  -2.880  0.00  0.00    +0.000 C 
ATOM     11  H   UNL     1     -18.567  -7.686  -3.341  0.00  0.00    +0.000 HD
ATOM     12  H   UNL     1     -19.736  -7.404  -2.049  0.00  0.00    +0.000 HD
BRANCH  10  13
ATOM     13  C   UNL     1     -20.214  -6.430  -3.907  0.00  0.00    +0.000 C 
ATOM     14  H   UNL     1     -21.145  -6.119  -3.423  0.00  0.00    +0.000 HD
ATOM     15  H   UNL     1     -19.809  -5.571  -4.451  0.00  0.00    +0.000 HD
ATOM     16  H   UNL     1     -20.447  -7.214  -4.634  0.00  0.00    +0.000 HD
ENDBRANCH  10  13
ENDBRANCH   7  10
ENDBRANCH   4   7
ENDBRANCH   1   4
BRANCH   1  17
ATOM     17  C   UNL     1     -15.017  -5.311  -3.597  0.00  0.00    +0.000 C 
ATOM     18  H   UNL     1     -15.479  -4.364  -3.896  0.00  0.00    +0.000 HD
ATOM     19  H   UNL     1     -14.529  -5.149  -2.627  0.00  0.00    +0.000 HD
BRANCH  17  20
ATOM     20  C   UNL     1     -13.962  -5.721  -4.630  0.00  0.00    +0.000 C 
ATOM     21  H   UNL     1     -13.996  -5.051  -5.497  0.00  0.00    +0.000 HD
BRANCH  20  22
ATOM     22  C   UNL     1     -12.563  -5.689  -4.033  0.00  0.00    +0.000 C 
ATOM     23  H   UNL     1     -12.097  -4.713  -4.205  0.00  0.00    +0.000 HD
ATOM     24  H   UNL     1     -11.915  -6.433  -4.510  0.00  0.00    +0.000 HD
ATOM     25  H   UNL     1     -12.585  -5.882  -2.956  0.00  0.00    +0.000 HD
ENDBRANCH  20  22
BRANCH  20  26
ATOM     26  O   UNL     1     -14.240  -7.044  -5.082  0.00  0.00    +0.000 OA
ATOM     27  H   UNL     1     -14.326  -7.016  -6.049  0.00  0.00    +0.000 HD
ENDBRANCH  20  26
ENDBRANCH  17  20
ENDBRANCH   1  17
TORSDOF 8
ENDMDL
MODEL 10
REMARK VINA RESULT:    -3.610      2.115      4.196
REMARK INTER + INTRA:          -5.260
REMARK INTER:                  -4.981
REMARK INTRA:                  -0.278
REMARK UNBOUND:                -0.278
REMARK  Name = 20083
REMARK  8 active torsions:
REMARK  status: ('A' for Active; 'I' for Inactive)
REMARK    1  A    between atoms: O_1  and  C_6
REMARK    2  A    between atoms: C_2  and  C_3
REMARK    3  A    between atoms: C_2  and  C_4
REMARK    4  A    between atoms: C_3  and  C_5
REMARK    5  A    between atoms: C_4  and  C_6
REMARK    6  A    between atoms: C_5  and  C_7
REMARK    7  A    between atoms: C_6  and  C_8
REMARK    8  A    between atoms: C_7  and  C_9
REMARK                            x       y       z     vdW  Elec       q    Type
REMARK                         _______ _______ _______ _____ _____    ______ ____
ROOT
ATOM      1  C   UNL     1      18.515  -6.369  -3.318  0.00  0.00    +0.000 C 
ATOM      2  H   UNL     1      18.809  -5.833  -2.408  0.00  0.00    +0.000 HD
ATOM      3  H   UNL     1      18.644  -7.440  -3.122  0.00  0.00    +0.000 HD
ENDROOT
BRANCH   1   4
ATOM      4  C   UNL     1      19.439  -5.973  -4.471  0.00  0.00    +0.000 C 
ATOM      5  H   UNL     1      18.835  -5.677  -5.339  0.00  0.00    +0.000 HD
ATOM      6  H   UNL     1      20.025  -6.848  -4.779  0.00  0.00    +0.000 HD
BRANCH   4   7
ATOM      7  C   UNL     1      20.398  -4.832  -4.119  0.00  0.00    +0.000 C 
ATOM      8  H   UNL     1      21.195  -5.219  -3.472  0.00  0.00    +0.000 HD
ATOM      9  H   UNL     1      20.882  -4.480  -5.039  0.00  0.00    +0.000 HD
BRANCH   7  10
ATOM     10  C   UNL     1      19.713  -3.651  -3.432  0.00  0.00    +0.000 C 
ATOM     11  H   UNL     1      19.827  -2.748  -4.043  0.00  0.00    +0.000 HD
ATOM     12  H   UNL     1      18.638  -3.848  -3.341  0.00  0.00    +0.000 HD
BRANCH  10  13
ATOM     13  C   UNL     1      20.299  -3.395  -2.052  0.00  0.00    +0.000 C 
ATOM     14  H   UNL     1      20.904  -2.483  -2.046  0.00  0.00    +0.000 HD
ATOM     15  H   UNL     1      19.498  -3.278  -1.316  0.00  0.00    +0.000 HD
ATOM     16  H   UNL     1      20.932  -4.230  -1.734  0.00  0.00    +0.000 HD
ENDBRANCH  10  13
ENDBRANCH   7  10
ENDBRANCH   4   7
ENDBRANCH   1   4
BRANCH   1  17
ATOM     17  C   UNL     1      17.050  -6.059  -3.651  0.00  0.00    +0.000 C 
ATOM     18  H   UNL     1      16.984  -5.091  -4.160  0.00  0.00    +0.000 HD
ATOM     19  H   UNL     1      16.684  -6.825  -4.346  0.00  0.00    +0.000 HD
BRANCH  17  20
ATOM     20  C   UNL     1      16.165  -6.047  -2.400  0.00  0.00    +0.000 C 
ATOM     21  H   UNL     1      16.658  -6.578  -1.578  0.00  0.00    +0.000 HD
BRANCH  20  22
ATOM     22  C   UNL     1      15.856  -4.624  -1.957  0.00  0.00    +0.000 C 
ATOM     23  H   UNL     1      15.447  -4.622  -0.941  0.00  0.00    +0.000 HD
ATOM     24  H   UNL     1      15.095  -4.169  -2.601  0.00  0.00    +0.000 HD
ATOM     25  H   UNL     1      16.752  -3.998  -1.975  0.00  0.00    +0.000 HD
ENDBRANCH  20  22
BRANCH  20  26
ATOM     26  O   UNL     1      14.940  -6.717  -2.688  0.00  0.00    +0.000 OA
ATOM     27  H   UNL     1      15.120  -7.386  -3.368  0.00  0.00    +0.000 HD
ENDBRANCH  20  26
ENDBRANCH  17  20
ENDBRANCH   1  17
TORSDOF 8
ENDMDL
