MODEL 1
REMARK VINA RESULT:    -4.317      0.000      0.000
REMARK INTER + INTRA:          -5.265
REMARK INTER:                  -5.210
REMARK INTRA:                  -0.055
REMARK UNBOUND:                -0.066
REMARK  Name = 22386
REMARK  5 active torsions:
REMARK  status: ('A' for Active; 'I' for Inactive)
REMARK    1  A    between atoms: O_1  and  C_3
REMARK    2  A    between atoms: C_2  and  C_3
REMARK    3  A    between atoms: C_2  and  C_4
REMARK    4  A    between atoms: C_3  and  C_5
REMARK    5  A    between atoms: C_4  and  C_6
REMARK                            x       y       z     vdW  Elec       q    Type
REMARK                         _______ _______ _______ _____ _____    ______ ____
ROOT
ATOM      1  C   UNL     1       5.493  -7.229  -8.879  0.00  0.00    +0.000 C 
ATOM      2  H   UNL     1       5.630  -8.042  -9.603  0.00  0.00    +0.000 HD
ATOM      3  H   UNL     1       5.669  -7.647  -7.879  0.00  0.00    +0.000 HD
ENDROOT
BRANCH   1   4
ATOM      4  C   UNL     1       6.529  -6.140  -9.168  0.00  0.00    +0.000 C 
ATOM      5  H   UNL     1       6.028  -5.172  -9.278  0.00  0.00    +0.000 HD
ATOM      6  H   UNL     1       7.044  -6.348 -10.113  0.00  0.00    +0.000 HD
BRANCH   4   7
ATOM      7  C   UNL     1       7.560  -6.044  -8.054  0.00  0.00    +0.000 C 
ATOM      8  H   UNL     1       7.192  -5.399  -7.250  0.00  0.00    +0.000 HD
ATOM      9  H   UNL     1       8.499  -5.621  -8.424  0.00  0.00    +0.000 HD
ATOM     10  H   UNL     1       7.771  -7.031  -7.629  0.00  0.00    +0.000 HD
ENDBRANCH   4   7
ENDBRANCH   1   4
BRANCH   1  11
ATOM     11  C   UNL     1       4.058  -6.699  -8.966  0.00  0.00    +0.000 C 
ATOM     12  H   UNL     1       4.059  -5.690  -9.393  0.00  0.00    +0.000 HD
BRANCH  11  13
ATOM     13  C   UNL     1       3.392  -6.660  -7.597  0.00  0.00    +0.000 C 
ATOM     14  H   UNL     1       3.825  -5.872  -6.971  0.00  0.00    +0.000 HD
ATOM     15  H   UNL     1       2.315  -6.486  -7.684  0.00  0.00    +0.000 HD
ATOM     16  H   UNL     1       3.553  -7.606  -7.068  0.00  0.00    +0.000 HD
ENDBRANCH  11  13
BRANCH  11  17
ATOM     17  O   UNL     1       3.282  -7.527  -9.829  0.00  0.00    +0.000 OA
ATOM     18  H   UNL     1       2.449  -7.062 -10.017  0.00  0.00    +0.000 HD
ENDBRANCH  11  17
ENDBRANCH   1  11
TORSDOF 5
ENDMDL
MODEL 2
REMARK VINA RESULT:    -3.647      3.982      5.206
REMARK INTER + INTRA:          -4.459
REMARK INTER:                  -4.368
REMARK INTRA:                  -0.091
REMARK UNBOUND:                -0.066
REMARK  Name = 22386
REMARK  5 active torsions:
REMARK  status: ('A' for Active; 'I' for Inactive)
REMARK    1  A    between atoms: O_1  and  C_3
REMARK    2  A    between atoms: C_2  and  C_3
REMARK    3  A    between atoms: C_2  and  C_4
REMARK    4  A    between atoms: C_3  and  C_5
REMARK    5  A    between atoms: C_4  and  C_6
REMARK                            x       y       z     vdW  Elec       q    Type
REMARK                         _______ _______ _______ _____ _____    ______ ____
ROOT
ATOM      1  C   UNL     1       1.105  -4.506  -6.807  0.00  0.00    +0.000 C 
ATOM      2  H   UNL     1       1.883  -3.770  -6.570  0.00  0.00    +0.000 HD
ATOM      3  H   UNL     1       0.154  -3.964  -6.887  0.00  0.00    +0.000 HD
ENDROOT
BRANCH   1   4
ATOM      4  C   UNL     1       1.440  -5.155  -8.152  0.00  0.00    +0.000 C 
ATOM      5  H   UNL     1       1.888  -4.411  -8.821  0.00  0.00    +0.000 HD
ATOM      6  H   UNL     1       0.526  -5.518  -8.636  0.00  0.00    +0.000 HD
BRANCH   4   7
ATOM      7  C   UNL     1       2.404  -6.319  -7.984  0.00  0.00    +0.000 C 
ATOM      8  H   UNL     1       1.903  -7.263  -8.217  0.00  0.00    +0.000 HD
ATOM      9  H   UNL     1       2.775  -6.376  -6.956  0.00  0.00    +0.000 HD
ATOM     10  H   UNL     1       3.264  -6.215  -8.654  0.00  0.00    +0.000 HD
ENDBRANCH   4   7
ENDBRANCH   1   4
BRANCH   1  11
ATOM     11  C   UNL     1       1.011  -5.537  -5.677  0.00  0.00    +0.000 C 
ATOM     12  H   UNL     1       1.254  -6.534  -6.061  0.00  0.00    +0.000 HD
BRANCH  11  13
ATOM     13  C   UNL     1      -0.381  -5.566  -5.060  0.00  0.00    +0.000 C 
ATOM     14  H   UNL     1      -1.155  -5.533  -5.835  0.00  0.00    +0.000 HD
ATOM     15  H   UNL     1      -0.529  -6.466  -4.455  0.00  0.00    +0.000 HD
ATOM     16  H   UNL     1      -0.535  -4.687  -4.425  0.00  0.00    +0.000 HD
ENDBRANCH  11  13
BRANCH  11  17
ATOM     17  O   UNL     1       1.958  -5.231  -4.656  0.00  0.00    +0.000 OA
ATOM     18  H   UNL     1       2.534  -6.006  -4.542  0.00  0.00    +0.000 HD
ENDBRANCH  11  17
ENDBRANCH   1  11
TORSDOF 5
ENDMDL
MODEL 3
REMARK VINA RESULT:    -3.423     12.987     13.428
REMARK INTER + INTRA:          -4.189
REMARK INTER:                  -4.138
REMARK INTRA:                  -0.051
REMARK UNBOUND:                -0.066
REMARK  Name = 22386
REMARK  5 active torsions:
REMARK  status: ('A' for Active; 'I' for Inactive)
REMARK    1  A    between atoms: O_1  and  C_3
REMARK    2  A    between atoms: C_2  and  C_3
REMARK    3  A    between atoms: C_2  and  C_4
REMARK    4  A    between atoms: C_3  and  C_5
REMARK    5  A    between atoms: C_4  and  C_6
REMARK                            x       y       z     vdW  Elec       q    Type
REMARK                         _______ _______ _______ _____ _____    ______ ____
ROOT
ATOM      1  C   UNL     1      16.590  -6.018  -3.227  0.00  0.00    +0.000 C 
ATOM      2  H   UNL     1      15.706  -6.314  -3.805  0.00  0.00    +0.000 HD
ATOM      3  H   UNL     1      16.750  -6.785  -2.457  0.00  0.00    +0.000 HD
ENDROOT
BRANCH   1   4
ATOM      4  C   UNL     1      17.796  -5.977  -4.168  0.00  0.00    +0.000 C 
ATOM      5  H   UNL     1      18.691  -6.325  -3.639  0.00  0.00    +0.000 HD
ATOM      6  H   UNL     1      17.989  -4.948  -4.491  0.00  0.00    +0.000 HD
BRANCH   4   7
ATOM      7  C   UNL     1      17.574  -6.846  -5.396  0.00  0.00    +0.000 C 
ATOM      8  H   UNL     1      17.858  -6.303  -6.302  0.00  0.00    +0.000 HD
ATOM      9  H   UNL     1      16.522  -7.133  -5.488  0.00  0.00    +0.000 HD
ATOM     10  H   UNL     1      18.176  -7.759  -5.344  0.00  0.00    +0.000 HD
ENDBRANCH   4   7
ENDBRANCH   1   4
BRANCH   1  11
ATOM     11  C   UNL     1      16.336  -4.665  -2.555  0.00  0.00    +0.000 C 
ATOM     12  H   UNL     1      15.752  -4.021  -3.222  0.00  0.00    +0.000 HD
BRANCH  11  13
ATOM     13  C   UNL     1      17.640  -3.962  -2.200  0.00  0.00    +0.000 C 
ATOM     14  H   UNL     1      18.017  -4.300  -1.228  0.00  0.00    +0.000 HD
ATOM     15  H   UNL     1      18.409  -4.145  -2.957  0.00  0.00    +0.000 HD
ATOM     16  H   UNL     1      17.480  -2.882  -2.116  0.00  0.00    +0.000 HD
ENDBRANCH  11  13
BRANCH  11  17
ATOM     17  O   UNL     1      15.575  -4.846  -1.363  0.00  0.00    +0.000 OA
ATOM     18  H   UNL     1      14.794  -4.269  -1.417  0.00  0.00    +0.000 HD
ENDBRANCH  11  17
ENDBRANCH   1  11
TORSDOF 5
ENDMDL
MODEL 4
REMARK VINA RESULT:    -3.278     18.682     20.209
REMARK INTER + INTRA:          -4.015
REMARK INTER:                  -3.909
REMARK INTRA:                  -0.106
REMARK UNBOUND:                -0.066
REMARK  Name = 22386
REMARK  5 active torsions:
REMARK  status: ('A' for Active; 'I' for Inactive)
REMARK    1  A    between atoms: O_1  and  C_3
REMARK    2  A    between atoms: C_2  and  C_3
REMARK    3  A    between atoms: C_2  and  C_4
REMARK    4  A    between atoms: C_3  and  C_5
REMARK    5  A    between atoms: C_4  and  C_6
REMARK                            x       y       z     vdW  Elec       q    Type
REMARK                         _______ _______ _______ _____ _____    ______ ____
ROOT
ATOM      1  C   UNL     1      -8.182 -13.106   5.362  0.00  0.00    +0.000 C 
ATOM      2  H   UNL     1      -9.062 -13.515   4.850  0.00  0.00    +0.000 HD
ATOM      3  H   UNL     1      -8.450 -12.107   5.728  0.00  0.00    +0.000 HD
ENDROOT
BRANCH   1   4
ATOM      4  C   UNL     1      -7.843 -14.012   6.548  0.00  0.00    +0.000 C 
ATOM      5  H   UNL     1      -8.182 -13.546   7.480  0.00  0.00    +0.000 HD
ATOM      6  H   UNL     1      -6.757 -14.143   6.626  0.00  0.00    +0.000 HD
BRANCH   4   7
ATOM      7  C   UNL     1      -8.496 -15.379   6.408  0.00  0.00    +0.000 C 
ATOM      8  H   UNL     1      -8.362 -15.959   7.326  0.00  0.00    +0.000 HD
ATOM      9  H   UNL     1      -8.052 -15.943   5.582  0.00  0.00    +0.000 HD
ATOM     10  H   UNL     1      -9.570 -15.282   6.220  0.00  0.00    +0.000 HD
ENDBRANCH   4   7
ENDBRANCH   1   4
BRANCH   1  11
ATOM     11  C   UNL     1      -7.019 -12.991   4.372  0.00  0.00    +0.000 C 
ATOM     12  H   UNL     1      -6.844 -11.939   4.122  0.00  0.00    +0.000 HD
BRANCH  11  13
ATOM     13  C   UNL     1      -7.295 -13.768   3.091  0.00  0.00    +0.000 C 
ATOM     14  H   UNL     1      -7.194 -13.123   2.211  0.00  0.00    +0.000 HD
ATOM     15  H   UNL     1      -6.611 -14.616   2.985  0.00  0.00    +0.000 HD
ATOM     16  H   UNL     1      -8.323 -14.145   3.088  0.00  0.00    +0.000 HD
ENDBRANCH  11  13
BRANCH  11  17
ATOM     17  O   UNL     1      -5.822 -13.493   4.962  0.00  0.00    +0.000 OA
ATOM     18  H   UNL     1      -5.137 -13.517   4.273  0.00  0.00    +0.000 HD
ENDBRANCH  11  17
ENDBRANCH   1  11
TORSDOF 5
ENDMDL
MODEL 5
REMARK VINA RESULT:    -3.264     13.128     13.591
REMARK INTER + INTRA:          -3.998
REMARK INTER:                  -3.956
REMARK INTRA:                  -0.041
REMARK UNBOUND:                -0.066
REMARK  Name = 22386
REMARK  5 active torsions:
REMARK  status: ('A' for Active; 'I' for Inactive)
REMARK    1  A    between atoms: O_1  and  C_3
REMARK    2  A    between atoms: C_2  and  C_3
REMARK    3  A    between atoms: C_2  and  C_4
REMARK    4  A    between atoms: C_3  and  C_5
REMARK    5  A    between atoms: C_4  and  C_6
REMARK                            x       y       z     vdW  Elec       q    Type
REMARK                         _______ _______ _______ _____ _____    ______ ____
ROOT
ATOM      1  C   UNL     1      16.254  -6.072  -3.129  0.00  0.00    +0.000 C 
ATOM      2  H   UNL     1      16.281  -6.925  -2.440  0.00  0.00    +0.000 HD
ATOM      3  H   UNL     1      15.468  -6.272  -3.869  0.00  0.00    +0.000 HD
ENDROOT
BRANCH   1   4
ATOM      4  C   UNL     1      15.901  -4.813  -2.334  0.00  0.00    +0.000 C 
ATOM      5  H   UNL     1      14.985  -4.366  -2.735  0.00  0.00    +0.000 HD
ATOM      6  H   UNL     1      16.698  -4.066  -2.433  0.00  0.00    +0.000 HD
BRANCH   4   7
ATOM      7  C   UNL     1      15.699  -5.126  -0.859  0.00  0.00    +0.000 C 
ATOM      8  H   UNL     1      15.503  -6.193  -0.721  0.00  0.00    +0.000 HD
ATOM      9  H   UNL     1      14.850  -4.568  -0.453  0.00  0.00    +0.000 HD
ATOM     10  H   UNL     1      16.591  -4.866  -0.278  0.00  0.00    +0.000 HD
ENDBRANCH   4   7
ENDBRANCH   1   4
BRANCH   1  11
ATOM     11  C   UNL     1      17.605  -5.945  -3.841  0.00  0.00    +0.000 C 
ATOM     12  H   UNL     1      17.816  -4.891  -4.055  0.00  0.00    +0.000 HD
BRANCH  11  13
ATOM     13  C   UNL     1      17.627  -6.731  -5.145  0.00  0.00    +0.000 C 
ATOM     14  H   UNL     1      16.815  -7.467  -5.175  0.00  0.00    +0.000 HD
ATOM     15  H   UNL     1      17.532  -6.069  -6.011  0.00  0.00    +0.000 HD
ATOM     16  H   UNL     1      18.562  -7.294  -5.235  0.00  0.00    +0.000 HD
ENDBRANCH  11  13
BRANCH  11  17
ATOM     17  O   UNL     1      18.649  -6.426  -2.999  0.00  0.00    +0.000 OA
ATOM     18  H   UNL     1      18.482  -6.099  -2.099  0.00  0.00    +0.000 HD
ENDBRANCH  11  17
ENDBRANCH   1  11
TORSDOF 5
ENDMDL
MODEL 6
REMARK VINA RESULT:    -3.186     24.824     25.650
REMARK INTER + INTRA:          -3.903
REMARK INTER:                  -3.843
REMARK INTRA:                  -0.061
REMARK UNBOUND:                -0.066
REMARK  Name = 22386
REMARK  5 active torsions:
REMARK  status: ('A' for Active; 'I' for Inactive)
REMARK    1  A    between atoms: O_1  and  C_3
REMARK    2  A    between atoms: C_2  and  C_3
REMARK    3  A    between atoms: C_2  and  C_4
REMARK    4  A    between atoms: C_3  and  C_5
REMARK    5  A    between atoms: C_4  and  C_6
REMARK                            x       y       z     vdW  Elec       q    Type
REMARK                         _______ _______ _______ _____ _____    ______ ____
ROOT
ATOM      1  C   UNL     1      12.437  16.879 -11.765  0.00  0.00    +0.000 C 
ATOM      2  H   UNL     1      12.030  16.385 -10.874  0.00  0.00    +0.000 HD
ATOM      3  H   UNL     1      11.807  16.591 -12.617  0.00  0.00    +0.000 HD
ENDROOT
BRANCH   1   4
ATOM      4  C   UNL     1      12.362  18.393 -11.561  0.00  0.00    +0.000 C 
ATOM      5  H   UNL     1      13.018  18.898 -12.280  0.00  0.00    +0.000 HD
ATOM      6  H   UNL     1      12.716  18.659 -10.558  0.00  0.00    +0.000 HD
BRANCH   4   7
ATOM      7  C   UNL     1      10.942  18.908 -11.735  0.00  0.00    +0.000 C 
ATOM      8  H   UNL     1      10.601  19.400 -10.819  0.00  0.00    +0.000 HD
ATOM      9  H   UNL     1      10.252  18.089 -11.958  0.00  0.00    +0.000 HD
ATOM     10  H   UNL     1      10.887  19.636 -12.552  0.00  0.00    +0.000 HD
ENDBRANCH   4   7
ENDBRANCH   1   4
BRANCH   1  11
ATOM     11  C   UNL     1      13.872  16.399 -12.007  0.00  0.00    +0.000 C 
ATOM     12  H   UNL     1      14.308  16.037 -11.069  0.00  0.00    +0.000 HD
BRANCH  11  13
ATOM     13  C   UNL     1      14.748  17.513 -12.565  0.00  0.00    +0.000 C 
ATOM     14  H   UNL     1      14.409  17.819 -13.561  0.00  0.00    +0.000 HD
ATOM     15  H   UNL     1      14.744  18.389 -11.909  0.00  0.00    +0.000 HD
ATOM     16  H   UNL     1      15.781  17.165 -12.679  0.00  0.00    +0.000 HD
ENDBRANCH  11  13
BRANCH  11  17
ATOM     17  O   UNL     1      13.876  15.310 -12.928  0.00  0.00    +0.000 OA
ATOM     18  H   UNL     1      12.964  15.181 -13.239  0.00  0.00    +0.000 HD
ENDBRANCH  11  17
ENDBRANCH   1  11
TORSDOF 5
ENDMDL
MODEL 7
REMARK VINA RESULT:    -3.165     15.326     15.781
REMARK INTER + INTRA:          -3.878
REMARK INTER:                  -3.771
REMARK INTRA:                  -0.107
REMARK UNBOUND:                -0.066
REMARK  Name = 22386
REMARK  5 active torsions:
REMARK  status: ('A' for Active; 'I' for Inactive)
REMARK    1  A    between atoms: O_1  and  C_3
REMARK    2  A    between atoms: C_2  and  C_3
REMARK    3  A    between atoms: C_2  and  C_4
REMARK    4  A    between atoms: C_3  and  C_5
REMARK    5  A    between atoms: C_4  and  C_6
REMARK                            x       y       z     vdW  Elec       q    Type
REMARK                         _______ _______ _______ _____ _____    ______ ____
ROOT
ATOM      1  C   UNL     1       1.198   4.223 -20.463  0.00  0.00    +0.000 C 
ATOM      2  H   UNL     1       1.069   5.128 -19.856  0.00  0.00    +0.000 HD
ATOM      3  H   UNL     1       0.914   4.476 -21.492  0.00  0.00    +0.000 HD
ENDROOT
BRANCH   1   4
ATOM      4  C   UNL     1       2.672   3.814 -20.423  0.00  0.00    +0.000 C 
ATOM      5  H   UNL     1       3.169   4.300 -19.576  0.00  0.00    +0.000 HD
ATOM      6  H   UNL     1       3.182   4.148 -21.334  0.00  0.00    +0.000 HD
BRANCH   4   7
ATOM      7  C   UNL     1       2.827   2.307 -20.295  0.00  0.00    +0.000 C 
ATOM      8  H   UNL     1       1.849   1.818 -20.347  0.00  0.00    +0.000 HD
ATOM      9  H   UNL     1       3.290   2.040 -19.339  0.00  0.00    +0.000 HD
ATOM     10  H   UNL     1       3.450   1.907 -21.102  0.00  0.00    +0.000 HD
ENDBRANCH   4   7
ENDBRANCH   1   4
BRANCH   1  11
ATOM     11  C   UNL     1       0.277   3.117 -19.938  0.00  0.00    +0.000 C 
ATOM     12  H   UNL     1       0.843   2.186 -19.819  0.00  0.00    +0.000 HD
BRANCH  11  13
ATOM     13  C   UNL     1      -0.895   2.870 -20.878  0.00  0.00    +0.000 C 
ATOM     14  H   UNL     1      -0.807   1.895 -21.369  0.00  0.00    +0.000 HD
ATOM     15  H   UNL     1      -1.849   2.908 -20.342  0.00  0.00    +0.000 HD
ATOM     16  H   UNL     1      -0.911   3.622 -21.673  0.00  0.00    +0.000 HD
ENDBRANCH  11  13
BRANCH  11  17
ATOM     17  O   UNL     1      -0.232   3.472 -18.654  0.00  0.00    +0.000 OA
ATOM     18  H   UNL     1      -1.137   3.120 -18.585  0.00  0.00    +0.000 HD
ENDBRANCH  11  17
ENDBRANCH   1  11
TORSDOF 5
ENDMDL
MODEL 8
REMARK VINA RESULT:    -3.142     15.800     16.251
REMARK INTER + INTRA:          -3.851
REMARK INTER:                  -3.811
REMARK INTRA:                  -0.040
REMARK UNBOUND:                -0.066
REMARK  Name = 22386
REMARK  5 active torsions:
REMARK  status: ('A' for Active; 'I' for Inactive)
REMARK    1  A    between atoms: O_1  and  C_3
REMARK    2  A    between atoms: C_2  and  C_3
REMARK    3  A    between atoms: C_2  and  C_4
REMARK    4  A    between atoms: C_3  and  C_5
REMARK    5  A    between atoms: C_4  and  C_6
REMARK                            x       y       z     vdW  Elec       q    Type
REMARK                         _______ _______ _______ _____ _____    ______ ____
ROOT
ATOM      1  C   UNL     1       1.265   4.181 -20.177  0.00  0.00    +0.000 C 
ATOM      2  H   UNL     1       1.263   4.295 -21.268  0.00  0.00    +0.000 HD
ATOM      3  H   UNL     1       2.273   3.861 -19.883  0.00  0.00    +0.000 HD
ENDROOT
BRANCH   1   4
ATOM      4  C   UNL     1       0.954   5.539 -19.545  0.00  0.00    +0.000 C 
ATOM      5  H   UNL     1       0.503   5.394 -18.557  0.00  0.00    +0.000 HD
ATOM      6  H   UNL     1       0.225   6.084 -20.157  0.00  0.00    +0.000 HD
BRANCH   4   7
ATOM      7  C   UNL     1       2.208   6.387 -19.402  0.00  0.00    +0.000 C 
ATOM      8  H   UNL     1       3.098   5.789 -19.622  0.00  0.00    +0.000 HD
ATOM      9  H   UNL     1       2.304   6.776 -18.383  0.00  0.00    +0.000 HD
ATOM     10  H   UNL     1       2.189   7.235 -20.094  0.00  0.00    +0.000 HD
ENDBRANCH   4   7
ENDBRANCH   1   4
BRANCH   1  11
ATOM     11  C   UNL     1       0.250   3.108 -19.770  0.00  0.00    +0.000 C 
ATOM     12  H   UNL     1       0.757   2.146 -19.639  0.00  0.00    +0.000 HD
BRANCH  11  13
ATOM     13  C   UNL     1      -0.850   2.954 -20.812  0.00  0.00    +0.000 C 
ATOM     14  H   UNL     1      -1.542   3.804 -20.783  0.00  0.00    +0.000 HD
ATOM     15  H   UNL     1      -0.434   2.875 -21.821  0.00  0.00    +0.000 HD
ATOM     16  H   UNL     1      -1.446   2.058 -20.608  0.00  0.00    +0.000 HD
ENDBRANCH  11  13
BRANCH  11  17
ATOM     17  O   UNL     1      -0.348   3.449 -18.522  0.00  0.00    +0.000 OA
ATOM     18  H   UNL     1      -0.934   2.717 -18.262  0.00  0.00    +0.000 HD
ENDBRANCH  11  17
ENDBRANCH   1  11
TORSDOF 5
ENDMDL
MODEL 9
REMARK VINA RESULT:    -3.109      5.432      5.785
REMARK INTER + INTRA:          -3.811
REMARK INTER:                  -3.748
REMARK INTRA:                  -0.064
REMARK UNBOUND:                -0.066
REMARK  Name = 22386
REMARK  5 active torsions:
REMARK  status: ('A' for Active; 'I' for Inactive)
REMARK    1  A    between atoms: O_1  and  C_3
REMARK    2  A    between atoms: C_2  and  C_3
REMARK    3  A    between atoms: C_2  and  C_4
REMARK    4  A    between atoms: C_3  and  C_5
REMARK    5  A    between atoms: C_4  and  C_6
REMARK                            x       y       z     vdW  Elec       q    Type
REMARK                         _______ _______ _______ _____ _____    ______ ____
ROOT
ATOM      1  C   UNL     1       1.262  -4.154  -6.898  0.00  0.00    +0.000 C 
ATOM      2  H   UNL     1       2.358  -4.116  -6.897  0.00  0.00    +0.000 HD
ATOM      3  H   UNL     1       0.905  -3.344  -6.250  0.00  0.00    +0.000 HD
ENDROOT
BRANCH   1   4
ATOM      4  C   UNL     1       0.766  -3.923  -8.327  0.00  0.00    +0.000 C 
ATOM      5  H   UNL     1      -0.241  -4.340  -8.443  0.00  0.00    +0.000 HD
ATOM      6  H   UNL     1       1.416  -4.442  -9.042  0.00  0.00    +0.000 HD
BRANCH   4   7
ATOM      7  C   UNL     1       0.737  -2.443  -8.673  0.00  0.00    +0.000 C 
ATOM      8  H   UNL     1       0.958  -2.297  -9.735  0.00  0.00    +0.000 HD
ATOM      9  H   UNL     1       1.481  -1.889  -8.092  0.00  0.00    +0.000 HD
ATOM     10  H   UNL     1      -0.250  -2.012  -8.469  0.00  0.00    +0.000 HD
ENDBRANCH   4   7
ENDBRANCH   1   4
BRANCH   1  11
ATOM     11  C   UNL     1       0.795  -5.501  -6.335  0.00  0.00    +0.000 C 
ATOM     12  H   UNL     1       1.585  -6.250  -6.456  0.00  0.00    +0.000 HD
BRANCH  11  13
ATOM     13  C   UNL     1      -0.467  -5.992  -7.033  0.00  0.00    +0.000 C 
ATOM     14  H   UNL     1      -1.248  -6.238  -6.305  0.00  0.00    +0.000 HD
ATOM     15  H   UNL     1      -0.857  -5.239  -7.725  0.00  0.00    +0.000 HD
ATOM     16  H   UNL     1      -0.260  -6.910  -7.593  0.00  0.00    +0.000 HD
ENDBRANCH  11  13
BRANCH  11  17
ATOM     17  O   UNL     1       0.529  -5.383  -4.940  0.00  0.00    +0.000 OA
ATOM     18  H   UNL     1      -0.123  -4.671  -4.820  0.00  0.00    +0.000 HD
ENDBRANCH  11  17
ENDBRANCH   1  11
TORSDOF 5
ENDMDL
MODEL 10
REMARK VINA RESULT:    -3.099     15.683     16.222
REMARK INTER + INTRA:          -3.799
REMARK INTER:                  -3.734
REMARK INTRA:                  -0.066
REMARK UNBOUND:                -0.066
REMARK  Name = 22386
REMARK  5 active torsions:
REMARK  status: ('A' for Active; 'I' for Inactive)
REMARK    1  A    between atoms: O_1  and  C_3
REMARK    2  A    between atoms: C_2  and  C_3
REMARK    3  A    between atoms: C_2  and  C_4
REMARK    4  A    between atoms: C_3  and  C_5
REMARK    5  A    between atoms: C_4  and  C_6
REMARK                            x       y       z     vdW  Elec       q    Type
REMARK                         _______ _______ _______ _____ _____    ______ ____
ROOT
ATOM      1  C   UNL     1       1.407   2.431 -20.491  0.00  0.00    +0.000 C 
ATOM      2  H   UNL     1       2.394   2.907 -20.453  0.00  0.00    +0.000 HD
ATOM      3  H   UNL     1       1.507   1.431 -20.050  0.00  0.00    +0.000 HD
ENDROOT
BRANCH   1   4
ATOM      4  C   UNL     1       0.431   3.264 -19.657  0.00  0.00    +0.000 C 
ATOM      5  H   UNL     1       0.440   2.916 -18.618  0.00  0.00    +0.000 HD
ATOM      6  H   UNL     1      -0.591   3.138 -20.032  0.00  0.00    +0.000 HD
BRANCH   4   7
ATOM      7  C   UNL     1       0.791   4.741 -19.691  0.00  0.00    +0.000 C 
ATOM      8  H   UNL     1       1.870   4.866 -19.822  0.00  0.00    +0.000 HD
ATOM      9  H   UNL     1       0.502   5.237 -18.759  0.00  0.00    +0.000 HD
ATOM     10  H   UNL     1       0.286   5.248 -20.521  0.00  0.00    +0.000 HD
ENDBRANCH   4   7
ENDBRANCH   1   4
BRANCH   1  11
ATOM     11  C   UNL     1       0.955   2.302 -21.950  0.00  0.00    +0.000 C 
ATOM     12  H   UNL     1       0.929   3.291 -22.421  0.00  0.00    +0.000 HD
BRANCH  11  13
ATOM     13  C   UNL     1      -0.425   1.665 -22.054  0.00  0.00    +0.000 C 
ATOM     14  H   UNL     1      -0.534   1.117 -22.997  0.00  0.00    +0.000 HD
ATOM     15  H   UNL     1      -0.608   0.974 -21.225  0.00  0.00    +0.000 HD
ATOM     16  H   UNL     1      -1.202   2.436 -22.047  0.00  0.00    +0.000 HD
ENDBRANCH  11  13
BRANCH  11  17
ATOM     17  O   UNL     1       1.883   1.504 -22.681  0.00  0.00    +0.000 OA
ATOM     18  H   UNL     1       2.711   2.008 -22.760  0.00  0.00    +0.000 HD
ENDBRANCH  11  17
ENDBRANCH   1  11
TORSDOF 5
ENDMDL
