MODEL 1
REMARK VINA RESULT:    -3.112      0.000      0.000
REMARK INTER + INTRA:          -3.567
REMARK INTER:                  -3.567
REMARK INTRA:                   0.000
REMARK UNBOUND:                 0.000
REMARK  Name = 179
REMARK  4 active torsions:
REMARK  status: ('A' for Active; 'I' for Inactive)
REMARK    1  A    between atoms: O_1  and  C_3
REMARK    2  A    between atoms: C_3  and  C_4
REMARK    3  A    between atoms: C_3  and  C_5
REMARK    4  A    between atoms: C_4  and  C_6
REMARK                            x       y       z     vdW  Elec       q    Type
REMARK                         _______ _______ _______ _____ _____    ______ ____
ROOT
ATOM      1  C   UNL     1       1.709   2.559 -21.766  0.00  0.00    +0.000 C 
ATOM      2  H   UNL     1       1.736   3.494 -22.335  0.00  0.00    +0.000 HD
ENDROOT
BRANCH   1   3
ATOM      3  C   UNL     1       2.840   2.515 -20.753  0.00  0.00    +0.000 C 
ATOM      4  H   UNL     1       3.084   1.481 -20.485  0.00  0.00    +0.000 HD
ATOM      5  H   UNL     1       2.584   3.053 -19.836  0.00  0.00    +0.000 HD
ATOM      6  H   UNL     1       3.749   2.957 -21.172  0.00  0.00    +0.000 HD
ENDBRANCH   1   3
BRANCH   1   7
ATOM      7  O   UNL     1       1.885   1.482 -22.672  0.00  0.00    +0.000 OA
ATOM      8  H   UNL     1       1.425   1.716 -23.496  0.00  0.00    +0.000 HD
ENDBRANCH   1   7
BRANCH   1  10
ATOM      9  O   UNL     1      -0.548   1.731 -21.561  0.00  0.00    +0.000 OA
ATOM     10  C   UNL     1       0.351   2.427 -21.091  0.00  0.00    +0.000 C 
BRANCH  10  11
ATOM     11  C   UNL     1       0.146   3.187 -19.804  0.00  0.00    +0.000 C 
ATOM     12  H   UNL     1      -0.920   3.351 -19.637  0.00  0.00    +0.000 HD
ATOM     13  H   UNL     1       0.652   4.154 -19.867  0.00  0.00    +0.000 HD
ATOM     14  H   UNL     1       0.578   2.625 -18.971  0.00  0.00    +0.000 HD
ENDBRANCH  10  11
ENDBRANCH   1  10
TORSDOF 4
ENDMDL
MODEL 2
REMARK VINA RESULT:    -3.078     21.247     22.017
REMARK INTER + INTRA:          -3.528
REMARK INTER:                  -3.528
REMARK INTRA:                   0.000
REMARK UNBOUND:                 0.000
REMARK  Name = 179
REMARK  4 active torsions:
REMARK  status: ('A' for Active; 'I' for Inactive)
REMARK    1  A    between atoms: O_1  and  C_3
REMARK    2  A    between atoms: C_3  and  C_4
REMARK    3  A    between atoms: C_3  and  C_5
REMARK    4  A    between atoms: C_4  and  C_6
REMARK                            x       y       z     vdW  Elec       q    Type
REMARK                         _______ _______ _______ _____ _____    ______ ____
ROOT
ATOM      1  C   UNL     1      13.705  16.404 -11.575  0.00  0.00    +0.000 C 
ATOM      2  H   UNL     1      13.713  15.899 -10.603  0.00  0.00    +0.000 HD
ENDROOT
BRANCH   1   3
ATOM      3  C   UNL     1      12.444  17.234 -11.739  0.00  0.00    +0.000 C 
ATOM      4  H   UNL     1      12.673  18.208 -12.185  0.00  0.00    +0.000 HD
ATOM      5  H   UNL     1      11.946  17.407 -10.781  0.00  0.00    +0.000 HD
ATOM      6  H   UNL     1      11.739  16.734 -12.411  0.00  0.00    +0.000 HD
ENDBRANCH   1   3
BRANCH   1   7
ATOM      7  O   UNL     1      13.717  15.413 -12.590  0.00  0.00    +0.000 OA
ATOM      8  H   UNL     1      13.338  14.602 -12.209  0.00  0.00    +0.000 HD
ENDBRANCH   1   7
BRANCH   1  10
ATOM      9  O   UNL     1      15.474  17.509 -12.788  0.00  0.00    +0.000 OA
ATOM     10  C   UNL     1      14.957  17.261 -11.700  0.00  0.00    +0.000 C 
BRANCH  10  11
ATOM     11  C   UNL     1      15.546  17.808 -10.424  0.00  0.00    +0.000 C 
ATOM     12  H   UNL     1      16.618  17.606 -10.394  0.00  0.00    +0.000 HD
ATOM     13  H   UNL     1      15.068  17.327  -9.565  0.00  0.00    +0.000 HD
ATOM     14  H   UNL     1      15.360  18.884 -10.363  0.00  0.00    +0.000 HD
ENDBRANCH  10  11
ENDBRANCH   1  10
TORSDOF 4
ENDMDL
MODEL 3
REMARK VINA RESULT:    -3.041      1.676      2.972
REMARK INTER + INTRA:          -3.485
REMARK INTER:                  -3.485
REMARK INTRA:                   0.000
REMARK UNBOUND:                 0.000
REMARK  Name = 179
REMARK  4 active torsions:
REMARK  status: ('A' for Active; 'I' for Inactive)
REMARK    1  A    between atoms: O_1  and  C_3
REMARK    2  A    between atoms: C_3  and  C_4
REMARK    3  A    between atoms: C_3  and  C_5
REMARK    4  A    between atoms: C_4  and  C_6
REMARK                            x       y       z     vdW  Elec       q    Type
REMARK                         _______ _______ _______ _____ _____    ______ ____
ROOT
ATOM      1  C   UNL     1      -0.573   2.422 -21.068  0.00  0.00    +0.000 C 
ATOM      2  H   UNL     1      -0.602   1.395 -20.687  0.00  0.00    +0.000 HD
ENDROOT
BRANCH   1   3
ATOM      3  C   UNL     1       0.323   3.290 -20.204  0.00  0.00    +0.000 C 
ATOM      4  H   UNL     1      -0.260   3.810 -19.436  0.00  0.00    +0.000 HD
ATOM      5  H   UNL     1       0.853   4.041 -20.796  0.00  0.00    +0.000 HD
ATOM      6  H   UNL     1       1.063   2.677 -19.679  0.00  0.00    +0.000 HD
ENDBRANCH   1   3
BRANCH   1   7
ATOM      7  O   UNL     1      -1.888   2.953 -21.015  0.00  0.00    +0.000 OA
ATOM      8  H   UNL     1      -2.102   3.292 -21.900  0.00  0.00    +0.000 HD
ENDBRANCH   1   7
BRANCH   1  10
ATOM      9  O   UNL     1       0.890   1.765 -22.872  0.00  0.00    +0.000 OA
ATOM     10  C   UNL     1      -0.102   2.401 -22.515  0.00  0.00    +0.000 C 
BRANCH  10  11
ATOM     11  C   UNL     1      -0.908   3.195 -23.513  0.00  0.00    +0.000 C 
ATOM     12  H   UNL     1      -1.123   4.186 -23.111  0.00  0.00    +0.000 HD
ATOM     13  H   UNL     1      -1.851   2.678 -23.714  0.00  0.00    +0.000 HD
ATOM     14  H   UNL     1      -0.355   3.277 -24.452  0.00  0.00    +0.000 HD
ENDBRANCH  10  11
ENDBRANCH   1  10
TORSDOF 4
ENDMDL
MODEL 4
REMARK VINA RESULT:    -3.040      2.019      2.899
REMARK INTER + INTRA:          -3.485
REMARK INTER:                  -3.485
REMARK INTRA:                   0.000
REMARK UNBOUND:                 0.000
REMARK  Name = 179
REMARK  4 active torsions:
REMARK  status: ('A' for Active; 'I' for Inactive)
REMARK    1  A    between atoms: O_1  and  C_3
REMARK    2  A    between atoms: C_3  and  C_4
REMARK    3  A    between atoms: C_3  and  C_5
REMARK    4  A    between atoms: C_4  and  C_6
REMARK                            x       y       z     vdW  Elec       q    Type
REMARK                         _______ _______ _______ _____ _____    ______ ____
ROOT
ATOM      1  C   UNL     1       0.396   3.592 -19.931  0.00  0.00    +0.000 C 
ATOM      2  H   UNL     1       1.279   2.944 -19.893  0.00  0.00    +0.000 HD
ENDROOT
BRANCH   1   3
ATOM      3  C   UNL     1       0.801   5.054 -19.866  0.00  0.00    +0.000 C 
ATOM      4  H   UNL     1       0.876   5.483 -20.871  0.00  0.00    +0.000 HD
ATOM      5  H   UNL     1       1.765   5.186 -19.366  0.00  0.00    +0.000 HD
ATOM      6  H   UNL     1       0.049   5.638 -19.326  0.00  0.00    +0.000 HD
ENDBRANCH   1   3
BRANCH   1   7
ATOM      7  O   UNL     1      -0.413   3.306 -18.801  0.00  0.00    +0.000 OA
ATOM      8  H   UNL     1      -0.417   4.099 -18.238  0.00  0.00    +0.000 HD
ENDBRANCH   1   7
BRANCH   1  10
ATOM      9  O   UNL     1      -0.858   2.171 -21.425  0.00  0.00    +0.000 OA
ATOM     10  C   UNL     1      -0.390   3.287 -21.198  0.00  0.00    +0.000 C 
BRANCH  10  11
ATOM     11  C   UNL     1      -0.582   4.417 -22.177  0.00  0.00    +0.000 C 
ATOM     12  H   UNL     1      -0.552   5.373 -21.651  0.00  0.00    +0.000 HD
ATOM     13  H   UNL     1      -1.552   4.311 -22.671  0.00  0.00    +0.000 HD
ATOM     14  H   UNL     1       0.199   4.380 -22.942  0.00  0.00    +0.000 HD
ENDBRANCH  10  11
ENDBRANCH   1  10
TORSDOF 4
ENDMDL
MODEL 5
REMARK VINA RESULT:    -3.031     25.282     25.542
REMARK INTER + INTRA:          -3.474
REMARK INTER:                  -3.474
REMARK INTRA:                   0.000
REMARK UNBOUND:                 0.000
REMARK  Name = 179
REMARK  4 active torsions:
REMARK  status: ('A' for Active; 'I' for Inactive)
REMARK    1  A    between atoms: O_1  and  C_3
REMARK    2  A    between atoms: C_3  and  C_4
REMARK    3  A    between atoms: C_3  and  C_5
REMARK    4  A    between atoms: C_4  and  C_6
REMARK                            x       y       z     vdW  Elec       q    Type
REMARK                         _______ _______ _______ _____ _____    ______ ____
ROOT
ATOM      1  C   UNL     1      15.728  -5.063  -2.496  0.00  0.00    +0.000 C 
ATOM      2  H   UNL     1      15.061  -4.447  -3.109  0.00  0.00    +0.000 HD
ENDROOT
BRANCH   1   3
ATOM      3  C   UNL     1      15.238  -6.499  -2.445  0.00  0.00    +0.000 C 
ATOM      4  H   UNL     1      14.143  -6.537  -2.431  0.00  0.00    +0.000 HD
ATOM      5  H   UNL     1      15.608  -7.022  -1.559  0.00  0.00    +0.000 HD
ATOM      6  H   UNL     1      15.564  -7.049  -3.333  0.00  0.00    +0.000 HD
ENDBRANCH   1   3
BRANCH   1   7
ATOM      7  O   UNL     1      15.721  -4.546  -1.175  0.00  0.00    +0.000 OA
ATOM      8  H   UNL     1      15.905  -3.593  -1.234  0.00  0.00    +0.000 HD
ENDBRANCH   1   7
BRANCH   1  10
ATOM      9  O   UNL     1      17.907  -4.060  -2.762  0.00  0.00    +0.000 OA
ATOM     10  C   UNL     1      17.140  -4.975  -3.059  0.00  0.00    +0.000 C 
BRANCH  10  11
ATOM     11  C   UNL     1      17.573  -6.070  -4.002  0.00  0.00    +0.000 C 
ATOM     12  H   UNL     1      17.560  -7.031  -3.485  0.00  0.00    +0.000 HD
ATOM     13  H   UNL     1      18.588  -5.867  -4.355  0.00  0.00    +0.000 HD
ATOM     14  H   UNL     1      16.907  -6.095  -4.868  0.00  0.00    +0.000 HD
ENDBRANCH  10  11
ENDBRANCH   1  10
TORSDOF 4
ENDMDL
MODEL 6
REMARK VINA RESULT:    -3.016     37.523     38.573
REMARK INTER + INTRA:          -3.457
REMARK INTER:                  -3.457
REMARK INTRA:                   0.000
REMARK UNBOUND:                 0.000
REMARK  Name = 179
REMARK  4 active torsions:
REMARK  status: ('A' for Active; 'I' for Inactive)
REMARK    1  A    between atoms: O_1  and  C_3
REMARK    2  A    between atoms: C_3  and  C_4
REMARK    3  A    between atoms: C_3  and  C_5
REMARK    4  A    between atoms: C_4  and  C_6
REMARK                            x       y       z     vdW  Elec       q    Type
REMARK                         _______ _______ _______ _____ _____    ______ ____
ROOT
ATOM      1  C   UNL     1     -16.277   0.562  13.581  0.00  0.00    +0.000 C 
ATOM      2  H   UNL     1     -17.291   0.596  13.168  0.00  0.00    +0.000 HD
ENDROOT
BRANCH   1   3
ATOM      3  C   UNL     1     -16.316   0.345  15.083  0.00  0.00    +0.000 C 
ATOM      4  H   UNL     1     -16.920  -0.534  15.335  0.00  0.00    +0.000 HD
ATOM      5  H   UNL     1     -16.736   1.208  15.607  0.00  0.00    +0.000 HD
ATOM      6  H   UNL     1     -15.309   0.161  15.472  0.00  0.00    +0.000 HD
ENDBRANCH   1   3
BRANCH   1   7
ATOM      7  O   UNL     1     -15.655   1.813  13.331  0.00  0.00    +0.000 OA
ATOM      8  H   UNL     1     -14.956   1.929  13.997  0.00  0.00    +0.000 HD
ENDBRANCH   1   7
BRANCH   1  10
ATOM      9  O   UNL     1     -16.024  -1.573  12.485  0.00  0.00    +0.000 OA
ATOM     10  C   UNL     1     -15.491  -0.536  12.879  0.00  0.00    +0.000 C 
BRANCH  10  11
ATOM     11  C   UNL     1     -14.015  -0.302  12.674  0.00  0.00    +0.000 C 
ATOM     12  H   UNL     1     -13.751  -0.492  11.632  0.00  0.00    +0.000 HD
ATOM     13  H   UNL     1     -13.446  -0.979  13.316  0.00  0.00    +0.000 HD
ATOM     14  H   UNL     1     -13.763   0.726  12.948  0.00  0.00    +0.000 HD
ENDBRANCH  10  11
ENDBRANCH   1  10
TORSDOF 4
ENDMDL
MODEL 7
REMARK VINA RESULT:    -3.009     15.793     16.123
REMARK INTER + INTRA:          -3.449
REMARK INTER:                  -3.449
REMARK INTRA:                   0.000
REMARK UNBOUND:                 0.000
REMARK  Name = 179
REMARK  4 active torsions:
REMARK  status: ('A' for Active; 'I' for Inactive)
REMARK    1  A    between atoms: O_1  and  C_3
REMARK    2  A    between atoms: C_3  and  C_4
REMARK    3  A    between atoms: C_3  and  C_5
REMARK    4  A    between atoms: C_4  and  C_6
REMARK                            x       y       z     vdW  Elec       q    Type
REMARK                         _______ _______ _______ _____ _____    ______ ____
ROOT
ATOM      1  C   UNL     1      -6.383  -8.247 -11.991  0.00  0.00    +0.000 C 
ATOM      2  H   UNL     1      -6.403  -8.546 -13.044  0.00  0.00    +0.000 HD
ENDROOT
BRANCH   1   3
ATOM      3  C   UNL     1      -5.101  -7.500 -11.669  0.00  0.00    +0.000 C 
ATOM      4  H   UNL     1      -4.573  -7.219 -12.587  0.00  0.00    +0.000 HD
ATOM      5  H   UNL     1      -4.424  -8.101 -11.057  0.00  0.00    +0.000 HD
ATOM      6  H   UNL     1      -5.321  -6.571 -11.132  0.00  0.00    +0.000 HD
ENDBRANCH   1   3
BRANCH   1   7
ATOM      7  O   UNL     1      -6.422  -9.421 -11.195  0.00  0.00    +0.000 OA
ATOM      8  H   UNL     1      -5.506  -9.730 -11.087  0.00  0.00    +0.000 HD
ENDBRANCH   1   7
BRANCH   1  10
ATOM      9  O   UNL     1      -8.597  -7.859 -11.113  0.00  0.00    +0.000 OA
ATOM     10  C   UNL     1      -7.612  -7.401 -11.691  0.00  0.00    +0.000 C 
BRANCH  10  11
ATOM     11  C   UNL     1      -7.578  -5.958 -12.130  0.00  0.00    +0.000 C 
ATOM     12  H   UNL     1      -6.653  -5.759 -12.675  0.00  0.00    +0.000 HD
ATOM     13  H   UNL     1      -7.623  -5.308 -11.251  0.00  0.00    +0.000 HD
ATOM     14  H   UNL     1      -8.444  -5.744 -12.761  0.00  0.00    +0.000 HD
ENDBRANCH  10  11
ENDBRANCH   1  10
TORSDOF 4
ENDMDL
MODEL 8
REMARK VINA RESULT:    -3.008      2.454      3.095
REMARK INTER + INTRA:          -3.448
REMARK INTER:                  -3.448
REMARK INTRA:                   0.000
REMARK UNBOUND:                 0.000
REMARK  Name = 179
REMARK  4 active torsions:
REMARK  status: ('A' for Active; 'I' for Inactive)
REMARK    1  A    between atoms: O_1  and  C_3
REMARK    2  A    between atoms: C_3  and  C_4
REMARK    3  A    between atoms: C_3  and  C_5
REMARK    4  A    between atoms: C_4  and  C_6
REMARK                            x       y       z     vdW  Elec       q    Type
REMARK                         _______ _______ _______ _____ _____    ______ ____
ROOT
ATOM      1  C   UNL     1       0.259   3.359 -20.060  0.00  0.00    +0.000 C 
ATOM      2  H   UNL     1      -0.478   2.908 -20.733  0.00  0.00    +0.000 HD
ENDROOT
BRANCH   1   3
ATOM      3  C   UNL     1       1.557   2.571 -20.079  0.00  0.00    +0.000 C 
ATOM      4  H   UNL     1       1.616   1.939 -20.972  0.00  0.00    +0.000 HD
ATOM      5  H   UNL     1       1.654   1.928 -19.200  0.00  0.00    +0.000 HD
ATOM      6  H   UNL     1       2.418   3.247 -20.111  0.00  0.00    +0.000 HD
ENDBRANCH   1   3
BRANCH   1   7
ATOM      7  O   UNL     1      -0.262   3.320 -18.741  0.00  0.00    +0.000 OA
ATOM      8  H   UNL     1      -1.132   2.888 -18.784  0.00  0.00    +0.000 HD
ENDBRANCH   1   7
BRANCH   1  10
ATOM      9  O   UNL     1       0.324   5.195 -21.624  0.00  0.00    +0.000 OA
ATOM     10  C   UNL     1       0.481   4.809 -20.466  0.00  0.00    +0.000 C 
BRANCH  10  11
ATOM     11  C   UNL     1       0.900   5.771 -19.383  0.00  0.00    +0.000 C 
ATOM     12  H   UNL     1       0.199   5.718 -18.548  0.00  0.00    +0.000 HD
ATOM     13  H   UNL     1       0.906   6.789 -19.781  0.00  0.00    +0.000 HD
ATOM     14  H   UNL     1       1.911   5.528 -19.045  0.00  0.00    +0.000 HD
ENDBRANCH  10  11
ENDBRANCH   1  10
TORSDOF 4
ENDMDL
MODEL 9
REMARK VINA RESULT:    -3.000      1.388      2.909
REMARK INTER + INTRA:          -3.439
REMARK INTER:                  -3.439
REMARK INTRA:                   0.000
REMARK UNBOUND:                 0.000
REMARK  Name = 179
REMARK  4 active torsions:
REMARK  status: ('A' for Active; 'I' for Inactive)
REMARK    1  A    between atoms: O_1  and  C_3
REMARK    2  A    between atoms: C_3  and  C_4
REMARK    3  A    between atoms: C_3  and  C_5
REMARK    4  A    between atoms: C_4  and  C_6
REMARK                            x       y       z     vdW  Elec       q    Type
REMARK                         _______ _______ _______ _____ _____    ______ ____
ROOT
ATOM      1  C   UNL     1      -0.352   2.999 -21.173  0.00  0.00    +0.000 C 
ATOM      2  H   UNL     1      -0.376   4.040 -21.513  0.00  0.00    +0.000 HD
ENDROOT
BRANCH   1   3
ATOM      3  C   UNL     1      -1.412   2.178 -21.886  0.00  0.00    +0.000 C 
ATOM      4  H   UNL     1      -0.962   1.318 -22.396  0.00  0.00    +0.000 HD
ATOM      5  H   UNL     1      -1.951   2.770 -22.630  0.00  0.00    +0.000 HD
ATOM      6  H   UNL     1      -2.136   1.778 -21.170  0.00  0.00    +0.000 HD
ENDBRANCH   1   3
BRANCH   1   7
ATOM      7  O   UNL     1      -0.639   2.980 -19.784  0.00  0.00    +0.000 OA
ATOM      8  H   UNL     1      -0.702   3.903 -19.486  0.00  0.00    +0.000 HD
ENDBRANCH   1   7
BRANCH   1  10
ATOM      9  O   UNL     1       1.413   2.039 -22.509  0.00  0.00    +0.000 OA
ATOM     10  C   UNL     1       1.042   2.433 -21.404  0.00  0.00    +0.000 C 
BRANCH  10  11
ATOM     11  C   UNL     1       1.966   2.377 -20.214  0.00  0.00    +0.000 C 
ATOM     12  H   UNL     1       2.116   1.339 -19.910  0.00  0.00    +0.000 HD
ATOM     13  H   UNL     1       1.526   2.934 -19.382  0.00  0.00    +0.000 HD
ATOM     14  H   UNL     1       2.924   2.839 -20.469  0.00  0.00    +0.000 HD
ENDBRANCH  10  11
ENDBRANCH   1  10
TORSDOF 4
ENDMDL
MODEL 10
REMARK VINA RESULT:    -2.906      1.404      2.275
REMARK INTER + INTRA:          -3.331
REMARK INTER:                  -3.331
REMARK INTRA:                   0.000
REMARK UNBOUND:                 0.000
REMARK  Name = 179
REMARK  4 active torsions:
REMARK  status: ('A' for Active; 'I' for Inactive)
REMARK    1  A    between atoms: O_1  and  C_3
REMARK    2  A    between atoms: C_3  and  C_4
REMARK    3  A    between atoms: C_3  and  C_5
REMARK    4  A    between atoms: C_4  and  C_6
REMARK                            x       y       z     vdW  Elec       q    Type
REMARK                         _______ _______ _______ _____ _____    ______ ____
ROOT
ATOM      1  C   UNL     1       1.539   2.756 -20.644  0.00  0.00    +0.000 C 
ATOM      2  H   UNL     1       2.156   3.614 -20.933  0.00  0.00    +0.000 HD
ENDROOT
BRANCH   1   3
ATOM      3  C   UNL     1       0.429   3.187 -19.702  0.00  0.00    +0.000 C 
ATOM      4  H   UNL     1      -0.032   2.318 -19.219  0.00  0.00    +0.000 HD
ATOM      5  H   UNL     1      -0.355   3.741 -20.225  0.00  0.00    +0.000 HD
ATOM      6  H   UNL     1       0.826   3.821 -18.902  0.00  0.00    +0.000 HD
ENDBRANCH   1   3
BRANCH   1   7
ATOM      7  O   UNL     1       2.364   1.827 -19.960  0.00  0.00    +0.000 OA
ATOM      8  H   UNL     1       1.805   1.072 -19.707  0.00  0.00    +0.000 HD
ENDBRANCH   1   7
BRANCH   1  10
ATOM      9  O   UNL     1       1.701   1.789 -22.849  0.00  0.00    +0.000 OA
ATOM     10  C   UNL     1       0.982   2.101 -21.899  0.00  0.00    +0.000 C 
BRANCH  10  11
ATOM     11  C   UNL     1      -0.502   1.837 -21.937  0.00  0.00    +0.000 C 
ATOM     12  H   UNL     1      -0.810   1.593 -22.955  0.00  0.00    +0.000 HD
ATOM     13  H   UNL     1      -1.040   2.729 -21.604  0.00  0.00    +0.000 HD
ATOM     14  H   UNL     1      -0.748   1.015 -21.259  0.00  0.00    +0.000 HD
ENDBRANCH  10  11
ENDBRANCH   1  10
TORSDOF 4
ENDMDL
