MODEL 1
REMARK VINA RESULT:    -3.559      0.000      0.000
REMARK INTER + INTRA:          -4.118
REMARK INTER:                  -4.095
REMARK INTRA:                  -0.023
REMARK UNBOUND:                -0.039
REMARK  Name = 11173
REMARK  4 active torsions:
REMARK  status: ('A' for Active; 'I' for Inactive)
REMARK    1  A    between atoms: O_1  and  C_6
REMARK    2  A    between atoms: C_2  and  C_4
REMARK    3  A    between atoms: C_2  and  C_5
REMARK    4  A    between atoms: C_3  and  C_6
REMARK                            x       y       z     vdW  Elec       q    Type
REMARK                         _______ _______ _______ _____ _____    ______ ____
ROOT
ATOM      1  C   UNL     1      18.223  -6.251  -4.157  0.00  0.00    +0.000 C 
ATOM      2  C   UNL     1      17.599  -5.887  -3.020  0.00  0.00    +0.000 C 
ATOM      3  H   UNL     1      18.208  -5.486  -2.211  0.00  0.00    +0.000 HD
ENDROOT
BRANCH   1   4
ATOM      4  C   UNL     1      19.715  -6.094  -4.288  0.00  0.00    +0.000 C 
ATOM      5  H   UNL     1      19.952  -5.209  -4.889  0.00  0.00    +0.000 HD
ATOM      6  H   UNL     1      20.171  -5.975  -3.299  0.00  0.00    +0.000 HD
ATOM      7  H   UNL     1      20.187  -6.957  -4.768  0.00  0.00    +0.000 HD
ENDBRANCH   1   4
BRANCH   1   8
ATOM      8  C   UNL     1      17.555  -6.826  -5.373  0.00  0.00    +0.000 C 
ATOM      9  H   UNL     1      17.936  -6.338  -6.277  0.00  0.00    +0.000 HD
ATOM     10  H   UNL     1      17.709  -7.899  -5.495  0.00  0.00    +0.000 HD
ATOM     11  H   UNL     1      16.474  -6.656  -5.322  0.00  0.00    +0.000 HD
ENDBRANCH   1   8
BRANCH   2  12
ATOM     12  C   UNL     1      16.140  -5.970  -2.700  0.00  0.00    +0.000 C 
ATOM     13  H   UNL     1      16.014  -6.417  -1.709  0.00  0.00    +0.000 HD
ATOM     14  H   UNL     1      15.566  -6.561  -3.415  0.00  0.00    +0.000 HD
BRANCH  12  15
ATOM     15  O   UNL     1      15.585  -4.659  -2.670  0.00  0.00    +0.000 OA
ATOM     16  H   UNL     1      15.206  -4.490  -3.550  0.00  0.00    +0.000 HD
ENDBRANCH  12  15
ENDBRANCH   2  12
TORSDOF 4
ENDMDL
MODEL 2
REMARK VINA RESULT:    -3.377      2.411      3.350
REMARK INTER + INTRA:          -3.909
REMARK INTER:                  -3.897
REMARK INTRA:                  -0.013
REMARK UNBOUND:                -0.039
REMARK  Name = 11173
REMARK  4 active torsions:
REMARK  status: ('A' for Active; 'I' for Inactive)
REMARK    1  A    between atoms: O_1  and  C_6
REMARK    2  A    between atoms: C_2  and  C_4
REMARK    3  A    between atoms: C_2  and  C_5
REMARK    4  A    between atoms: C_3  and  C_6
REMARK                            x       y       z     vdW  Elec       q    Type
REMARK                         _______ _______ _______ _____ _____    ______ ____
ROOT
ATOM      1  C   UNL     1      17.923  -6.136  -4.077  0.00  0.00    +0.000 C 
ATOM      2  C   UNL     1      19.134  -5.678  -3.703  0.00  0.00    +0.000 C 
ATOM      3  H   UNL     1      19.214  -5.178  -2.739  0.00  0.00    +0.000 HD
ENDROOT
BRANCH   1   4
ATOM      4  C   UNL     1      16.733  -5.959  -3.171  0.00  0.00    +0.000 C 
ATOM      5  H   UNL     1      16.664  -6.795  -2.467  0.00  0.00    +0.000 HD
ATOM      6  H   UNL     1      16.827  -5.029  -2.599  0.00  0.00    +0.000 HD
ATOM      7  H   UNL     1      15.789  -5.913  -3.724  0.00  0.00    +0.000 HD
ENDBRANCH   1   4
BRANCH   1   8
ATOM      8  C   UNL     1      17.618  -6.843  -5.366  0.00  0.00    +0.000 C 
ATOM      9  H   UNL     1      17.457  -6.112  -6.166  0.00  0.00    +0.000 HD
ATOM     10  H   UNL     1      18.409  -7.517  -5.698  0.00  0.00    +0.000 HD
ATOM     11  H   UNL     1      16.706  -7.440  -5.259  0.00  0.00    +0.000 HD
ENDBRANCH   1   8
BRANCH   2  12
ATOM     12  C   UNL     1      20.423  -5.752  -4.460  0.00  0.00    +0.000 C 
ATOM     13  H   UNL     1      20.233  -6.163  -5.456  0.00  0.00    +0.000 HD
ATOM     14  H   UNL     1      21.181  -6.369  -3.976  0.00  0.00    +0.000 HD
BRANCH  12  15
ATOM     15  O   UNL     1      20.958  -4.442  -4.614  0.00  0.00    +0.000 OA
ATOM     16  H   UNL     1      20.462  -4.014  -5.333  0.00  0.00    +0.000 HD
ENDBRANCH  12  15
ENDBRANCH   2  12
TORSDOF 4
ENDMDL
MODEL 3
REMARK VINA RESULT:    -3.334     34.253     35.039
REMARK INTER + INTRA:          -3.860
REMARK INTER:                  -3.833
REMARK INTRA:                  -0.027
REMARK UNBOUND:                -0.039
REMARK  Name = 11173
REMARK  4 active torsions:
REMARK  status: ('A' for Active; 'I' for Inactive)
REMARK    1  A    between atoms: O_1  and  C_6
REMARK    2  A    between atoms: C_2  and  C_4
REMARK    3  A    between atoms: C_2  and  C_5
REMARK    4  A    between atoms: C_3  and  C_6
REMARK                            x       y       z     vdW  Elec       q    Type
REMARK                         _______ _______ _______ _____ _____    ______ ____
ROOT
ATOM      1  C   UNL     1     -14.729 -15.529   4.167  0.00  0.00    +0.000 C 
ATOM      2  C   UNL     1     -15.944 -15.291   3.636  0.00  0.00    +0.000 C 
ATOM      3  H   UNL     1     -16.441 -14.359   3.899  0.00  0.00    +0.000 HD
ENDROOT
BRANCH   1   4
ATOM      4  C   UNL     1     -14.093 -14.522   5.087  0.00  0.00    +0.000 C 
ATOM      5  H   UNL     1     -14.799 -14.224   5.870  0.00  0.00    +0.000 HD
ATOM      6  H   UNL     1     -13.206 -14.952   5.565  0.00  0.00    +0.000 HD
ATOM      7  H   UNL     1     -13.778 -13.614   4.562  0.00  0.00    +0.000 HD
ENDBRANCH   1   4
BRANCH   1   8
ATOM      8  C   UNL     1     -13.896 -16.756   3.925  0.00  0.00    +0.000 C 
ATOM      9  H   UNL     1     -13.589 -16.799   2.874  0.00  0.00    +0.000 HD
ATOM     10  H   UNL     1     -12.989 -16.799   4.529  0.00  0.00    +0.000 HD
ATOM     11  H   UNL     1     -14.480 -17.655   4.150  0.00  0.00    +0.000 HD
ENDBRANCH   1   8
BRANCH   2  12
ATOM     12  C   UNL     1     -16.736 -16.165   2.714  0.00  0.00    +0.000 C 
ATOM     13  H   UNL     1     -17.785 -16.158   3.025  0.00  0.00    +0.000 HD
ATOM     14  H   UNL     1     -16.395 -17.200   2.688  0.00  0.00    +0.000 HD
BRANCH  12  15
ATOM     15  O   UNL     1     -16.662 -15.646   1.390  0.00  0.00    +0.000 OA
ATOM     16  H   UNL     1     -16.694 -14.676   1.462  0.00  0.00    +0.000 HD
ENDBRANCH  12  15
ENDBRANCH   2  12
TORSDOF 4
ENDMDL
MODEL 4
REMARK VINA RESULT:    -3.330     27.134     27.321
REMARK INTER + INTRA:          -3.856
REMARK INTER:                  -3.829
REMARK INTRA:                  -0.027
REMARK UNBOUND:                -0.039
REMARK  Name = 11173
REMARK  4 active torsions:
REMARK  status: ('A' for Active; 'I' for Inactive)
REMARK    1  A    between atoms: O_1  and  C_6
REMARK    2  A    between atoms: C_2  and  C_4
REMARK    3  A    between atoms: C_2  and  C_5
REMARK    4  A    between atoms: C_3  and  C_6
REMARK                            x       y       z     vdW  Elec       q    Type
REMARK                         _______ _______ _______ _____ _____    ______ ____
ROOT
ATOM      1  C   UNL     1      11.330  19.159 -11.360  0.00  0.00    +0.000 C 
ATOM      2  C   UNL     1      11.277  19.615 -10.093  0.00  0.00    +0.000 C 
ATOM      3  H   UNL     1      11.840  19.074  -9.333  0.00  0.00    +0.000 HD
ENDROOT
BRANCH   1   4
ATOM      4  C   UNL     1      12.152  17.943 -11.695  0.00  0.00    +0.000 C 
ATOM      5  H   UNL     1      12.590  17.519 -10.785  0.00  0.00    +0.000 HD
ATOM      6  H   UNL     1      11.524  17.180 -12.168  0.00  0.00    +0.000 HD
ATOM      7  H   UNL     1      12.973  18.169 -12.384  0.00  0.00    +0.000 HD
ENDBRANCH   1   4
BRANCH   1   8
ATOM      8  C   UNL     1      10.620  19.767 -12.535  0.00  0.00    +0.000 C 
ATOM      9  H   UNL     1       9.636  20.139 -12.228  0.00  0.00    +0.000 HD
ATOM     10  H   UNL     1      11.154  20.603 -12.989  0.00  0.00    +0.000 HD
ATOM     11  H   UNL     1      10.473  19.013 -13.316  0.00  0.00    +0.000 HD
ENDBRANCH   1   8
BRANCH   2  12
ATOM     12  C   UNL     1      10.519  20.792  -9.565  0.00  0.00    +0.000 C 
ATOM     13  H   UNL     1      10.181  21.408 -10.404  0.00  0.00    +0.000 HD
ATOM     14  H   UNL     1      11.100  21.423  -8.892  0.00  0.00    +0.000 HD
BRANCH  12  15
ATOM     15  O   UNL     1       9.370  20.337  -8.858  0.00  0.00    +0.000 OA
ATOM     16  H   UNL     1       9.414  19.366  -8.837  0.00  0.00    +0.000 HD
ENDBRANCH  12  15
ENDBRANCH   2  12
TORSDOF 4
ENDMDL
MODEL 5
REMARK VINA RESULT:    -3.196     37.772     39.295
REMARK INTER + INTRA:          -3.702
REMARK INTER:                  -3.663
REMARK INTRA:                  -0.039
REMARK UNBOUND:                -0.039
REMARK  Name = 11173
REMARK  4 active torsions:
REMARK  status: ('A' for Active; 'I' for Inactive)
REMARK    1  A    between atoms: O_1  and  C_6
REMARK    2  A    between atoms: C_2  and  C_4
REMARK    3  A    between atoms: C_2  and  C_5
REMARK    4  A    between atoms: C_3  and  C_6
REMARK                            x       y       z     vdW  Elec       q    Type
REMARK                         _______ _______ _______ _____ _____    ______ ____
ROOT
ATOM      1  C   UNL     1      -4.460   4.819  26.020  0.00  0.00    +0.000 C 
ATOM      2  C   UNL     1      -5.786   4.873  26.251  0.00  0.00    +0.000 C 
ATOM      3  H   UNL     1      -6.454   4.862  25.391  0.00  0.00    +0.000 HD
ENDROOT
BRANCH   1   4
ATOM      4  C   UNL     1      -3.939   4.738  24.610  0.00  0.00    +0.000 C 
ATOM      5  H   UNL     1      -3.458   3.769  24.438  0.00  0.00    +0.000 HD
ATOM      6  H   UNL     1      -4.761   4.850  23.895  0.00  0.00    +0.000 HD
ATOM      7  H   UNL     1      -3.201   5.517  24.390  0.00  0.00    +0.000 HD
ENDBRANCH   1   4
BRANCH   1   8
ATOM      8  C   UNL     1      -3.390   4.828  27.074  0.00  0.00    +0.000 C 
ATOM      9  H   UNL     1      -2.453   4.438  26.660  0.00  0.00    +0.000 HD
ATOM     10  H   UNL     1      -3.177   5.819  27.478  0.00  0.00    +0.000 HD
ATOM     11  H   UNL     1      -3.686   4.191  27.914  0.00  0.00    +0.000 HD
ENDBRANCH   1   8
BRANCH   2  12
ATOM     12  C   UNL     1      -6.491   4.961  27.569  0.00  0.00    +0.000 C 
ATOM     13  H   UNL     1      -7.493   5.373  27.414  0.00  0.00    +0.000 HD
ATOM     14  H   UNL     1      -5.977   5.584  28.301  0.00  0.00    +0.000 HD
BRANCH  12  15
ATOM     15  O   UNL     1      -6.627   3.657  28.121  0.00  0.00    +0.000 OA
ATOM     16  H   UNL     1      -7.089   3.754  28.972  0.00  0.00    +0.000 HD
ENDBRANCH  12  15
ENDBRANCH   2  12
TORSDOF 4
ENDMDL
MODEL 6
REMARK VINA RESULT:    -3.107     19.435     20.163
REMARK INTER + INTRA:          -3.600
REMARK INTER:                  -3.594
REMARK INTRA:                  -0.006
REMARK UNBOUND:                -0.039
REMARK  Name = 11173
REMARK  4 active torsions:
REMARK  status: ('A' for Active; 'I' for Inactive)
REMARK    1  A    between atoms: O_1  and  C_6
REMARK    2  A    between atoms: C_2  and  C_4
REMARK    3  A    between atoms: C_2  and  C_5
REMARK    4  A    between atoms: C_3  and  C_6
REMARK                            x       y       z     vdW  Elec       q    Type
REMARK                         _______ _______ _______ _____ _____    ______ ____
ROOT
ATOM      1  C   UNL     1       8.500   4.162 -19.062  0.00  0.00    +0.000 C 
ATOM      2  C   UNL     1       9.541   4.476 -18.266  0.00  0.00    +0.000 C 
ATOM      3  H   UNL     1       9.371   4.501 -17.190  0.00  0.00    +0.000 HD
ENDROOT
BRANCH   1   4
ATOM      4  C   UNL     1       7.154   3.851 -18.463  0.00  0.00    +0.000 C 
ATOM      5  H   UNL     1       6.852   4.647 -17.774  0.00  0.00    +0.000 HD
ATOM      6  H   UNL     1       6.399   3.768 -19.252  0.00  0.00    +0.000 HD
ATOM      7  H   UNL     1       7.152   2.910 -17.903  0.00  0.00    +0.000 HD
ENDBRANCH   1   4
BRANCH   1   8
ATOM      8  C   UNL     1       8.542   4.083 -20.561  0.00  0.00    +0.000 C 
ATOM      9  H   UNL     1       7.580   4.400 -20.979  0.00  0.00    +0.000 HD
ATOM     10  H   UNL     1       9.313   4.708 -21.015  0.00  0.00    +0.000 HD
ATOM     11  H   UNL     1       8.731   3.052 -20.877  0.00  0.00    +0.000 HD
ENDBRANCH   1   8
BRANCH   2  12
ATOM     12  C   UNL     1      10.941   4.819 -18.668  0.00  0.00    +0.000 C 
ATOM     13  H   UNL     1      10.981   5.868 -18.975  0.00  0.00    +0.000 HD
ATOM     14  H   UNL     1      11.324   4.209 -19.488  0.00  0.00    +0.000 HD
BRANCH  12  15
ATOM     15  O   UNL     1      11.810   4.649 -17.553  0.00  0.00    +0.000 OA
ATOM     16  H   UNL     1      11.597   5.353 -16.916  0.00  0.00    +0.000 HD
ENDBRANCH  12  15
ENDBRANCH   2  12
TORSDOF 4
ENDMDL
MODEL 7
REMARK VINA RESULT:    -3.074     11.418     12.274
REMARK INTER + INTRA:          -3.562
REMARK INTER:                  -3.556
REMARK INTRA:                  -0.005
REMARK UNBOUND:                -0.039
REMARK  Name = 11173
REMARK  4 active torsions:
REMARK  status: ('A' for Active; 'I' for Inactive)
REMARK    1  A    between atoms: O_1  and  C_6
REMARK    2  A    between atoms: C_2  and  C_4
REMARK    3  A    between atoms: C_2  and  C_5
REMARK    4  A    between atoms: C_3  and  C_6
REMARK                            x       y       z     vdW  Elec       q    Type
REMARK                         _______ _______ _______ _____ _____    ______ ____
ROOT
ATOM      1  C   UNL     1      14.322   4.215  -0.046  0.00  0.00    +0.000 C 
ATOM      2  C   UNL     1      13.421   5.208  -0.174  0.00  0.00    +0.000 C 
ATOM      3  H   UNL     1      12.405   5.022   0.173  0.00  0.00    +0.000 HD
ENDROOT
BRANCH   1   4
ATOM      4  C   UNL     1      13.919   2.900   0.568  0.00  0.00    +0.000 C 
ATOM      5  H   UNL     1      14.243   2.069  -0.069  0.00  0.00    +0.000 HD
ATOM      6  H   UNL     1      14.383   2.784   1.553  0.00  0.00    +0.000 HD
ATOM      7  H   UNL     1      12.836   2.813   0.700  0.00  0.00    +0.000 HD
ENDBRANCH   1   4
BRANCH   1   8
ATOM      8  C   UNL     1      15.761   4.283  -0.469  0.00  0.00    +0.000 C 
ATOM      9  H   UNL     1      16.377   3.666   0.195  0.00  0.00    +0.000 HD
ATOM     10  H   UNL     1      15.938   3.937  -1.489  0.00  0.00    +0.000 HD
ATOM     11  H   UNL     1      16.121   5.316  -0.409  0.00  0.00    +0.000 HD
ENDBRANCH   1   8
BRANCH   2  12
ATOM     12  C   UNL     1      13.625   6.571  -0.757  0.00  0.00    +0.000 C 
ATOM     13  H   UNL     1      13.882   6.475  -1.817  0.00  0.00    +0.000 HD
ATOM     14  H   UNL     1      14.412   7.145  -0.267  0.00  0.00    +0.000 HD
BRANCH  12  15
ATOM     15  O   UNL     1      12.415   7.314  -0.659  0.00  0.00    +0.000 OA
ATOM     16  H   UNL     1      12.545   8.138  -1.160  0.00  0.00    +0.000 HD
ENDBRANCH  12  15
ENDBRANCH   2  12
TORSDOF 4
ENDMDL
MODEL 8
REMARK VINA RESULT:    -3.018     25.226     26.009
REMARK INTER + INTRA:          -3.498
REMARK INTER:                  -3.459
REMARK INTRA:                  -0.039
REMARK UNBOUND:                -0.039
REMARK  Name = 11173
REMARK  4 active torsions:
REMARK  status: ('A' for Active; 'I' for Inactive)
REMARK    1  A    between atoms: O_1  and  C_6
REMARK    2  A    between atoms: C_2  and  C_4
REMARK    3  A    between atoms: C_2  and  C_5
REMARK    4  A    between atoms: C_3  and  C_6
REMARK                            x       y       z     vdW  Elec       q    Type
REMARK                         _______ _______ _______ _____ _____    ______ ____
ROOT
ATOM      1  C   UNL     1       0.972   2.748 -20.541  0.00  0.00    +0.000 C 
ATOM      2  C   UNL     1       0.381   2.344 -21.682  0.00  0.00    +0.000 C 
ATOM      3  H   UNL     1       0.878   1.572 -22.267  0.00  0.00    +0.000 HD
ENDROOT
BRANCH   1   4
ATOM      4  C   UNL     1       2.275   2.134 -20.102  0.00  0.00    +0.000 C 
ATOM      5  H   UNL     1       2.156   1.650 -19.127  0.00  0.00    +0.000 HD
ATOM      6  H   UNL     1       2.601   1.380 -20.827  0.00  0.00    +0.000 HD
ATOM      7  H   UNL     1       3.077   2.873 -20.010  0.00  0.00    +0.000 HD
ENDBRANCH   1   4
BRANCH   1   8
ATOM      8  C   UNL     1       0.441   3.801 -19.610  0.00  0.00    +0.000 C 
ATOM      9  H   UNL     1      -0.178   3.337 -18.834  0.00  0.00    +0.000 HD
ATOM     10  H   UNL     1       1.219   4.374 -19.102  0.00  0.00    +0.000 HD
ATOM     11  H   UNL     1      -0.179   4.513 -20.164  0.00  0.00    +0.000 HD
ENDBRANCH   1   8
BRANCH   2  12
ATOM     12  C   UNL     1      -0.899   2.833 -22.283  0.00  0.00    +0.000 C 
ATOM     13  H   UNL     1      -0.891   2.634 -23.359  0.00  0.00    +0.000 HD
ATOM     14  H   UNL     1      -1.075   3.899 -22.136  0.00  0.00    +0.000 HD
BRANCH  12  15
ATOM     15  O   UNL     1      -1.993   2.125 -21.709  0.00  0.00    +0.000 OA
ATOM     16  H   UNL     1      -2.777   2.325 -22.249  0.00  0.00    +0.000 HD
ENDBRANCH  12  15
ENDBRANCH   2  12
TORSDOF 4
ENDMDL
MODEL 9
REMARK VINA RESULT:    -3.015     12.341     13.011
REMARK INTER + INTRA:          -3.495
REMARK INTER:                  -3.464
REMARK INTRA:                  -0.031
REMARK UNBOUND:                -0.039
REMARK  Name = 11173
REMARK  4 active torsions:
REMARK  status: ('A' for Active; 'I' for Inactive)
REMARK    1  A    between atoms: O_1  and  C_6
REMARK    2  A    between atoms: C_2  and  C_4
REMARK    3  A    between atoms: C_2  and  C_5
REMARK    4  A    between atoms: C_3  and  C_6
REMARK                            x       y       z     vdW  Elec       q    Type
REMARK                         _______ _______ _______ _____ _____    ______ ____
ROOT
ATOM      1  C   UNL     1      14.829   5.844  -1.462  0.00  0.00    +0.000 C 
ATOM      2  C   UNL     1      15.283   6.474  -2.563  0.00  0.00    +0.000 C 
ATOM      3  H   UNL     1      16.148   6.052  -3.072  0.00  0.00    +0.000 HD
ENDROOT
BRANCH   1   4
ATOM      4  C   UNL     1      15.506   4.592  -0.971  0.00  0.00    +0.000 C 
ATOM      5  H   UNL     1      16.590   4.740  -0.925  0.00  0.00    +0.000 HD
ATOM      6  H   UNL     1      15.147   4.336   0.031  0.00  0.00    +0.000 HD
ATOM      7  H   UNL     1      15.317   3.731  -1.621  0.00  0.00    +0.000 HD
ENDBRANCH   1   4
BRANCH   1   8
ATOM      8  C   UNL     1      13.657   6.279  -0.630  0.00  0.00    +0.000 C 
ATOM      9  H   UNL     1      13.314   5.448  -0.004  0.00  0.00    +0.000 HD
ATOM     10  H   UNL     1      13.875   7.116   0.035  0.00  0.00    +0.000 HD
ATOM     11  H   UNL     1      12.830   6.585  -1.279  0.00  0.00    +0.000 HD
ENDBRANCH   1   8
BRANCH   2  12
ATOM     12  C   UNL     1      14.754   7.722  -3.198  0.00  0.00    +0.000 C 
ATOM     13  H   UNL     1      15.592   8.326  -3.558  0.00  0.00    +0.000 HD
ATOM     14  H   UNL     1      14.155   8.337  -2.525  0.00  0.00    +0.000 HD
BRANCH  12  15
ATOM     15  O   UNL     1      13.942   7.378  -4.315  0.00  0.00    +0.000 OA
ATOM     16  H   UNL     1      13.027   7.613  -4.086  0.00  0.00    +0.000 HD
ENDBRANCH  12  15
ENDBRANCH   2  12
TORSDOF 4
ENDMDL
MODEL 10
REMARK VINA RESULT:    -3.010     25.437     25.610
REMARK INTER + INTRA:          -3.489
REMARK INTER:                  -3.482
REMARK INTRA:                  -0.007
REMARK UNBOUND:                -0.039
REMARK  Name = 11173
REMARK  4 active torsions:
REMARK  status: ('A' for Active; 'I' for Inactive)
REMARK    1  A    between atoms: O_1  and  C_6
REMARK    2  A    between atoms: C_2  and  C_4
REMARK    3  A    between atoms: C_2  and  C_5
REMARK    4  A    between atoms: C_3  and  C_6
REMARK                            x       y       z     vdW  Elec       q    Type
REMARK                         _______ _______ _______ _____ _____    ______ ____
ROOT
ATOM      1  C   UNL     1      12.686  18.608 -11.279  0.00  0.00    +0.000 C 
ATOM      2  C   UNL     1      13.112  17.330 -11.289  0.00  0.00    +0.000 C 
ATOM      3  H   UNL     1      12.794  16.681 -10.475  0.00  0.00    +0.000 HD
ENDROOT
BRANCH   1   4
ATOM      4  C   UNL     1      11.793  19.101 -10.171  0.00  0.00    +0.000 C 
ATOM      5  H   UNL     1      11.617  18.303  -9.442  0.00  0.00    +0.000 HD
ATOM      6  H   UNL     1      12.262  19.946  -9.654  0.00  0.00    +0.000 HD
ATOM      7  H   UNL     1      10.817  19.437 -10.536  0.00  0.00    +0.000 HD
ENDBRANCH   1   4
BRANCH   1   8
ATOM      8  C   UNL     1      13.022  19.648 -12.309  0.00  0.00    +0.000 C 
ATOM      9  H   UNL     1      14.081  19.919 -12.236  0.00  0.00    +0.000 HD
ATOM     10  H   UNL     1      12.840  19.327 -13.336  0.00  0.00    +0.000 HD
ATOM     11  H   UNL     1      12.424  20.550 -12.140  0.00  0.00    +0.000 HD
ENDBRANCH   1   8
BRANCH   2  12
ATOM     12  C   UNL     1      14.000  16.661 -12.291  0.00  0.00    +0.000 C 
ATOM     13  H   UNL     1      15.032  16.681 -11.927  0.00  0.00    +0.000 HD
ATOM     14  H   UNL     1      13.977  17.125 -13.277  0.00  0.00    +0.000 HD
BRANCH  12  15
ATOM     15  O   UNL     1      13.606  15.301 -12.438  0.00  0.00    +0.000 OA
ATOM     16  H   UNL     1      14.205  14.770 -11.885  0.00  0.00    +0.000 HD
ENDBRANCH  12  15
ENDBRANCH   2  12
TORSDOF 4
ENDMDL
