MODEL 1
REMARK VINA RESULT:    -4.144      0.000      0.000
REMARK INTER + INTRA:          -5.837
REMARK INTER:                  -5.250
REMARK INTRA:                  -0.587
REMARK UNBOUND:                -0.118
REMARK  Name = 11527
REMARK  8 active torsions:
REMARK  status: ('A' for Active; 'I' for Inactive)
REMARK    1  A    between atoms: O_1  and  C_4
REMARK    2  A    between atoms: C_2  and  C_3
REMARK    3  A    between atoms: C_2  and  C_4
REMARK    4  A    between atoms: C_3  and  C_5
REMARK    5  A    between atoms: C_4  and  C_6
REMARK    6  A    between atoms: C_5  and  C_7
REMARK    7  A    between atoms: C_6  and  C_8
REMARK    8  A    between atoms: C_7  and  C_9
REMARK                            x       y       z     vdW  Elec       q    Type
REMARK                         _______ _______ _______ _____ _____    ______ ____
ROOT
ATOM      1  C   UNL     1      18.821  -5.498  -1.953  0.00  0.00    +0.000 C 
ATOM      2  H   UNL     1      19.809  -5.156  -1.620  0.00  0.00    +0.000 HD
ATOM      3  H   UNL     1      18.385  -6.013  -1.087  0.00  0.00    +0.000 HD
ENDROOT
BRANCH   1   4
ATOM      4  C   UNL     1      17.946  -4.292  -2.316  0.00  0.00    +0.000 C 
ATOM      5  H   UNL     1      17.821  -4.241  -3.404  0.00  0.00    +0.000 HD
ATOM      6  H   UNL     1      18.433  -3.363  -1.997  0.00  0.00    +0.000 HD
BRANCH   4   7
ATOM      7  C   UNL     1      16.574  -4.385  -1.642  0.00  0.00    +0.000 C 
ATOM      8  H   UNL     1      16.201  -3.374  -1.437  0.00  0.00    +0.000 HD
ATOM      9  H   UNL     1      16.682  -4.885  -0.671  0.00  0.00    +0.000 HD
BRANCH   7  10
ATOM     10  C   UNL     1      15.537  -5.138  -2.480  0.00  0.00    +0.000 C 
ATOM     11  H   UNL     1      14.600  -4.571  -2.492  0.00  0.00    +0.000 HD
ATOM     12  H   UNL     1      15.886  -5.200  -3.517  0.00  0.00    +0.000 HD
BRANCH  10  13
ATOM     13  C   UNL     1      15.255  -6.544  -1.973  0.00  0.00    +0.000 C 
ATOM     14  H   UNL     1      15.906  -6.781  -1.125  0.00  0.00    +0.000 HD
ATOM     15  H   UNL     1      15.433  -7.285  -2.758  0.00  0.00    +0.000 HD
ATOM     16  H   UNL     1      14.216  -6.638  -1.641  0.00  0.00    +0.000 HD
ENDBRANCH  10  13
ENDBRANCH   7  10
ENDBRANCH   4   7
ENDBRANCH   1   4
BRANCH   1  17
ATOM     17  C   UNL     1      18.996  -6.517  -3.089  0.00  0.00    +0.000 C 
ATOM     18  H   UNL     1      18.362  -7.389  -2.887  0.00  0.00    +0.000 HD
BRANCH  17  19
ATOM     19  C   UNL     1      18.640  -5.953  -4.468  0.00  0.00    +0.000 C 
ATOM     20  H   UNL     1      19.536  -5.920  -5.098  0.00  0.00    +0.000 HD
ATOM     21  H   UNL     1      18.258  -4.930  -4.379  0.00  0.00    +0.000 HD
BRANCH  19  22
ATOM     22  C   UNL     1      17.590  -6.798  -5.178  0.00  0.00    +0.000 C 
ATOM     23  H   UNL     1      16.579  -6.510  -4.868  0.00  0.00    +0.000 HD
ATOM     24  H   UNL     1      17.664  -6.659  -6.260  0.00  0.00    +0.000 HD
ATOM     25  H   UNL     1      17.724  -7.864  -4.969  0.00  0.00    +0.000 HD
ENDBRANCH  19  22
ENDBRANCH  17  19
BRANCH  17  26
ATOM     26  O   UNL     1      20.345  -6.981  -3.113  0.00  0.00    +0.000 OA
ATOM     27  H   UNL     1      20.741  -6.778  -2.249  0.00  0.00    +0.000 HD
ENDBRANCH  17  26
ENDBRANCH   1  17
TORSDOF 8
ENDMDL
MODEL 2
REMARK VINA RESULT:    -4.136     11.447     12.752
REMARK INTER + INTRA:          -5.826
REMARK INTER:                  -5.623
REMARK INTRA:                  -0.203
REMARK UNBOUND:                -0.118
REMARK  Name = 11527
REMARK  8 active torsions:
REMARK  status: ('A' for Active; 'I' for Inactive)
REMARK    1  A    between atoms: O_1  and  C_4
REMARK    2  A    between atoms: C_2  and  C_3
REMARK    3  A    between atoms: C_2  and  C_4
REMARK    4  A    between atoms: C_3  and  C_5
REMARK    5  A    between atoms: C_4  and  C_6
REMARK    6  A    between atoms: C_5  and  C_7
REMARK    7  A    between atoms: C_6  and  C_8
REMARK    8  A    between atoms: C_7  and  C_9
REMARK                            x       y       z     vdW  Elec       q    Type
REMARK                         _______ _______ _______ _____ _____    ______ ____
ROOT
ATOM      1  C   UNL     1      15.425   6.298  -2.629  0.00  0.00    +0.000 C 
ATOM      2  H   UNL     1      16.465   6.538  -2.373  0.00  0.00    +0.000 HD
ATOM      3  H   UNL     1      15.484   5.681  -3.535  0.00  0.00    +0.000 HD
ENDROOT
BRANCH   1   4
ATOM      4  C   UNL     1      14.786   5.480  -1.500  0.00  0.00    +0.000 C 
ATOM      5  H   UNL     1      14.039   4.795  -1.919  0.00  0.00    +0.000 HD
ATOM      6  H   UNL     1      14.268   6.143  -0.799  0.00  0.00    +0.000 HD
BRANCH   4   7
ATOM      7  C   UNL     1      15.845   4.681  -0.734  0.00  0.00    +0.000 C 
ATOM      8  H   UNL     1      16.314   5.329   0.017  0.00  0.00    +0.000 HD
ATOM      9  H   UNL     1      16.638   4.375  -1.428  0.00  0.00    +0.000 HD
BRANCH   7  10
ATOM     10  C   UNL     1      15.282   3.439  -0.039  0.00  0.00    +0.000 C 
ATOM     11  H   UNL     1      15.432   2.564  -0.682  0.00  0.00    +0.000 HD
ATOM     12  H   UNL     1      15.842   3.255   0.885  0.00  0.00    +0.000 HD
BRANCH  10  13
ATOM     13  C   UNL     1      13.804   3.552   0.300  0.00  0.00    +0.000 C 
ATOM     14  H   UNL     1      13.311   2.582   0.181  0.00  0.00    +0.000 HD
ATOM     15  H   UNL     1      13.306   4.271  -0.358  0.00  0.00    +0.000 HD
ATOM     16  H   UNL     1      13.664   3.880   1.335  0.00  0.00    +0.000 HD
ENDBRANCH  10  13
ENDBRANCH   7  10
ENDBRANCH   4   7
ENDBRANCH   1   4
BRANCH   1  17
ATOM     17  C   UNL     1      14.679   7.596  -2.971  0.00  0.00    +0.000 C 
ATOM     18  H   UNL     1      13.919   7.784  -2.202  0.00  0.00    +0.000 HD
BRANCH  17  19
ATOM     19  C   UNL     1      15.600   8.816  -3.067  0.00  0.00    +0.000 C 
ATOM     20  H   UNL     1      15.372   9.517  -2.255  0.00  0.00    +0.000 HD
ATOM     21  H   UNL     1      15.445   9.343  -4.014  0.00  0.00    +0.000 HD
BRANCH  19  22
ATOM     22  C   UNL     1      17.071   8.432  -2.965  0.00  0.00    +0.000 C 
ATOM     23  H   UNL     1      17.183   7.398  -2.623  0.00  0.00    +0.000 HD
ATOM     24  H   UNL     1      17.551   8.519  -3.944  0.00  0.00    +0.000 HD
ATOM     25  H   UNL     1      17.609   9.085  -2.271  0.00  0.00    +0.000 HD
ENDBRANCH  19  22
ENDBRANCH  17  19
BRANCH  17  26
ATOM     26  O   UNL     1      13.986   7.440  -4.208  0.00  0.00    +0.000 OA
ATOM     27  H   UNL     1      13.891   8.322  -4.605  0.00  0.00    +0.000 HD
ENDBRANCH  17  26
ENDBRANCH   1  17
TORSDOF 8
ENDMDL
MODEL 3
REMARK VINA RESULT:    -3.973     24.348     25.442
REMARK INTER + INTRA:          -5.600
REMARK INTER:                  -5.227
REMARK INTRA:                  -0.373
REMARK UNBOUND:                -0.118
REMARK  Name = 11527
REMARK  8 active torsions:
REMARK  status: ('A' for Active; 'I' for Inactive)
REMARK    1  A    between atoms: O_1  and  C_4
REMARK    2  A    between atoms: C_2  and  C_3
REMARK    3  A    between atoms: C_2  and  C_4
REMARK    4  A    between atoms: C_3  and  C_5
REMARK    5  A    between atoms: C_4  and  C_6
REMARK    6  A    between atoms: C_5  and  C_7
REMARK    7  A    between atoms: C_6  and  C_8
REMARK    8  A    between atoms: C_7  and  C_9
REMARK                            x       y       z     vdW  Elec       q    Type
REMARK                         _______ _______ _______ _____ _____    ______ ____
ROOT
ATOM      1  C   UNL     1       1.293   2.569 -20.660  0.00  0.00    +0.000 C 
ATOM      2  H   UNL     1       1.343   2.970 -21.681  0.00  0.00    +0.000 HD
ATOM      3  H   UNL     1       0.705   1.646 -20.740  0.00  0.00    +0.000 HD
ENDROOT
BRANCH   1   4
ATOM      4  C   UNL     1       2.705   2.228 -20.166  0.00  0.00    +0.000 C 
ATOM      5  H   UNL     1       2.933   1.181 -20.395  0.00  0.00    +0.000 HD
ATOM      6  H   UNL     1       2.763   2.347 -19.078  0.00  0.00    +0.000 HD
BRANCH   4   7
ATOM      7  C   UNL     1       3.750   3.138 -20.818  0.00  0.00    +0.000 C 
ATOM      8  H   UNL     1       3.365   3.502 -21.779  0.00  0.00    +0.000 HD
ATOM      9  H   UNL     1       4.651   2.551 -21.039  0.00  0.00    +0.000 HD
BRANCH   7  10
ATOM     10  C   UNL     1       4.136   4.338 -19.949  0.00  0.00    +0.000 C 
ATOM     11  H   UNL     1       4.064   5.255 -20.544  0.00  0.00    +0.000 HD
ATOM     12  H   UNL     1       3.419   4.434 -19.126  0.00  0.00    +0.000 HD
BRANCH  10  13
ATOM     13  C   UNL     1       5.538   4.238 -19.367  0.00  0.00    +0.000 C 
ATOM     14  H   UNL     1       5.898   3.205 -19.416  0.00  0.00    +0.000 HD
ATOM     15  H   UNL     1       5.550   4.554 -18.320  0.00  0.00    +0.000 HD
ATOM     16  H   UNL     1       6.238   4.869 -19.924  0.00  0.00    +0.000 HD
ENDBRANCH  10  13
ENDBRANCH   7  10
ENDBRANCH   4   7
ENDBRANCH   1   4
BRANCH   1  17
ATOM     17  C   UNL     1       0.531   3.559 -19.767  0.00  0.00    +0.000 C 
ATOM     18  H   UNL     1       1.011   3.591 -18.781  0.00  0.00    +0.000 HD
BRANCH  17  19
ATOM     19  C   UNL     1       0.483   4.979 -20.341  0.00  0.00    +0.000 C 
ATOM     20  H   UNL     1      -0.542   5.221 -20.646  0.00  0.00    +0.000 HD
ATOM     21  H   UNL     1       1.121   5.058 -21.228  0.00  0.00    +0.000 HD
BRANCH  19  22
ATOM     22  C   UNL     1       0.937   6.022 -19.327  0.00  0.00    +0.000 C 
ATOM     23  H   UNL     1       1.975   6.321 -19.510  0.00  0.00    +0.000 HD
ATOM     24  H   UNL     1       0.310   6.915 -19.401  0.00  0.00    +0.000 HD
ATOM     25  H   UNL     1       0.862   5.645 -18.302  0.00  0.00    +0.000 HD
ENDBRANCH  19  22
ENDBRANCH  17  19
BRANCH  17  26
ATOM     26  O   UNL     1      -0.802   3.095 -19.565  0.00  0.00    +0.000 OA
ATOM     27  H   UNL     1      -0.774   2.415 -18.871  0.00  0.00    +0.000 HD
ENDBRANCH  17  26
ENDBRANCH   1  17
TORSDOF 8
ENDMDL
MODEL 4
REMARK VINA RESULT:    -3.935     32.165     34.008
REMARK INTER + INTRA:          -5.547
REMARK INTER:                  -5.419
REMARK INTRA:                  -0.129
REMARK UNBOUND:                -0.118
REMARK  Name = 11527
REMARK  8 active torsions:
REMARK  status: ('A' for Active; 'I' for Inactive)
REMARK    1  A    between atoms: O_1  and  C_4
REMARK    2  A    between atoms: C_2  and  C_3
REMARK    3  A    between atoms: C_2  and  C_4
REMARK    4  A    between atoms: C_3  and  C_5
REMARK    5  A    between atoms: C_4  and  C_6
REMARK    6  A    between atoms: C_5  and  C_7
REMARK    7  A    between atoms: C_6  and  C_8
REMARK    8  A    between atoms: C_7  and  C_9
REMARK                            x       y       z     vdW  Elec       q    Type
REMARK                         _______ _______ _______ _____ _____    ______ ____
ROOT
ATOM      1  C   UNL     1     -16.126  -5.395  -3.589  0.00  0.00    +0.000 C 
ATOM      2  H   UNL     1     -16.909  -5.058  -4.280  0.00  0.00    +0.000 HD
ATOM      3  H   UNL     1     -15.802  -4.492  -3.055  0.00  0.00    +0.000 HD
ENDROOT
BRANCH   1   4
ATOM      4  C   UNL     1     -16.713  -6.393  -2.582  0.00  0.00    +0.000 C 
ATOM      5  H   UNL     1     -16.455  -6.083  -1.563  0.00  0.00    +0.000 HD
ATOM      6  H   UNL     1     -16.284  -7.388  -2.743  0.00  0.00    +0.000 HD
BRANCH   4   7
ATOM      7  C   UNL     1     -18.236  -6.484  -2.724  0.00  0.00    +0.000 C 
ATOM      8  H   UNL     1     -18.625  -7.208  -1.997  0.00  0.00    +0.000 HD
ATOM      9  H   UNL     1     -18.482  -6.872  -3.721  0.00  0.00    +0.000 HD
BRANCH   7  10
ATOM     10  C   UNL     1     -18.945  -5.143  -2.520  0.00  0.00    +0.000 C 
ATOM     11  H   UNL     1     -18.222  -4.401  -2.161  0.00  0.00    +0.000 HD
ATOM     12  H   UNL     1     -19.320  -4.781  -3.484  0.00  0.00    +0.000 HD
BRANCH  10  13
ATOM     13  C   UNL     1     -20.104  -5.214  -1.538  0.00  0.00    +0.000 C 
ATOM     14  H   UNL     1     -19.797  -4.833  -0.559  0.00  0.00    +0.000 HD
ATOM     15  H   UNL     1     -20.446  -6.245  -1.412  0.00  0.00    +0.000 HD
ATOM     16  H   UNL     1     -20.949  -4.612  -1.887  0.00  0.00    +0.000 HD
ENDBRANCH  10  13
ENDBRANCH   7  10
ENDBRANCH   4   7
ENDBRANCH   1   4
BRANCH   1  17
ATOM     17  C   UNL     1     -14.938  -5.937  -4.397  0.00  0.00    +0.000 C 
ATOM     18  H   UNL     1     -15.293  -6.246  -5.388  0.00  0.00    +0.000 HD
BRANCH  17  19
ATOM     19  C   UNL     1     -13.809  -4.916  -4.572  0.00  0.00    +0.000 C 
ATOM     20  H   UNL     1     -13.966  -4.071  -3.890  0.00  0.00    +0.000 HD
ATOM     21  H   UNL     1     -13.799  -4.522  -5.593  0.00  0.00    +0.000 HD
BRANCH  19  22
ATOM     22  C   UNL     1     -12.442  -5.519  -4.275  0.00  0.00    +0.000 C 
ATOM     23  H   UNL     1     -11.701  -4.735  -4.083  0.00  0.00    +0.000 HD
ATOM     24  H   UNL     1     -12.496  -6.157  -3.389  0.00  0.00    +0.000 HD
ATOM     25  H   UNL     1     -12.085  -6.134  -5.107  0.00  0.00    +0.000 HD
ENDBRANCH  19  22
ENDBRANCH  17  19
BRANCH  17  26
ATOM     26  O   UNL     1     -14.416  -7.102  -3.762  0.00  0.00    +0.000 OA
ATOM     27  H   UNL     1     -15.145  -7.524  -3.278  0.00  0.00    +0.000 HD
ENDBRANCH  17  26
ENDBRANCH   1  17
TORSDOF 8
ENDMDL
MODEL 5
REMARK VINA RESULT:    -3.933     26.346     27.325
REMARK INTER + INTRA:          -5.546
REMARK INTER:                  -5.051
REMARK INTRA:                  -0.495
REMARK UNBOUND:                -0.118
REMARK  Name = 11527
REMARK  8 active torsions:
REMARK  status: ('A' for Active; 'I' for Inactive)
REMARK    1  A    between atoms: O_1  and  C_4
REMARK    2  A    between atoms: C_2  and  C_3
REMARK    3  A    between atoms: C_2  and  C_4
REMARK    4  A    between atoms: C_3  and  C_5
REMARK    5  A    between atoms: C_4  and  C_6
REMARK    6  A    between atoms: C_5  and  C_7
REMARK    7  A    between atoms: C_6  and  C_8
REMARK    8  A    between atoms: C_7  and  C_9
REMARK                            x       y       z     vdW  Elec       q    Type
REMARK                         _______ _______ _______ _____ _____    ______ ____
ROOT
ATOM      1  C   UNL     1       0.124   2.579 -20.770  0.00  0.00    +0.000 C 
ATOM      2  H   UNL     1       0.935   2.215 -21.413  0.00  0.00    +0.000 HD
ATOM      3  H   UNL     1      -0.254   1.690 -20.249  0.00  0.00    +0.000 HD
ENDROOT
BRANCH   1   4
ATOM      4  C   UNL     1       0.682   3.570 -19.740  0.00  0.00    +0.000 C 
ATOM      5  H   UNL     1       0.897   3.044 -18.802  0.00  0.00    +0.000 HD
ATOM      6  H   UNL     1      -0.061   4.344 -19.520  0.00  0.00    +0.000 HD
BRANCH   4   7
ATOM      7  C   UNL     1       1.957   4.242 -20.258  0.00  0.00    +0.000 C 
ATOM      8  H   UNL     1       2.000   4.144 -21.350  0.00  0.00    +0.000 HD
ATOM      9  H   UNL     1       2.831   3.714 -19.858  0.00  0.00    +0.000 HD
BRANCH   7  10
ATOM     10  C   UNL     1       2.054   5.724 -19.887  0.00  0.00    +0.000 C 
ATOM     11  H   UNL     1       2.538   5.821 -18.908  0.00  0.00    +0.000 HD
ATOM     12  H   UNL     1       2.697   6.237 -20.612  0.00  0.00    +0.000 HD
BRANCH  10  13
ATOM     13  C   UNL     1       0.707   6.428 -19.843  0.00  0.00    +0.000 C 
ATOM     14  H   UNL     1      -0.105   5.703 -19.966  0.00  0.00    +0.000 HD
ATOM     15  H   UNL     1       0.627   7.169 -20.644  0.00  0.00    +0.000 HD
ATOM     16  H   UNL     1       0.565   6.939 -18.886  0.00  0.00    +0.000 HD
ENDBRANCH  10  13
ENDBRANCH   7  10
ENDBRANCH   4   7
ENDBRANCH   1   4
BRANCH   1  17
ATOM     17  C   UNL     1      -1.001   3.145 -21.648  0.00  0.00    +0.000 C 
ATOM     18  H   UNL     1      -1.347   4.093 -21.217  0.00  0.00    +0.000 HD
BRANCH  17  19
ATOM     19  C   UNL     1      -0.571   3.388 -23.099  0.00  0.00    +0.000 C 
ATOM     20  H   UNL     1      -1.415   3.194 -23.772  0.00  0.00    +0.000 HD
ATOM     21  H   UNL     1       0.241   2.709 -23.379  0.00  0.00    +0.000 HD
BRANCH  19  22
ATOM     22  C   UNL     1      -0.102   4.820 -23.325  0.00  0.00    +0.000 C 
ATOM     23  H   UNL     1       0.721   5.074 -22.648  0.00  0.00    +0.000 HD
ATOM     24  H   UNL     1       0.256   4.940 -24.351  0.00  0.00    +0.000 HD
ATOM     25  H   UNL     1      -0.912   5.538 -23.168  0.00  0.00    +0.000 HD
ENDBRANCH  19  22
ENDBRANCH  17  19
BRANCH  17  26
ATOM     26  O   UNL     1      -2.114   2.253 -21.637  0.00  0.00    +0.000 OA
ATOM     27  H   UNL     1      -2.811   2.661 -21.096  0.00  0.00    +0.000 HD
ENDBRANCH  17  26
ENDBRANCH   1  17
TORSDOF 8
ENDMDL
MODEL 6
REMARK VINA RESULT:    -3.899     24.717     25.697
REMARK INTER + INTRA:          -5.498
REMARK INTER:                  -4.963
REMARK INTRA:                  -0.535
REMARK UNBOUND:                -0.118
REMARK  Name = 11527
REMARK  8 active torsions:
REMARK  status: ('A' for Active; 'I' for Inactive)
REMARK    1  A    between atoms: O_1  and  C_4
REMARK    2  A    between atoms: C_2  and  C_3
REMARK    3  A    between atoms: C_2  and  C_4
REMARK    4  A    between atoms: C_3  and  C_5
REMARK    5  A    between atoms: C_4  and  C_6
REMARK    6  A    between atoms: C_5  and  C_7
REMARK    7  A    between atoms: C_6  and  C_8
REMARK    8  A    between atoms: C_7  and  C_9
REMARK                            x       y       z     vdW  Elec       q    Type
REMARK                         _______ _______ _______ _____ _____    ______ ____
ROOT
ATOM      1  C   UNL     1       1.067   4.587 -20.807  0.00  0.00    +0.000 C 
ATOM      2  H   UNL     1       0.693   4.769 -21.823  0.00  0.00    +0.000 HD
ATOM      3  H   UNL     1       2.160   4.574 -20.899  0.00  0.00    +0.000 HD
ENDROOT
BRANCH   1   4
ATOM      4  C   UNL     1       0.651   5.738 -19.884  0.00  0.00    +0.000 C 
ATOM      5  H   UNL     1      -0.043   5.366 -19.120  0.00  0.00    +0.000 HD
ATOM      6  H   UNL     1       0.126   6.511 -20.456  0.00  0.00    +0.000 HD
BRANCH   4   7
ATOM      7  C   UNL     1       1.872   6.369 -19.207  0.00  0.00    +0.000 C 
ATOM      8  H   UNL     1       2.055   5.867 -18.249  0.00  0.00    +0.000 HD
ATOM      9  H   UNL     1       1.654   7.420 -18.978  0.00  0.00    +0.000 HD
BRANCH   7  10
ATOM     10  C   UNL     1       3.142   6.296 -20.059  0.00  0.00    +0.000 C 
ATOM     11  H   UNL     1       3.012   5.537 -20.839  0.00  0.00    +0.000 HD
ATOM     12  H   UNL     1       3.292   7.254 -20.569  0.00  0.00    +0.000 HD
BRANCH  10  13
ATOM     13  C   UNL     1       4.391   5.967 -19.256  0.00  0.00    +0.000 C 
ATOM     14  H   UNL     1       4.977   5.195 -19.765  0.00  0.00    +0.000 HD
ATOM     15  H   UNL     1       4.129   5.597 -18.261  0.00  0.00    +0.000 HD
ATOM     16  H   UNL     1       5.024   6.852 -19.139  0.00  0.00    +0.000 HD
ENDBRANCH  10  13
ENDBRANCH   7  10
ENDBRANCH   4   7
ENDBRANCH   1   4
BRANCH   1  17
ATOM     17  C   UNL     1       0.600   3.200 -20.340  0.00  0.00    +0.000 C 
ATOM     18  H   UNL     1       0.005   2.737 -21.137  0.00  0.00    +0.000 HD
BRANCH  17  19
ATOM     19  C   UNL     1       1.757   2.263 -19.978  0.00  0.00    +0.000 C 
ATOM     20  H   UNL     1       1.497   1.232 -20.247  0.00  0.00    +0.000 HD
ATOM     21  H   UNL     1       1.949   2.287 -18.900  0.00  0.00    +0.000 HD
BRANCH  19  22
ATOM     22  C   UNL     1       3.044   2.635 -20.704  0.00  0.00    +0.000 C 
ATOM     23  H   UNL     1       3.423   3.603 -20.360  0.00  0.00    +0.000 HD
ATOM     24  H   UNL     1       3.814   1.882 -20.513  0.00  0.00    +0.000 HD
ATOM     25  H   UNL     1       2.893   2.688 -21.787  0.00  0.00    +0.000 HD
ENDBRANCH  19  22
ENDBRANCH  17  19
BRANCH  17  26
ATOM     26  O   UNL     1      -0.257   3.338 -19.209  0.00  0.00    +0.000 OA
ATOM     27  H   UNL     1       0.305   3.514 -18.435  0.00  0.00    +0.000 HD
ENDBRANCH  17  26
ENDBRANCH   1  17
TORSDOF 8
ENDMDL
MODEL 7
REMARK VINA RESULT:    -3.885     26.232     27.251
REMARK INTER + INTRA:          -5.480
REMARK INTER:                  -5.030
REMARK INTRA:                  -0.450
REMARK UNBOUND:                -0.118
REMARK  Name = 11527
REMARK  8 active torsions:
REMARK  status: ('A' for Active; 'I' for Inactive)
REMARK    1  A    between atoms: O_1  and  C_4
REMARK    2  A    between atoms: C_2  and  C_3
REMARK    3  A    between atoms: C_2  and  C_4
REMARK    4  A    between atoms: C_3  and  C_5
REMARK    5  A    between atoms: C_4  and  C_6
REMARK    6  A    between atoms: C_5  and  C_7
REMARK    7  A    between atoms: C_6  and  C_8
REMARK    8  A    between atoms: C_7  and  C_9
REMARK                            x       y       z     vdW  Elec       q    Type
REMARK                         _______ _______ _______ _____ _____    ______ ____
ROOT
ATOM      1  C   UNL     1       0.004   1.832 -21.506  0.00  0.00    +0.000 C 
ATOM      2  H   UNL     1      -0.335   0.800 -21.350  0.00  0.00    +0.000 HD
ATOM      3  H   UNL     1       0.841   1.759 -22.212  0.00  0.00    +0.000 HD
ENDROOT
BRANCH   1   4
ATOM      4  C   UNL     1      -1.121   2.661 -22.139  0.00  0.00    +0.000 C 
ATOM      5  H   UNL     1      -1.325   3.541 -21.517  0.00  0.00    +0.000 HD
ATOM      6  H   UNL     1      -2.043   2.072 -22.188  0.00  0.00    +0.000 HD
BRANCH   4   7
ATOM      7  C   UNL     1      -0.744   3.107 -23.555  0.00  0.00    +0.000 C 
ATOM      8  H   UNL     1      -1.651   3.161 -24.171  0.00  0.00    +0.000 HD
ATOM      9  H   UNL     1      -0.096   2.348 -24.011  0.00  0.00    +0.000 HD
BRANCH   7  10
ATOM     10  C   UNL     1      -0.034   4.462 -23.595  0.00  0.00    +0.000 C 
ATOM     11  H   UNL     1       1.050   4.304 -23.586  0.00  0.00    +0.000 HD
ATOM     12  H   UNL     1      -0.274   4.969 -24.537  0.00  0.00    +0.000 HD
BRANCH  10  13
ATOM     13  C   UNL     1      -0.406   5.377 -22.439  0.00  0.00    +0.000 C 
ATOM     14  H   UNL     1      -0.397   6.422 -22.762  0.00  0.00    +0.000 HD
ATOM     15  H   UNL     1       0.302   5.268 -21.612  0.00  0.00    +0.000 HD
ATOM     16  H   UNL     1      -1.409   5.145 -22.065  0.00  0.00    +0.000 HD
ENDBRANCH  10  13
ENDBRANCH   7  10
ENDBRANCH   4   7
ENDBRANCH   1   4
BRANCH   1  17
ATOM     17  C   UNL     1       0.534   2.394 -20.178  0.00  0.00    +0.000 C 
ATOM     18  H   UNL     1       0.756   1.559 -19.501  0.00  0.00    +0.000 HD
BRANCH  17  19
ATOM     19  C   UNL     1       1.796   3.247 -20.343  0.00  0.00    +0.000 C 
ATOM     20  H   UNL     1       1.867   3.966 -19.518  0.00  0.00    +0.000 HD
ATOM     21  H   UNL     1       1.757   3.817 -21.278  0.00  0.00    +0.000 HD
BRANCH  19  22
ATOM     22  C   UNL     1       3.063   2.401 -20.348  0.00  0.00    +0.000 C 
ATOM     23  H   UNL     1       2.868   1.402 -19.944  0.00  0.00    +0.000 HD
ATOM     24  H   UNL     1       3.434   2.286 -21.370  0.00  0.00    +0.000 HD
ATOM     25  H   UNL     1       3.858   2.865 -19.755  0.00  0.00    +0.000 HD
ENDBRANCH  19  22
ENDBRANCH  17  19
BRANCH  17  26
ATOM     26  O   UNL     1      -0.478   3.179 -19.551  0.00  0.00    +0.000 OA
ATOM     27  H   UNL     1      -0.749   3.867 -20.181  0.00  0.00    +0.000 HD
ENDBRANCH  17  26
ENDBRANCH   1  17
TORSDOF 8
ENDMDL
MODEL 8
REMARK VINA RESULT:    -3.837     11.224     12.824
REMARK INTER + INTRA:          -5.413
REMARK INTER:                  -5.296
REMARK INTRA:                  -0.118
REMARK UNBOUND:                -0.118
REMARK  Name = 11527
REMARK  8 active torsions:
REMARK  status: ('A' for Active; 'I' for Inactive)
REMARK    1  A    between atoms: O_1  and  C_4
REMARK    2  A    between atoms: C_2  and  C_3
REMARK    3  A    between atoms: C_2  and  C_4
REMARK    4  A    between atoms: C_3  and  C_5
REMARK    5  A    between atoms: C_4  and  C_6
REMARK    6  A    between atoms: C_5  and  C_7
REMARK    7  A    between atoms: C_6  and  C_8
REMARK    8  A    between atoms: C_7  and  C_9
REMARK                            x       y       z     vdW  Elec       q    Type
REMARK                         _______ _______ _______ _____ _____    ______ ____
ROOT
ATOM      1  C   UNL     1      14.958   5.338  -0.770  0.00  0.00    +0.000 C 
ATOM      2  H   UNL     1      15.526   4.459  -0.436  0.00  0.00    +0.000 HD
ATOM      3  H   UNL     1      15.256   6.149  -0.094  0.00  0.00    +0.000 HD
ENDROOT
BRANCH   1   4
ATOM      4  C   UNL     1      15.359   5.702  -2.205  0.00  0.00    +0.000 C 
ATOM      5  H   UNL     1      14.567   6.302  -2.668  0.00  0.00    +0.000 HD
ATOM      6  H   UNL     1      15.479   4.794  -2.807  0.00  0.00    +0.000 HD
BRANCH   4   7
ATOM      7  C   UNL     1      16.676   6.484  -2.225  0.00  0.00    +0.000 C 
ATOM      8  H   UNL     1      17.409   5.944  -2.839  0.00  0.00    +0.000 HD
ATOM      9  H   UNL     1      17.086   6.527  -1.208  0.00  0.00    +0.000 HD
BRANCH   7  10
ATOM     10  C   UNL     1      16.528   7.909  -2.765  0.00  0.00    +0.000 C 
ATOM     11  H   UNL     1      15.841   7.903  -3.619  0.00  0.00    +0.000 HD
ATOM     12  H   UNL     1      16.074   8.542  -1.995  0.00  0.00    +0.000 HD
BRANCH  10  13
ATOM     13  C   UNL     1      17.845   8.533  -3.198  0.00  0.00    +0.000 C 
ATOM     14  H   UNL     1      17.916   9.563  -2.834  0.00  0.00    +0.000 HD
ATOM     15  H   UNL     1      17.930   8.550  -4.289  0.00  0.00    +0.000 HD
ATOM     16  H   UNL     1      18.694   7.971  -2.797  0.00  0.00    +0.000 HD
ENDBRANCH  10  13
ENDBRANCH   7  10
ENDBRANCH   4   7
ENDBRANCH   1   4
BRANCH   1  17
ATOM     17  C   UNL     1      13.458   5.070  -0.581  0.00  0.00    +0.000 C 
ATOM     18  H   UNL     1      13.076   4.541  -1.463  0.00  0.00    +0.000 HD
BRANCH  17  19
ATOM     19  C   UNL     1      13.145   4.240   0.668  0.00  0.00    +0.000 C 
ATOM     20  H   UNL     1      12.064   4.066   0.736  0.00  0.00    +0.000 HD
ATOM     21  H   UNL     1      13.453   4.774   1.573  0.00  0.00    +0.000 HD
BRANCH  19  22
ATOM     22  C   UNL     1      13.844   2.886   0.646  0.00  0.00    +0.000 C 
ATOM     23  H   UNL     1      13.770   2.391   1.620  0.00  0.00    +0.000 HD
ATOM     24  H   UNL     1      13.379   2.235  -0.100  0.00  0.00    +0.000 HD
ATOM     25  H   UNL     1      14.903   2.985   0.389  0.00  0.00    +0.000 HD
ENDBRANCH  19  22
ENDBRANCH  17  19
BRANCH  17  26
ATOM     26  O   UNL     1      12.755   6.308  -0.503  0.00  0.00    +0.000 OA
ATOM     27  H   UNL     1      12.451   6.530  -1.400  0.00  0.00    +0.000 HD
ENDBRANCH  17  26
ENDBRANCH   1  17
TORSDOF 8
ENDMDL
MODEL 9
REMARK VINA RESULT:    -3.833      2.279      4.337
REMARK INTER + INTRA:          -5.407
REMARK INTER:                  -4.936
REMARK INTRA:                  -0.471
REMARK UNBOUND:                -0.118
REMARK  Name = 11527
REMARK  8 active torsions:
REMARK  status: ('A' for Active; 'I' for Inactive)
REMARK    1  A    between atoms: O_1  and  C_4
REMARK    2  A    between atoms: C_2  and  C_3
REMARK    3  A    between atoms: C_2  and  C_4
REMARK    4  A    between atoms: C_3  and  C_5
REMARK    5  A    between atoms: C_4  and  C_6
REMARK    6  A    between atoms: C_5  and  C_7
REMARK    7  A    between atoms: C_6  and  C_8
REMARK    8  A    between atoms: C_7  and  C_9
REMARK                            x       y       z     vdW  Elec       q    Type
REMARK                         _______ _______ _______ _____ _____    ______ ____
ROOT
ATOM      1  C   UNL     1      17.175  -6.146  -2.620  0.00  0.00    +0.000 C 
ATOM      2  H   UNL     1      16.383  -6.898  -2.504  0.00  0.00    +0.000 HD
ATOM      3  H   UNL     1      18.061  -6.582  -2.141  0.00  0.00    +0.000 HD
ENDROOT
BRANCH   1   4
ATOM      4  C   UNL     1      17.464  -5.919  -4.109  0.00  0.00    +0.000 C 
ATOM      5  H   UNL     1      17.650  -4.854  -4.290  0.00  0.00    +0.000 HD
ATOM      6  H   UNL     1      16.596  -6.209  -4.711  0.00  0.00    +0.000 HD
BRANCH   4   7
ATOM      7  C   UNL     1      18.675  -6.739  -4.564  0.00  0.00    +0.000 C 
ATOM      8  H   UNL     1      18.816  -6.608  -5.645  0.00  0.00    +0.000 HD
ATOM      9  H   UNL     1      18.472  -7.804  -4.398  0.00  0.00    +0.000 HD
BRANCH   7  10
ATOM     10  C   UNL     1      19.971  -6.358  -3.843  0.00  0.00    +0.000 C 
ATOM     11  H   UNL     1      19.802  -6.377  -2.761  0.00  0.00    +0.000 HD
ATOM     12  H   UNL     1      20.739  -7.109  -4.059  0.00  0.00    +0.000 HD
BRANCH  10  13
ATOM     13  C   UNL     1      20.501  -4.988  -4.235  0.00  0.00    +0.000 C 
ATOM     14  H   UNL     1      21.583  -5.032  -4.400  0.00  0.00    +0.000 HD
ATOM     15  H   UNL     1      20.306  -4.254  -3.447  0.00  0.00    +0.000 HD
ATOM     16  H   UNL     1      20.030  -4.635  -5.157  0.00  0.00    +0.000 HD
ENDBRANCH  10  13
ENDBRANCH   7  10
ENDBRANCH   4   7
ENDBRANCH   1   4
BRANCH   1  17
ATOM     17  C   UNL     1      16.780  -4.877  -1.851  0.00  0.00    +0.000 C 
ATOM     18  H   UNL     1      16.736  -5.107  -0.779  0.00  0.00    +0.000 HD
BRANCH  17  19
ATOM     19  C   UNL     1      17.751  -3.711  -2.069  0.00  0.00    +0.000 C 
ATOM     20  H   UNL     1      17.191  -2.809  -2.342  0.00  0.00    +0.000 HD
ATOM     21  H   UNL     1      18.443  -3.934  -2.887  0.00  0.00    +0.000 HD
BRANCH  19  22
ATOM     22  C   UNL     1      18.566  -3.405  -0.819  0.00  0.00    +0.000 C 
ATOM     23  H   UNL     1      19.000  -4.320  -0.400  0.00  0.00    +0.000 HD
ATOM     24  H   UNL     1      19.386  -2.723  -1.063  0.00  0.00    +0.000 HD
ATOM     25  H   UNL     1      17.955  -2.928  -0.047  0.00  0.00    +0.000 HD
ENDBRANCH  19  22
ENDBRANCH  17  19
BRANCH  17  26
ATOM     26  O   UNL     1      15.470  -4.467  -2.240  0.00  0.00    +0.000 OA
ATOM     27  H   UNL     1      15.513  -3.524  -2.470  0.00  0.00    +0.000 HD
ENDBRANCH  17  26
ENDBRANCH   1  17
TORSDOF 8
ENDMDL
MODEL 10
REMARK VINA RESULT:    -3.793      2.213      4.023
REMARK INTER + INTRA:          -5.353
REMARK INTER:                  -5.141
REMARK INTRA:                  -0.211
REMARK UNBOUND:                -0.118
REMARK  Name = 11527
REMARK  8 active torsions:
REMARK  status: ('A' for Active; 'I' for Inactive)
REMARK    1  A    between atoms: O_1  and  C_4
REMARK    2  A    between atoms: C_2  and  C_3
REMARK    3  A    between atoms: C_2  and  C_4
REMARK    4  A    between atoms: C_3  and  C_5
REMARK    5  A    between atoms: C_4  and  C_6
REMARK    6  A    between atoms: C_5  and  C_7
REMARK    7  A    between atoms: C_6  and  C_8
REMARK    8  A    between atoms: C_7  and  C_9
REMARK                            x       y       z     vdW  Elec       q    Type
REMARK                         _______ _______ _______ _____ _____    ______ ____
ROOT
ATOM      1  C   UNL     1      17.402  -4.210  -1.390  0.00  0.00    +0.000 C 
ATOM      2  H   UNL     1      16.629  -3.917  -0.667  0.00  0.00    +0.000 HD
ATOM      3  H   UNL     1      17.895  -5.086  -0.948  0.00  0.00    +0.000 HD
ENDROOT
BRANCH   1   4
ATOM      4  C   UNL     1      16.749  -4.614  -2.717  0.00  0.00    +0.000 C 
ATOM      5  H   UNL     1      17.131  -3.978  -3.525  0.00  0.00    +0.000 HD
ATOM      6  H   UNL     1      15.665  -4.465  -2.666  0.00  0.00    +0.000 HD
BRANCH   4   7
ATOM      7  C   UNL     1      17.029  -6.084  -3.043  0.00  0.00    +0.000 C 
ATOM      8  H   UNL     1      16.099  -6.568  -3.367  0.00  0.00    +0.000 HD
ATOM      9  H   UNL     1      17.352  -6.600  -2.130  0.00  0.00    +0.000 HD
BRANCH   7  10
ATOM     10  C   UNL     1      18.092  -6.273  -4.127  0.00  0.00    +0.000 C 
ATOM     11  H   UNL     1      18.580  -5.313  -4.328  0.00  0.00    +0.000 HD
ATOM     12  H   UNL     1      18.868  -6.954  -3.759  0.00  0.00    +0.000 HD
BRANCH  10  13
ATOM     13  C   UNL     1      17.537  -6.825  -5.431  0.00  0.00    +0.000 C 
ATOM     14  H   UNL     1      16.918  -6.071  -5.930  0.00  0.00    +0.000 HD
ATOM     15  H   UNL     1      16.918  -7.708  -5.249  0.00  0.00    +0.000 HD
ATOM     16  H   UNL     1      18.346  -7.106  -6.113  0.00  0.00    +0.000 HD
ENDBRANCH  10  13
ENDBRANCH   7  10
ENDBRANCH   4   7
ENDBRANCH   1   4
BRANCH   1  17
ATOM     17  C   UNL     1      18.434  -3.079  -1.510  0.00  0.00    +0.000 C 
ATOM     18  H   UNL     1      17.906  -2.118  -1.554  0.00  0.00    +0.000 HD
BRANCH  17  19
ATOM     19  C   UNL     1      19.432  -3.044  -0.348  0.00  0.00    +0.000 C 
ATOM     20  H   UNL     1      19.848  -2.035  -0.248  0.00  0.00    +0.000 HD
ATOM     21  H   UNL     1      20.264  -3.731  -0.534  0.00  0.00    +0.000 HD
BRANCH  19  22
ATOM     22  C   UNL     1      18.781  -3.424   0.976  0.00  0.00    +0.000 C 
ATOM     23  H   UNL     1      18.705  -2.556   1.639  0.00  0.00    +0.000 HD
ATOM     24  H   UNL     1      17.771  -3.807   0.803  0.00  0.00    +0.000 HD
ATOM     25  H   UNL     1      19.348  -4.204   1.494  0.00  0.00    +0.000 HD
ENDBRANCH  19  22
ENDBRANCH  17  19
BRANCH  17  26
ATOM     26  O   UNL     1      19.153  -3.214  -2.735  0.00  0.00    +0.000 OA
ATOM     27  H   UNL     1      20.026  -3.586  -2.523  0.00  0.00    +0.000 HD
ENDBRANCH  17  26
ENDBRANCH   1  17
TORSDOF 8
ENDMDL
