MODEL 1
REMARK VINA RESULT:    -5.136      0.000      0.000
REMARK INTER + INTRA:          -6.819
REMARK INTER:                  -6.692
REMARK INTRA:                  -0.128
REMARK UNBOUND:                -0.332
REMARK  Name = 9862
REMARK  6 active torsions:
REMARK  status: ('A' for Active; 'I' for Inactive)
REMARK    1  A    between atoms: C_2  and  C_3
REMARK    2  A    between atoms: C_2  and  C_4
REMARK    3  A    between atoms: C_3  and  C_6
REMARK    4  A    between atoms: C_5  and  C_7
REMARK    5  A    between atoms: C_5  and  C_8
REMARK    6  A    between atoms: C_6  and  C_9
REMARK                            x       y       z     vdW  Elec       q    Type
REMARK                         _______ _______ _______ _____ _____    ______ ____
ROOT
ATOM      1  C   UNL     1       3.844  -6.804  -7.982  0.00  0.00    +0.000 C 
ATOM      2  H   UNL     1       3.978  -7.661  -7.311  0.00  0.00    +0.000 HD
ATOM      3  H   UNL     1       4.349  -5.965  -7.487  0.00  0.00    +0.000 HD
ENDROOT
BRANCH   1   4
ATOM      4  C   UNL     1       4.494  -7.081  -9.336  0.00  0.00    +0.000 C 
ATOM      5  H   UNL     1       3.743  -7.029 -10.133  0.00  0.00    +0.000 HD
ATOM      6  H   UNL     1       4.937  -8.083  -9.343  0.00  0.00    +0.000 HD
BRANCH   4   8
ATOM      7  O   UNL     1       5.513  -5.290 -10.601  0.00  0.00    +0.000 OA
ATOM      8  C   UNL     1       5.593  -6.088  -9.668  0.00  0.00    +0.000 C 
BRANCH   8   9
ATOM      9  C   UNL     1       6.811  -6.125  -8.782  0.00  0.00    +0.000 C 
ATOM     10  H   UNL     1       6.737  -5.342  -8.023  0.00  0.00    +0.000 HD
ATOM     11  H   UNL     1       6.875  -7.096  -8.282  0.00  0.00    +0.000 HD
ATOM     12  H   UNL     1       7.709  -5.980  -9.387  0.00  0.00    +0.000 HD
ENDBRANCH   8   9
ENDBRANCH   4   8
ENDBRANCH   1   4
BRANCH   1  13
ATOM     13  C   UNL     1       2.389  -6.461  -8.136  0.00  0.00    +0.000 C 
ATOM     14  C   UNL     1       1.583  -5.869  -7.234  0.00  0.00    +0.000 C 
ATOM     15  H   UNL     1       1.969  -6.727  -9.104  0.00  0.00    +0.000 HD
BRANCH  14  16
ATOM     16  C   UNL     1       0.149  -5.568  -7.576  0.00  0.00    +0.000 C 
ATOM     17  H   UNL     1      -0.256  -6.344  -8.233  0.00  0.00    +0.000 HD
ATOM     18  H   UNL     1       0.077  -4.604  -8.091  0.00  0.00    +0.000 HD
ATOM     19  H   UNL     1      -0.491  -5.517  -6.689  0.00  0.00    +0.000 HD
ENDBRANCH  14  16
BRANCH  14  20
ATOM     20  C   UNL     1       1.990  -5.466  -5.845  0.00  0.00    +0.000 C 
ATOM     21  H   UNL     1       2.815  -6.063  -5.449  0.00  0.00    +0.000 HD
ATOM     22  H   UNL     1       1.147  -5.587  -5.156  0.00  0.00    +0.000 HD
ATOM     23  H   UNL     1       2.298  -4.416  -5.832  0.00  0.00    +0.000 HD
ENDBRANCH  14  20
ENDBRANCH   1  13
TORSDOF 6
ENDMDL
MODEL 2
REMARK VINA RESULT:    -4.513      4.597      5.739
REMARK INTER + INTRA:          -6.033
REMARK INTER:                  -5.807
REMARK INTRA:                  -0.226
REMARK UNBOUND:                -0.332
REMARK  Name = 9862
REMARK  6 active torsions:
REMARK  status: ('A' for Active; 'I' for Inactive)
REMARK    1  A    between atoms: C_2  and  C_3
REMARK    2  A    between atoms: C_2  and  C_4
REMARK    3  A    between atoms: C_3  and  C_6
REMARK    4  A    between atoms: C_5  and  C_7
REMARK    5  A    between atoms: C_5  and  C_8
REMARK    6  A    between atoms: C_6  and  C_9
REMARK                            x       y       z     vdW  Elec       q    Type
REMARK                         _______ _______ _______ _____ _____    ______ ____
ROOT
ATOM      1  C   UNL     1       0.285  -4.168  -8.138  0.00  0.00    +0.000 C 
ATOM      2  H   UNL     1       1.373  -4.112  -8.012  0.00  0.00    +0.000 HD
ATOM      3  H   UNL     1       0.125  -4.350  -9.208  0.00  0.00    +0.000 HD
ENDROOT
BRANCH   1   4
ATOM      4  C   UNL     1      -0.288  -5.322  -7.319  0.00  0.00    +0.000 C 
ATOM      5  H   UNL     1       0.027  -6.282  -7.746  0.00  0.00    +0.000 HD
ATOM      6  H   UNL     1      -1.384  -5.283  -7.329  0.00  0.00    +0.000 HD
BRANCH   4   8
ATOM      7  O   UNL     1      -0.626  -5.337  -4.925  0.00  0.00    +0.000 OA
ATOM      8  C   UNL     1       0.161  -5.287  -5.869  0.00  0.00    +0.000 C 
BRANCH   8   9
ATOM      9  C   UNL     1       1.647  -5.189  -5.637  0.00  0.00    +0.000 C 
ATOM     10  H   UNL     1       1.988  -4.177  -5.871  0.00  0.00    +0.000 HD
ATOM     11  H   UNL     1       1.872  -5.406  -4.589  0.00  0.00    +0.000 HD
ATOM     12  H   UNL     1       2.165  -5.916  -6.268  0.00  0.00    +0.000 HD
ENDBRANCH   8   9
ENDBRANCH   4   8
ENDBRANCH   1   4
BRANCH   1  13
ATOM     13  C   UNL     1      -0.367  -2.865  -7.774  0.00  0.00    +0.000 C 
ATOM     14  C   UNL     1       0.080  -1.620  -8.029  0.00  0.00    +0.000 C 
ATOM     15  H   UNL     1      -1.316  -2.972  -7.251  0.00  0.00    +0.000 HD
BRANCH  14  16
ATOM     16  C   UNL     1      -0.730  -0.420  -7.618  0.00  0.00    +0.000 C 
ATOM     17  H   UNL     1      -1.634  -0.344  -8.231  0.00  0.00    +0.000 HD
ATOM     18  H   UNL     1      -0.143   0.495  -7.749  0.00  0.00    +0.000 HD
ATOM     19  H   UNL     1      -1.043  -0.466  -6.570  0.00  0.00    +0.000 HD
ENDBRANCH  14  16
BRANCH  14  20
ATOM     20  C   UNL     1       1.378  -1.291  -8.711  0.00  0.00    +0.000 C 
ATOM     21  H   UNL     1       1.923  -0.477  -8.228  0.00  0.00    +0.000 HD
ATOM     22  H   UNL     1       1.192  -0.983  -9.746  0.00  0.00    +0.000 HD
ATOM     23  H   UNL     1       2.029  -2.171  -8.724  0.00  0.00    +0.000 HD
ENDBRANCH  14  20
ENDBRANCH   1  13
TORSDOF 6
ENDMDL
MODEL 3
REMARK VINA RESULT:    -4.390      4.276      6.088
REMARK INTER + INTRA:          -5.877
REMARK INTER:                  -5.748
REMARK INTRA:                  -0.129
REMARK UNBOUND:                -0.332
REMARK  Name = 9862
REMARK  6 active torsions:
REMARK  status: ('A' for Active; 'I' for Inactive)
REMARK    1  A    between atoms: C_2  and  C_3
REMARK    2  A    between atoms: C_2  and  C_4
REMARK    3  A    between atoms: C_3  and  C_6
REMARK    4  A    between atoms: C_5  and  C_7
REMARK    5  A    between atoms: C_5  and  C_8
REMARK    6  A    between atoms: C_6  and  C_9
REMARK                            x       y       z     vdW  Elec       q    Type
REMARK                         _______ _______ _______ _____ _____    ______ ____
ROOT
ATOM      1  C   UNL     1       0.236  -2.922  -8.020  0.00  0.00    +0.000 C 
ATOM      2  H   UNL     1      -0.562  -3.139  -7.300  0.00  0.00    +0.000 HD
ATOM      3  H   UNL     1      -0.268  -2.811  -8.988  0.00  0.00    +0.000 HD
ENDROOT
BRANCH   1   4
ATOM      4  C   UNL     1       0.950  -1.624  -7.649  0.00  0.00    +0.000 C 
ATOM      5  H   UNL     1       1.740  -1.406  -8.378  0.00  0.00    +0.000 HD
ATOM      6  H   UNL     1       1.409  -1.716  -6.658  0.00  0.00    +0.000 HD
BRANCH   4   8
ATOM      7  O   UNL     1      -0.084   0.315  -6.640  0.00  0.00    +0.000 OA
ATOM      8  C   UNL     1       0.009  -0.432  -7.613  0.00  0.00    +0.000 C 
BRANCH   8   9
ATOM      9  C   UNL     1      -0.820  -0.203  -8.850  0.00  0.00    +0.000 C 
ATOM     10  H   UNL     1      -1.641   0.480  -8.618  0.00  0.00    +0.000 HD
ATOM     11  H   UNL     1      -0.199   0.243  -9.633  0.00  0.00    +0.000 HD
ATOM     12  H   UNL     1      -1.212  -1.157  -9.210  0.00  0.00    +0.000 HD
ENDBRANCH   8   9
ENDBRANCH   4   8
ENDBRANCH   1   4
BRANCH   1  13
ATOM     13  C   UNL     1       1.203  -4.067  -8.114  0.00  0.00    +0.000 C 
ATOM     14  C   UNL     1       0.957  -5.373  -7.895  0.00  0.00    +0.000 C 
ATOM     15  H   UNL     1       2.211  -3.776  -8.405  0.00  0.00    +0.000 HD
BRANCH  14  16
ATOM     16  C   UNL     1       2.048  -6.395  -8.073  0.00  0.00    +0.000 C 
ATOM     17  H   UNL     1       2.062  -6.760  -9.105  0.00  0.00    +0.000 HD
ATOM     18  H   UNL     1       1.881  -7.247  -7.405  0.00  0.00    +0.000 HD
ATOM     19  H   UNL     1       3.040  -5.990  -7.851  0.00  0.00    +0.000 HD
ENDBRANCH  14  16
BRANCH  14  20
ATOM     20  C   UNL     1      -0.364  -5.942  -7.460  0.00  0.00    +0.000 C 
ATOM     21  H   UNL     1      -0.352  -7.031  -7.362  0.00  0.00    +0.000 HD
ATOM     22  H   UNL     1      -1.140  -5.694  -8.192  0.00  0.00    +0.000 HD
ATOM     23  H   UNL     1      -0.654  -5.521  -6.492  0.00  0.00    +0.000 HD
ENDBRANCH  14  20
ENDBRANCH   1  13
TORSDOF 6
ENDMDL
MODEL 4
REMARK VINA RESULT:    -4.319     14.249     15.463
REMARK INTER + INTRA:          -5.787
REMARK INTER:                  -5.623
REMARK INTRA:                  -0.164
REMARK UNBOUND:                -0.332
REMARK  Name = 9862
REMARK  6 active torsions:
REMARK  status: ('A' for Active; 'I' for Inactive)
REMARK    1  A    between atoms: C_2  and  C_3
REMARK    2  A    between atoms: C_2  and  C_4
REMARK    3  A    between atoms: C_3  and  C_6
REMARK    4  A    between atoms: C_5  and  C_7
REMARK    5  A    between atoms: C_5  and  C_8
REMARK    6  A    between atoms: C_6  and  C_9
REMARK                            x       y       z     vdW  Elec       q    Type
REMARK                         _______ _______ _______ _____ _____    ______ ____
ROOT
ATOM      1  C   UNL     1      16.175  -5.166  -3.009  0.00  0.00    +0.000 C 
ATOM      2  H   UNL     1      15.476  -5.977  -3.241  0.00  0.00    +0.000 HD
ATOM      3  H   UNL     1      16.049  -4.433  -3.815  0.00  0.00    +0.000 HD
ENDROOT
BRANCH   1   4
ATOM      4  C   UNL     1      15.827  -4.531  -1.665  0.00  0.00    +0.000 C 
ATOM      5  H   UNL     1      14.756  -4.301  -1.621  0.00  0.00    +0.000 HD
ATOM      6  H   UNL     1      16.386  -3.597  -1.533  0.00  0.00    +0.000 HD
BRANCH   4   8
ATOM      7  O   UNL     1      17.001  -5.149   0.357  0.00  0.00    +0.000 OA
ATOM      8  C   UNL     1      16.156  -5.435  -0.490  0.00  0.00    +0.000 C 
BRANCH   8   9
ATOM      9  C   UNL     1      15.382  -6.725  -0.409  0.00  0.00    +0.000 C 
ATOM     10  H   UNL     1      15.647  -7.254   0.510  0.00  0.00    +0.000 HD
ATOM     11  H   UNL     1      14.309  -6.512  -0.398  0.00  0.00    +0.000 HD
ATOM     12  H   UNL     1      15.610  -7.345  -1.279  0.00  0.00    +0.000 HD
ENDBRANCH   8   9
ENDBRANCH   4   8
ENDBRANCH   1   4
BRANCH   1  13
ATOM     13  C   UNL     1      17.595  -5.655  -3.028  0.00  0.00    +0.000 C 
ATOM     14  C   UNL     1      18.219  -6.334  -4.011  0.00  0.00    +0.000 C 
ATOM     15  H   UNL     1      18.164  -5.408  -2.134  0.00  0.00    +0.000 HD
BRANCH  14  16
ATOM     16  C   UNL     1      19.668  -6.715  -3.872  0.00  0.00    +0.000 C 
ATOM     17  H   UNL     1      19.819  -7.752  -4.188  0.00  0.00    +0.000 HD
ATOM     18  H   UNL     1      19.986  -6.620  -2.829  0.00  0.00    +0.000 HD
ATOM     19  H   UNL     1      20.326  -6.085  -4.479  0.00  0.00    +0.000 HD
ENDBRANCH  14  16
BRANCH  14  20
ATOM     20  C   UNL     1      17.578  -6.780  -5.294  0.00  0.00    +0.000 C 
ATOM     21  H   UNL     1      18.017  -6.314  -6.179  0.00  0.00    +0.000 HD
ATOM     22  H   UNL     1      16.513  -6.523  -5.292  0.00  0.00    +0.000 HD
ATOM     23  H   UNL     1      17.671  -7.865  -5.404  0.00  0.00    +0.000 HD
ENDBRANCH  14  20
ENDBRANCH   1  13
TORSDOF 6
ENDMDL
MODEL 5
REMARK VINA RESULT:    -4.011     13.795     14.767
REMARK INTER + INTRA:          -5.398
REMARK INTER:                  -5.150
REMARK INTRA:                  -0.248
REMARK UNBOUND:                -0.332
REMARK  Name = 9862
REMARK  6 active torsions:
REMARK  status: ('A' for Active; 'I' for Inactive)
REMARK    1  A    between atoms: C_2  and  C_3
REMARK    2  A    between atoms: C_2  and  C_4
REMARK    3  A    between atoms: C_3  and  C_6
REMARK    4  A    between atoms: C_5  and  C_7
REMARK    5  A    between atoms: C_5  and  C_8
REMARK    6  A    between atoms: C_6  and  C_9
REMARK                            x       y       z     vdW  Elec       q    Type
REMARK                         _______ _______ _______ _____ _____    ______ ____
ROOT
ATOM      1  C   UNL     1      15.608  -6.307  -2.633  0.00  0.00    +0.000 C 
ATOM      2  H   UNL     1      14.725  -6.351  -3.281  0.00  0.00    +0.000 HD
ATOM      3  H   UNL     1      16.208  -7.186  -2.900  0.00  0.00    +0.000 HD
ENDROOT
BRANCH   1   4
ATOM      4  C   UNL     1      16.403  -5.031  -2.900  0.00  0.00    +0.000 C 
ATOM      5  H   UNL     1      16.620  -4.516  -1.957  0.00  0.00    +0.000 HD
ATOM      6  H   UNL     1      15.824  -4.353  -3.538  0.00  0.00    +0.000 HD
BRANCH   4   8
ATOM      7  O   UNL     1      18.743  -4.649  -3.374  0.00  0.00    +0.000 OA
ATOM      8  C   UNL     1      17.725  -5.303  -3.596  0.00  0.00    +0.000 C 
BRANCH   8   9
ATOM      9  C   UNL     1      17.731  -6.436  -4.590  0.00  0.00    +0.000 C 
ATOM     10  H   UNL     1      17.223  -6.122  -5.505  0.00  0.00    +0.000 HD
ATOM     11  H   UNL     1      18.762  -6.708  -4.833  0.00  0.00    +0.000 HD
ATOM     12  H   UNL     1      17.228  -7.304  -4.159  0.00  0.00    +0.000 HD
ENDBRANCH   8   9
ENDBRANCH   4   8
ENDBRANCH   1   4
BRANCH   1  13
ATOM     13  C   UNL     1      15.222  -6.415  -1.185  0.00  0.00    +0.000 C 
ATOM     14  C   UNL     1      16.005  -6.769  -0.148  0.00  0.00    +0.000 C 
ATOM     15  H   UNL     1      14.183  -6.162  -0.982  0.00  0.00    +0.000 HD
BRANCH  14  16
ATOM     16  C   UNL     1      15.453  -6.789   1.252  0.00  0.00    +0.000 C 
ATOM     17  H   UNL     1      15.346  -5.768   1.632  0.00  0.00    +0.000 HD
ATOM     18  H   UNL     1      16.128  -7.339   1.916  0.00  0.00    +0.000 HD
ATOM     19  H   UNL     1      14.470  -7.268   1.307  0.00  0.00    +0.000 HD
ENDBRANCH  14  16
BRANCH  14  20
ATOM     20  C   UNL     1      17.447  -7.176  -0.255  0.00  0.00    +0.000 C 
ATOM     21  H   UNL     1      18.103  -6.615   0.415  0.00  0.00    +0.000 HD
ATOM     22  H   UNL     1      17.811  -7.009  -1.274  0.00  0.00    +0.000 HD
ATOM     23  H   UNL     1      17.557  -8.240  -0.018  0.00  0.00    +0.000 HD
ENDBRANCH  14  20
ENDBRANCH   1  13
TORSDOF 6
ENDMDL
MODEL 6
REMARK VINA RESULT:    -3.798     13.626     16.063
REMARK INTER + INTRA:          -5.129
REMARK INTER:                  -4.950
REMARK INTRA:                  -0.180
REMARK UNBOUND:                -0.332
REMARK  Name = 9862
REMARK  6 active torsions:
REMARK  status: ('A' for Active; 'I' for Inactive)
REMARK    1  A    between atoms: C_2  and  C_3
REMARK    2  A    between atoms: C_2  and  C_4
REMARK    3  A    between atoms: C_3  and  C_6
REMARK    4  A    between atoms: C_5  and  C_7
REMARK    5  A    between atoms: C_5  and  C_8
REMARK    6  A    between atoms: C_6  and  C_9
REMARK                            x       y       z     vdW  Elec       q    Type
REMARK                         _______ _______ _______ _____ _____    ______ ____
ROOT
ATOM      1  C   UNL     1      18.257  -6.258  -2.702  0.00  0.00    +0.000 C 
ATOM      2  H   UNL     1      18.380  -5.532  -1.890  0.00  0.00    +0.000 HD
ATOM      3  H   UNL     1      18.196  -7.237  -2.211  0.00  0.00    +0.000 HD
ENDROOT
BRANCH   1   4
ATOM      4  C   UNL     1      16.970  -5.979  -3.476  0.00  0.00    +0.000 C 
ATOM      5  H   UNL     1      16.800  -6.765  -4.222  0.00  0.00    +0.000 HD
ATOM      6  H   UNL     1      17.044  -5.018  -3.997  0.00  0.00    +0.000 HD
BRANCH   4   8
ATOM      7  O   UNL     1      14.840  -6.749  -2.631  0.00  0.00    +0.000 OA
ATOM      8  C   UNL     1      15.750  -5.923  -2.575  0.00  0.00    +0.000 C 
BRANCH   8   9
ATOM      9  C   UNL     1      15.705  -4.785  -1.588  0.00  0.00    +0.000 C 
ATOM     10  H   UNL     1      15.420  -5.166  -0.604  0.00  0.00    +0.000 HD
ATOM     11  H   UNL     1      16.692  -4.321  -1.515  0.00  0.00    +0.000 HD
ATOM     12  H   UNL     1      14.985  -4.036  -1.925  0.00  0.00    +0.000 HD
ENDBRANCH   8   9
ENDBRANCH   4   8
ENDBRANCH   1   4
BRANCH   1  13
ATOM     13  C   UNL     1      19.452  -6.255  -3.613  0.00  0.00    +0.000 C 
ATOM     14  C   UNL     1      20.189  -5.196  -4.001  0.00  0.00    +0.000 C 
ATOM     15  H   UNL     1      19.735  -7.240  -3.978  0.00  0.00    +0.000 HD
BRANCH  14  16
ATOM     16  C   UNL     1      21.383  -5.387  -4.897  0.00  0.00    +0.000 C 
ATOM     17  H   UNL     1      22.282  -5.569  -4.298  0.00  0.00    +0.000 HD
ATOM     18  H   UNL     1      21.546  -4.491  -5.505  0.00  0.00    +0.000 HD
ATOM     19  H   UNL     1      21.263  -6.234  -5.580  0.00  0.00    +0.000 HD
ENDBRANCH  14  16
BRANCH  14  20
ATOM     20  C   UNL     1      19.920  -3.769  -3.616  0.00  0.00    +0.000 C 
ATOM     21  H   UNL     1      19.583  -3.658  -2.583  0.00  0.00    +0.000 HD
ATOM     22  H   UNL     1      19.137  -3.348  -4.256  0.00  0.00    +0.000 HD
ATOM     23  H   UNL     1      20.827  -3.168  -3.740  0.00  0.00    +0.000 HD
ENDBRANCH  14  20
ENDBRANCH   1  13
TORSDOF 6
ENDMDL
MODEL 7
REMARK VINA RESULT:    -3.777     14.665     16.293
REMARK INTER + INTRA:          -5.102
REMARK INTER:                  -4.936
REMARK INTRA:                  -0.166
REMARK UNBOUND:                -0.332
REMARK  Name = 9862
REMARK  6 active torsions:
REMARK  status: ('A' for Active; 'I' for Inactive)
REMARK    1  A    between atoms: C_2  and  C_3
REMARK    2  A    between atoms: C_2  and  C_4
REMARK    3  A    between atoms: C_3  and  C_6
REMARK    4  A    between atoms: C_5  and  C_7
REMARK    5  A    between atoms: C_5  and  C_8
REMARK    6  A    between atoms: C_6  and  C_9
REMARK                            x       y       z     vdW  Elec       q    Type
REMARK                         _______ _______ _______ _____ _____    ______ ____
ROOT
ATOM      1  C   UNL     1      -4.533 -14.605   2.516  0.00  0.00    +0.000 C 
ATOM      2  H   UNL     1      -4.495 -13.513   2.419  0.00  0.00    +0.000 HD
ATOM      3  H   UNL     1      -3.986 -14.834   3.440  0.00  0.00    +0.000 HD
ENDROOT
BRANCH   1   4
ATOM      4  C   UNL     1      -5.980 -15.079   2.634  0.00  0.00    +0.000 C 
ATOM      5  H   UNL     1      -6.162 -15.494   3.632  0.00  0.00    +0.000 HD
ATOM      6  H   UNL     1      -6.181 -15.861   1.893  0.00  0.00    +0.000 HD
BRANCH   4   8
ATOM      7  O   UNL     1      -7.627 -13.446   3.318  0.00  0.00    +0.000 OA
ATOM      8  C   UNL     1      -6.980 -13.959   2.406  0.00  0.00    +0.000 C 
BRANCH   8   9
ATOM      9  C   UNL     1      -7.146 -13.497   0.981  0.00  0.00    +0.000 C 
ATOM     10  H   UNL     1      -7.188 -12.405   0.954  0.00  0.00    +0.000 HD
ATOM     11  H   UNL     1      -6.294 -13.833   0.383  0.00  0.00    +0.000 HD
ATOM     12  H   UNL     1      -8.061 -13.921   0.563  0.00  0.00    +0.000 HD
ENDBRANCH   8   9
ENDBRANCH   4   8
ENDBRANCH   1   4
BRANCH   1  13
ATOM     13  C   UNL     1      -3.832 -15.274   1.369  0.00  0.00    +0.000 C 
ATOM     14  C   UNL     1      -2.550 -15.121   0.985  0.00  0.00    +0.000 C 
ATOM     15  H   UNL     1      -4.457 -15.965   0.807  0.00  0.00    +0.000 HD
BRANCH  14  16
ATOM     16  C   UNL     1      -2.003 -15.906  -0.177  0.00  0.00    +0.000 C 
ATOM     17  H   UNL     1      -1.256 -15.315  -0.716  0.00  0.00    +0.000 HD
ATOM     18  H   UNL     1      -2.809 -16.165  -0.871  0.00  0.00    +0.000 HD
ATOM     19  H   UNL     1      -1.524 -16.839   0.138  0.00  0.00    +0.000 HD
ENDBRANCH  14  16
BRANCH  14  20
ATOM     20  C   UNL     1      -1.561 -14.190   1.628  0.00  0.00    +0.000 C 
ATOM     21  H   UNL     1      -0.949 -14.674   2.393  0.00  0.00    +0.000 HD
ATOM     22  H   UNL     1      -2.086 -13.361   2.114  0.00  0.00    +0.000 HD
ATOM     23  H   UNL     1      -0.887 -13.776   0.871  0.00  0.00    +0.000 HD
ENDBRANCH  14  20
ENDBRANCH   1  13
TORSDOF 6
ENDMDL
MODEL 8
REMARK VINA RESULT:    -3.772     10.922     12.876
REMARK INTER + INTRA:          -5.097
REMARK INTER:                  -4.975
REMARK INTRA:                  -0.122
REMARK UNBOUND:                -0.332
REMARK  Name = 9862
REMARK  6 active torsions:
REMARK  status: ('A' for Active; 'I' for Inactive)
REMARK    1  A    between atoms: C_2  and  C_3
REMARK    2  A    between atoms: C_2  and  C_4
REMARK    3  A    between atoms: C_3  and  C_6
REMARK    4  A    between atoms: C_5  and  C_7
REMARK    5  A    between atoms: C_5  and  C_8
REMARK    6  A    between atoms: C_6  and  C_9
REMARK                            x       y       z     vdW  Elec       q    Type
REMARK                         _______ _______ _______ _____ _____    ______ ____
ROOT
ATOM      1  C   UNL     1      -6.967  -8.982 -14.351  0.00  0.00    +0.000 C 
ATOM      2  H   UNL     1      -5.900  -9.219 -14.436  0.00  0.00    +0.000 HD
ATOM      3  H   UNL     1      -7.466  -9.944 -14.176  0.00  0.00    +0.000 HD
ENDROOT
BRANCH   1   4
ATOM      4  C   UNL     1      -7.214  -8.043 -13.173  0.00  0.00    +0.000 C 
ATOM      5  H   UNL     1      -8.270  -8.073 -12.880  0.00  0.00    +0.000 HD
ATOM      6  H   UNL     1      -6.961  -7.014 -13.452  0.00  0.00    +0.000 HD
BRANCH   4   8
ATOM      7  O   UNL     1      -6.694  -9.315 -11.183  0.00  0.00    +0.000 OA
ATOM      8  C   UNL     1      -6.384  -8.408 -11.954  0.00  0.00    +0.000 C 
BRANCH   8   9
ATOM      9  C   UNL     1      -5.138  -7.591 -11.731  0.00  0.00    +0.000 C 
ATOM     10  H   UNL     1      -5.076  -7.298 -10.679  0.00  0.00    +0.000 HD
ATOM     11  H   UNL     1      -4.256  -8.185 -11.985  0.00  0.00    +0.000 HD
ATOM     12  H   UNL     1      -5.162  -6.704 -12.368  0.00  0.00    +0.000 HD
ENDBRANCH   8   9
ENDBRANCH   4   8
ENDBRANCH   1   4
BRANCH   1  13
ATOM     13  C   UNL     1      -7.493  -8.399 -15.632  0.00  0.00    +0.000 C 
ATOM     14  C   UNL     1      -6.934  -8.460 -16.856  0.00  0.00    +0.000 C 
ATOM     15  H   UNL     1      -8.444  -7.880 -15.527  0.00  0.00    +0.000 HD
BRANCH  14  16
ATOM     16  C   UNL     1      -7.626  -7.844 -18.041  0.00  0.00    +0.000 C 
ATOM     17  H   UNL     1      -7.494  -6.757 -18.035  0.00  0.00    +0.000 HD
ATOM     18  H   UNL     1      -8.698  -8.064 -18.011  0.00  0.00    +0.000 HD
ATOM     19  H   UNL     1      -7.237  -8.219 -18.994  0.00  0.00    +0.000 HD
ENDBRANCH  14  16
BRANCH  14  20
ATOM     20  C   UNL     1      -5.615  -9.107 -17.171  0.00  0.00    +0.000 C 
ATOM     21  H   UNL     1      -5.640  -9.712 -18.082  0.00  0.00    +0.000 HD
ATOM     22  H   UNL     1      -5.317  -9.772 -16.353  0.00  0.00    +0.000 HD
ATOM     23  H   UNL     1      -4.841  -8.344 -17.295  0.00  0.00    +0.000 HD
ENDBRANCH  14  20
ENDBRANCH   1  13
TORSDOF 6
ENDMDL
MODEL 9
REMARK VINA RESULT:    -3.762     17.055     18.896
REMARK INTER + INTRA:          -5.084
REMARK INTER:                  -4.689
REMARK INTRA:                  -0.394
REMARK UNBOUND:                -0.332
REMARK  Name = 9862
REMARK  6 active torsions:
REMARK  status: ('A' for Active; 'I' for Inactive)
REMARK    1  A    between atoms: C_2  and  C_3
REMARK    2  A    between atoms: C_2  and  C_4
REMARK    3  A    between atoms: C_3  and  C_6
REMARK    4  A    between atoms: C_5  and  C_7
REMARK    5  A    between atoms: C_5  and  C_8
REMARK    6  A    between atoms: C_6  and  C_9
REMARK                            x       y       z     vdW  Elec       q    Type
REMARK                         _______ _______ _______ _____ _____    ______ ____
ROOT
ATOM      1  C   UNL     1     -15.274  -5.964  -5.488  0.00  0.00    +0.000 C 
ATOM      2  H   UNL     1     -15.386  -4.882  -5.625  0.00  0.00    +0.000 HD
ATOM      3  H   UNL     1     -15.793  -6.420  -6.341  0.00  0.00    +0.000 HD
ENDROOT
BRANCH   1   4
ATOM      4  C   UNL     1     -13.798  -6.353  -5.504  0.00  0.00    +0.000 C 
ATOM      5  H   UNL     1     -13.434  -6.415  -6.537  0.00  0.00    +0.000 HD
ATOM      6  H   UNL     1     -13.661  -7.333  -5.031  0.00  0.00    +0.000 HD
BRANCH   4   8
ATOM      7  O   UNL     1     -12.132  -5.689  -3.882  0.00  0.00    +0.000 OA
ATOM      8  C   UNL     1     -12.925  -5.356  -4.763  0.00  0.00    +0.000 C 
BRANCH   8   9
ATOM      9  C   UNL     1     -13.077  -3.912  -5.165  0.00  0.00    +0.000 C 
ATOM     10  H   UNL     1     -12.341  -3.668  -5.935  0.00  0.00    +0.000 HD
ATOM     11  H   UNL     1     -14.080  -3.745  -5.568  0.00  0.00    +0.000 HD
ATOM     12  H   UNL     1     -12.936  -3.272  -4.291  0.00  0.00    +0.000 HD
ENDBRANCH   8   9
ENDBRANCH   4   8
ENDBRANCH   1   4
BRANCH   1  13
ATOM     13  C   UNL     1     -15.944  -6.421  -4.223  0.00  0.00    +0.000 C 
ATOM     14  C   UNL     1     -16.338  -5.664  -3.181  0.00  0.00    +0.000 C 
ATOM     15  H   UNL     1     -16.128  -7.492  -4.179  0.00  0.00    +0.000 HD
BRANCH  14  16
ATOM     16  C   UNL     1     -17.031  -6.292  -2.002  0.00  0.00    +0.000 C 
ATOM     17  H   UNL     1     -16.316  -6.475  -1.194  0.00  0.00    +0.000 HD
ATOM     18  H   UNL     1     -17.480  -7.249  -2.292  0.00  0.00    +0.000 HD
ATOM     19  H   UNL     1     -17.830  -5.660  -1.601  0.00  0.00    +0.000 HD
ENDBRANCH  14  16
BRANCH  14  20
ATOM     20  C   UNL     1     -16.135  -4.180  -3.065  0.00  0.00    +0.000 C 
ATOM     21  H   UNL     1     -15.107  -3.904  -2.817  0.00  0.00    +0.000 HD
ATOM     22  H   UNL     1     -16.776  -3.773  -2.275  0.00  0.00    +0.000 HD
ATOM     23  H   UNL     1     -16.397  -3.689  -4.008  0.00  0.00    +0.000 HD
ENDBRANCH  14  20
ENDBRANCH   1  13
TORSDOF 6
ENDMDL
MODEL 10
REMARK VINA RESULT:    -3.706     17.830     18.879
REMARK INTER + INTRA:          -5.013
REMARK INTER:                  -4.681
REMARK INTRA:                  -0.332
REMARK UNBOUND:                -0.332
REMARK  Name = 9862
REMARK  6 active torsions:
REMARK  status: ('A' for Active; 'I' for Inactive)
REMARK    1  A    between atoms: C_2  and  C_3
REMARK    2  A    between atoms: C_2  and  C_4
REMARK    3  A    between atoms: C_3  and  C_6
REMARK    4  A    between atoms: C_5  and  C_7
REMARK    5  A    between atoms: C_5  and  C_8
REMARK    6  A    between atoms: C_6  and  C_9
REMARK                            x       y       z     vdW  Elec       q    Type
REMARK                         _______ _______ _______ _____ _____    ______ ____
ROOT
ATOM      1  C   UNL     1      14.361   6.744  -1.765  0.00  0.00    +0.000 C 
ATOM      2  H   UNL     1      14.704   7.473  -1.021  0.00  0.00    +0.000 HD
ATOM      3  H   UNL     1      13.271   6.861  -1.806  0.00  0.00    +0.000 HD
ENDROOT
BRANCH   1   4
ATOM      4  C   UNL     1      14.971   7.049  -3.131  0.00  0.00    +0.000 C 
ATOM      5  H   UNL     1      14.181   7.156  -3.884  0.00  0.00    +0.000 HD
ATOM      6  H   UNL     1      15.634   6.232  -3.440  0.00  0.00    +0.000 HD
BRANCH   4   8
ATOM      7  O   UNL     1      15.303   9.430  -3.393  0.00  0.00    +0.000 OA
ATOM      8  C   UNL     1      15.788   8.330  -3.131  0.00  0.00    +0.000 C 
BRANCH   8   9
ATOM      9  C   UNL     1      17.248   8.186  -2.788  0.00  0.00    +0.000 C 
ATOM     10  H   UNL     1      17.630   9.138  -2.410  0.00  0.00    +0.000 HD
ATOM     11  H   UNL     1      17.372   7.423  -2.014  0.00  0.00    +0.000 HD
ATOM     12  H   UNL     1      17.805   7.882  -3.677  0.00  0.00    +0.000 HD
ENDBRANCH   8   9
ENDBRANCH   4   8
ENDBRANCH   1   4
BRANCH   1  13
ATOM     13  C   UNL     1      14.675   5.341  -1.330  0.00  0.00    +0.000 C 
ATOM     14  C   UNL     1      15.672   4.932  -0.523  0.00  0.00    +0.000 C 
ATOM     15  H   UNL     1      13.991   4.590  -1.722  0.00  0.00    +0.000 HD
BRANCH  14  16
ATOM     16  C   UNL     1      15.815   3.478  -0.163  0.00  0.00    +0.000 C 
ATOM     17  H   UNL     1      14.892   2.937  -0.396  0.00  0.00    +0.000 HD
ATOM     18  H   UNL     1      16.019   3.371   0.907  0.00  0.00    +0.000 HD
ATOM     19  H   UNL     1      16.630   2.990  -0.707  0.00  0.00    +0.000 HD
ENDBRANCH  14  16
BRANCH  14  20
ATOM     20  C   UNL     1      16.719   5.827   0.078  0.00  0.00    +0.000 C 
ATOM     21  H   UNL     1      16.767   5.760   1.168  0.00  0.00    +0.000 HD
ATOM     22  H   UNL     1      16.506   6.873  -0.169  0.00  0.00    +0.000 HD
ATOM     23  H   UNL     1      17.706   5.572  -0.319  0.00  0.00    +0.000 HD
ENDBRANCH  14  20
ENDBRANCH   1  13
TORSDOF 6
ENDMDL
