MODEL 1
REMARK VINA RESULT:    -4.955      0.000      0.000
REMARK INTER + INTRA:          -5.472
REMARK INTER:                  -5.389
REMARK INTRA:                  -0.083
REMARK UNBOUND:                -0.083
REMARK  Name = 7410
REMARK  2 active torsions:
REMARK  status: ('A' for Active; 'I' for Inactive)
REMARK    1  A    between atoms: C_2  and  C_5
REMARK    2  A    between atoms: C_5  and  C_9
REMARK                            x       y       z     vdW  Elec       q    Type
REMARK                         _______ _______ _______ _____ _____    ______ ____
ROOT
ATOM      1  C   UNL     1      17.341  -5.660  -3.222  0.00  0.00    +0.000 A 
ATOM      2  C   UNL     1      16.174  -6.364  -2.926  0.00  0.00    +0.000 A 
ATOM      3  C   UNL     1      17.713  -4.567  -2.439  0.00  0.00    +0.000 A 
ATOM      4  C   UNL     1      15.379  -5.975  -1.847  0.00  0.00    +0.000 A 
ATOM      5  C   UNL     1      16.918  -4.177  -1.361  0.00  0.00    +0.000 A 
ATOM      6  C   UNL     1      15.751  -4.882  -1.065  0.00  0.00    +0.000 A 
ATOM      7  H   UNL     1      15.844  -7.220  -3.505  0.00  0.00    +0.000 HD
ATOM      8  H   UNL     1      18.617  -4.003  -2.651  0.00  0.00    +0.000 HD
ATOM      9  H   UNL     1      14.471  -6.523  -1.616  0.00  0.00    +0.000 HD
ATOM     10  H   UNL     1      17.208  -3.326  -0.752  0.00  0.00    +0.000 HD
ATOM     11  H   UNL     1      15.132  -4.580  -0.225  0.00  0.00    +0.000 HD
ENDROOT
BRANCH   1  13
ATOM     12  O   UNL     1      19.377  -5.795  -4.438  0.00  0.00    +0.000 OA
ATOM     13  C   UNL     1      18.169  -6.064  -4.345  0.00  0.00    +0.000 C 
BRANCH  13  14
ATOM     14  C   UNL     1      17.540  -6.860  -5.476  0.00  0.00    +0.000 C 
ATOM     15  H   UNL     1      18.097  -7.785  -5.648  0.00  0.00    +0.000 HD
ATOM     16  H   UNL     1      17.582  -6.270  -6.398  0.00  0.00    +0.000 HD
ATOM     17  H   UNL     1      16.488  -7.065  -5.260  0.00  0.00    +0.000 HD
ENDBRANCH  13  14
ENDBRANCH   1  13
TORSDOF 2
ENDMDL
MODEL 2
REMARK VINA RESULT:    -4.840      2.056      3.457
REMARK INTER + INTRA:          -5.348
REMARK INTER:                  -5.263
REMARK INTRA:                  -0.085
REMARK UNBOUND:                -0.083
REMARK  Name = 7410
REMARK  2 active torsions:
REMARK  status: ('A' for Active; 'I' for Inactive)
REMARK    1  A    between atoms: C_2  and  C_5
REMARK    2  A    between atoms: C_5  and  C_9
REMARK                            x       y       z     vdW  Elec       q    Type
REMARK                         _______ _______ _______ _____ _____    ______ ____
ROOT
ATOM      1  C   UNL     1      17.272  -5.121  -2.840  0.00  0.00    +0.000 A 
ATOM      2  C   UNL     1      17.779  -6.117  -3.675  0.00  0.00    +0.000 A 
ATOM      3  C   UNL     1      18.025  -3.975  -2.585  0.00  0.00    +0.000 A 
ATOM      4  C   UNL     1      19.039  -5.966  -4.254  0.00  0.00    +0.000 A 
ATOM      5  C   UNL     1      19.285  -3.825  -3.164  0.00  0.00    +0.000 A 
ATOM      6  C   UNL     1      19.792  -4.820  -3.999  0.00  0.00    +0.000 A 
ATOM      7  H   UNL     1      17.231  -7.025  -3.903  0.00  0.00    +0.000 HD
ATOM      8  H   UNL     1      17.650  -3.187  -1.938  0.00  0.00    +0.000 HD
ATOM      9  H   UNL     1      19.434  -6.741  -4.905  0.00  0.00    +0.000 HD
ATOM     10  H   UNL     1      19.871  -2.933  -2.965  0.00  0.00    +0.000 HD
ATOM     11  H   UNL     1      20.773  -4.703  -4.450  0.00  0.00    +0.000 HD
ENDROOT
BRANCH   1  13
ATOM     12  O   UNL     1      15.465  -4.456  -1.447  0.00  0.00    +0.000 OA
ATOM     13  C   UNL     1      15.959  -5.277  -2.237  0.00  0.00    +0.000 C 
BRANCH  13  14
ATOM     14  C   UNL     1      15.132  -6.505  -2.578  0.00  0.00    +0.000 C 
ATOM     15  H   UNL     1      14.205  -6.214  -3.079  0.00  0.00    +0.000 HD
ATOM     16  H   UNL     1      14.860  -7.024  -1.653  0.00  0.00    +0.000 HD
ATOM     17  H   UNL     1      15.713  -7.199  -3.191  0.00  0.00    +0.000 HD
ENDBRANCH  13  14
ENDBRANCH   1  13
TORSDOF 2
ENDMDL
MODEL 3
REMARK VINA RESULT:    -4.708     36.786     38.720
REMARK INTER + INTRA:          -5.203
REMARK INTER:                  -5.134
REMARK INTRA:                  -0.070
REMARK UNBOUND:                -0.083
REMARK  Name = 7410
REMARK  2 active torsions:
REMARK  status: ('A' for Active; 'I' for Inactive)
REMARK    1  A    between atoms: C_2  and  C_5
REMARK    2  A    between atoms: C_5  and  C_9
REMARK                            x       y       z     vdW  Elec       q    Type
REMARK                         _______ _______ _______ _____ _____    ______ ____
ROOT
ATOM      1  C   UNL     1      -5.234   4.680  26.937  0.00  0.00    +0.000 A 
ATOM      2  C   UNL     1      -3.888   5.004  27.107  0.00  0.00    +0.000 A 
ATOM      3  C   UNL     1      -5.755   4.513  25.654  0.00  0.00    +0.000 A 
ATOM      4  C   UNL     1      -3.063   5.161  25.993  0.00  0.00    +0.000 A 
ATOM      5  C   UNL     1      -4.930   4.671  24.540  0.00  0.00    +0.000 A 
ATOM      6  C   UNL     1      -3.584   4.995  24.710  0.00  0.00    +0.000 A 
ATOM      7  H   UNL     1      -3.438   5.143  28.084  0.00  0.00    +0.000 HD
ATOM      8  H   UNL     1      -6.800   4.261  25.498  0.00  0.00    +0.000 HD
ATOM      9  H   UNL     1      -2.015   5.414  26.124  0.00  0.00    +0.000 HD
ATOM     10  H   UNL     1      -5.336   4.541  23.541  0.00  0.00    +0.000 HD
ATOM     11  H   UNL     1      -2.942   5.118  23.843  0.00  0.00    +0.000 HD
ENDROOT
BRANCH   1  13
ATOM     12  O   UNL     1      -6.291   3.425  28.656  0.00  0.00    +0.000 OA
ATOM     13  C   UNL     1      -6.094   4.515  28.097  0.00  0.00    +0.000 C 
BRANCH  13  14
ATOM     14  C   UNL     1      -6.798   5.733  28.672  0.00  0.00    +0.000 C 
ATOM     15  H   UNL     1      -7.521   5.432  29.434  0.00  0.00    +0.000 HD
ATOM     16  H   UNL     1      -7.349   6.240  27.872  0.00  0.00    +0.000 HD
ATOM     17  H   UNL     1      -6.069   6.442  29.074  0.00  0.00    +0.000 HD
ENDBRANCH  13  14
ENDBRANCH   1  13
TORSDOF 2
ENDMDL
MODEL 4
REMARK VINA RESULT:    -4.689     25.644     27.001
REMARK INTER + INTRA:          -5.183
REMARK INTER:                  -5.105
REMARK INTRA:                  -0.079
REMARK UNBOUND:                -0.083
REMARK  Name = 7410
REMARK  2 active torsions:
REMARK  status: ('A' for Active; 'I' for Inactive)
REMARK    1  A    between atoms: C_2  and  C_5
REMARK    2  A    between atoms: C_5  and  C_9
REMARK                            x       y       z     vdW  Elec       q    Type
REMARK                         _______ _______ _______ _____ _____    ______ ____
ROOT
ATOM      1  C   UNL     1      -7.230 -13.938   4.123  0.00  0.00    +0.000 A 
ATOM      2  C   UNL     1      -7.686 -15.257   4.124  0.00  0.00    +0.000 A 
ATOM      3  C   UNL     1      -7.379 -13.149   5.263  0.00  0.00    +0.000 A 
ATOM      4  C   UNL     1      -8.290 -15.785   5.265  0.00  0.00    +0.000 A 
ATOM      5  C   UNL     1      -7.982 -13.677   6.405  0.00  0.00    +0.000 A 
ATOM      6  C   UNL     1      -8.438 -14.996   6.405  0.00  0.00    +0.000 A 
ATOM      7  H   UNL     1      -7.593 -15.909   3.262  0.00  0.00    +0.000 HD
ATOM      8  H   UNL     1      -7.032 -12.119   5.285  0.00  0.00    +0.000 HD
ATOM      9  H   UNL     1      -8.644 -16.812   5.266  0.00  0.00    +0.000 HD
ATOM     10  H   UNL     1      -8.098 -13.063   7.292  0.00  0.00    +0.000 HD
ATOM     11  H   UNL     1      -8.908 -15.407   7.293  0.00  0.00    +0.000 HD
ENDROOT
BRANCH   1  13
ATOM     12  O   UNL     1      -5.604 -12.650   2.966  0.00  0.00    +0.000 OA
ATOM     13  C   UNL     1      -6.602 -13.387   2.935  0.00  0.00    +0.000 C 
BRANCH  13  14
ATOM     14  C   UNL     1      -7.183 -13.720   1.571  0.00  0.00    +0.000 C 
ATOM     15  H   UNL     1      -6.481 -14.326   0.994  0.00  0.00    +0.000 HD
ATOM     16  H   UNL     1      -7.354 -12.791   1.016  0.00  0.00    +0.000 HD
ATOM     17  H   UNL     1      -8.147 -14.224   1.679  0.00  0.00    +0.000 HD
ENDBRANCH  13  14
ENDBRANCH   1  13
TORSDOF 2
ENDMDL
MODEL 5
REMARK VINA RESULT:    -4.613     26.031     27.195
REMARK INTER + INTRA:          -5.101
REMARK INTER:                  -5.016
REMARK INTRA:                  -0.084
REMARK UNBOUND:                -0.083
REMARK  Name = 7410
REMARK  2 active torsions:
REMARK  status: ('A' for Active; 'I' for Inactive)
REMARK    1  A    between atoms: C_2  and  C_5
REMARK    2  A    between atoms: C_5  and  C_9
REMARK                            x       y       z     vdW  Elec       q    Type
REMARK                         _______ _______ _______ _____ _____    ______ ____
ROOT
ATOM      1  C   UNL     1      -7.480 -14.527   3.562  0.00  0.00    +0.000 A 
ATOM      2  C   UNL     1      -7.496 -13.248   4.120  0.00  0.00    +0.000 A 
ATOM      3  C   UNL     1      -7.812 -15.632   4.344  0.00  0.00    +0.000 A 
ATOM      4  C   UNL     1      -7.843 -13.076   5.460  0.00  0.00    +0.000 A 
ATOM      5  C   UNL     1      -8.159 -15.461   5.685  0.00  0.00    +0.000 A 
ATOM      6  C   UNL     1      -8.175 -14.182   6.242  0.00  0.00    +0.000 A 
ATOM      7  H   UNL     1      -7.245 -12.358   3.552  0.00  0.00    +0.000 HD
ATOM      8  H   UNL     1      -7.807 -16.638   3.931  0.00  0.00    +0.000 HD
ATOM      9  H   UNL     1      -7.855 -12.081   5.895  0.00  0.00    +0.000 HD
ATOM     10  H   UNL     1      -8.418 -16.322   6.294  0.00  0.00    +0.000 HD
ATOM     11  H   UNL     1      -8.445 -14.048   7.286  0.00  0.00    +0.000 HD
ENDROOT
BRANCH   1  13
ATOM     12  O   UNL     1      -6.793 -15.799   1.677  0.00  0.00    +0.000 OA
ATOM     13  C   UNL     1      -7.119 -14.706   2.166  0.00  0.00    +0.000 C 
BRANCH  13  14
ATOM     14  C   UNL     1      -7.134 -13.502   1.239  0.00  0.00    +0.000 C 
ATOM     15  H   UNL     1      -6.215 -13.462   0.650  0.00  0.00    +0.000 HD
ATOM     16  H   UNL     1      -7.185 -12.587   1.840  0.00  0.00    +0.000 HD
ATOM     17  H   UNL     1      -8.018 -13.527   0.596  0.00  0.00    +0.000 HD
ENDBRANCH  13  14
ENDBRANCH   1  13
TORSDOF 2
ENDMDL
MODEL 6
REMARK VINA RESULT:    -4.516     10.256     11.584
REMARK INTER + INTRA:          -4.995
REMARK INTER:                  -4.918
REMARK INTRA:                  -0.077
REMARK UNBOUND:                -0.083
REMARK  Name = 7410
REMARK  2 active torsions:
REMARK  status: ('A' for Active; 'I' for Inactive)
REMARK    1  A    between atoms: C_2  and  C_5
REMARK    2  A    between atoms: C_5  and  C_9
REMARK                            x       y       z     vdW  Elec       q    Type
REMARK                         _______ _______ _______ _____ _____    ______ ____
ROOT
ATOM      1  C   UNL     1      14.292   5.303  -0.768  0.00  0.00    +0.000 A 
ATOM      2  C   UNL     1      15.392   4.444  -0.755  0.00  0.00    +0.000 A 
ATOM      3  C   UNL     1      13.122   4.947  -0.099  0.00  0.00    +0.000 A 
ATOM      4  C   UNL     1      15.319   3.229  -0.073  0.00  0.00    +0.000 A 
ATOM      5  C   UNL     1      13.049   3.732   0.583  0.00  0.00    +0.000 A 
ATOM      6  C   UNL     1      14.148   2.873   0.596  0.00  0.00    +0.000 A 
ATOM      7  H   UNL     1      16.323   4.677  -1.260  0.00  0.00    +0.000 HD
ATOM      8  H   UNL     1      12.253   5.600  -0.095  0.00  0.00    +0.000 HD
ATOM      9  H   UNL     1      16.174   2.560  -0.062  0.00  0.00    +0.000 HD
ATOM     10  H   UNL     1      12.137   3.455   1.104  0.00  0.00    +0.000 HD
ATOM     11  H   UNL     1      14.092   1.928   1.127  0.00  0.00    +0.000 HD
ENDROOT
BRANCH   1  13
ATOM     12  O   UNL     1      13.970   7.645  -1.006  0.00  0.00    +0.000 OA
ATOM     13  C   UNL     1      14.367   6.568  -1.478  0.00  0.00    +0.000 C 
BRANCH  13  14
ATOM     14  C   UNL     1      14.961   6.595  -2.877  0.00  0.00    +0.000 C 
ATOM     15  H   UNL     1      14.569   7.444  -3.442  0.00  0.00    +0.000 HD
ATOM     16  H   UNL     1      14.674   5.680  -3.407  0.00  0.00    +0.000 HD
ATOM     17  H   UNL     1      16.053   6.622  -2.827  0.00  0.00    +0.000 HD
ENDBRANCH  13  14
ENDBRANCH   1  13
TORSDOF 2
ENDMDL
MODEL 7
REMARK VINA RESULT:    -4.470      1.722      2.536
REMARK INTER + INTRA:          -4.945
REMARK INTER:                  -4.860
REMARK INTRA:                  -0.085
REMARK UNBOUND:                -0.083
REMARK  Name = 7410
REMARK  2 active torsions:
REMARK  status: ('A' for Active; 'I' for Inactive)
REMARK    1  A    between atoms: C_2  and  C_5
REMARK    2  A    between atoms: C_5  and  C_9
REMARK                            x       y       z     vdW  Elec       q    Type
REMARK                         _______ _______ _______ _____ _____    ______ ____
ROOT
ATOM      1  C   UNL     1      17.879  -4.487  -2.479  0.00  0.00    +0.000 A 
ATOM      2  C   UNL     1      17.609  -5.488  -3.413  0.00  0.00    +0.000 A 
ATOM      3  C   UNL     1      16.952  -4.201  -1.477  0.00  0.00    +0.000 A 
ATOM      4  C   UNL     1      16.412  -6.201  -3.344  0.00  0.00    +0.000 A 
ATOM      5  C   UNL     1      15.755  -4.914  -1.408  0.00  0.00    +0.000 A 
ATOM      6  C   UNL     1      15.485  -5.915  -2.342  0.00  0.00    +0.000 A 
ATOM      7  H   UNL     1      18.298  -5.746  -4.209  0.00  0.00    +0.000 HD
ATOM      8  H   UNL     1      17.141  -3.426  -0.739  0.00  0.00    +0.000 HD
ATOM      9  H   UNL     1      16.201  -6.980  -4.071  0.00  0.00    +0.000 HD
ATOM     10  H   UNL     1      15.033  -4.691  -0.628  0.00  0.00    +0.000 HD
ATOM     11  H   UNL     1      14.554  -6.470  -2.289  0.00  0.00    +0.000 HD
ENDROOT
BRANCH   1  13
ATOM     12  O   UNL     1      19.525  -2.989  -1.650  0.00  0.00    +0.000 OA
ATOM     13  C   UNL     1      19.125  -3.744  -2.550  0.00  0.00    +0.000 C 
BRANCH  13  14
ATOM     14  C   UNL     1      19.999  -3.885  -3.785  0.00  0.00    +0.000 C 
ATOM     15  H   UNL     1      20.303  -4.926  -3.920  0.00  0.00    +0.000 HD
ATOM     16  H   UNL     1      20.908  -3.288  -3.653  0.00  0.00    +0.000 HD
ATOM     17  H   UNL     1      19.477  -3.506  -4.667  0.00  0.00    +0.000 HD
ENDBRANCH  13  14
ENDBRANCH   1  13
TORSDOF 2
ENDMDL
MODEL 8
REMARK VINA RESULT:    -4.385     21.689     21.922
REMARK INTER + INTRA:          -4.852
REMARK INTER:                  -4.767
REMARK INTRA:                  -0.085
REMARK UNBOUND:                -0.083
REMARK  Name = 7410
REMARK  2 active torsions:
REMARK  status: ('A' for Active; 'I' for Inactive)
REMARK    1  A    between atoms: C_2  and  C_5
REMARK    2  A    between atoms: C_5  and  C_9
REMARK                            x       y       z     vdW  Elec       q    Type
REMARK                         _______ _______ _______ _____ _____    ______ ____
ROOT
ATOM      1  C   UNL     1      -1.705 -16.296  -0.075  0.00  0.00    +0.000 A 
ATOM      2  C   UNL     1      -2.116 -15.065   0.436  0.00  0.00    +0.000 A 
ATOM      3  C   UNL     1      -0.972 -17.172   0.724  0.00  0.00    +0.000 A 
ATOM      4  C   UNL     1      -1.794 -14.711   1.746  0.00  0.00    +0.000 A 
ATOM      5  C   UNL     1      -0.649 -16.819   2.035  0.00  0.00    +0.000 A 
ATOM      6  C   UNL     1      -1.061 -15.587   2.546  0.00  0.00    +0.000 A 
ATOM      7  H   UNL     1      -2.688 -14.350  -0.147  0.00  0.00    +0.000 HD
ATOM      8  H   UNL     1      -0.641 -18.137   0.347  0.00  0.00    +0.000 HD
ATOM      9  H   UNL     1      -2.114 -13.752   2.145  0.00  0.00    +0.000 HD
ATOM     10  H   UNL     1      -0.079 -17.501   2.657  0.00  0.00    +0.000 HD
ATOM     11  H   UNL     1      -0.810 -15.312   3.566  0.00  0.00    +0.000 HD
ENDROOT
BRANCH   1  13
ATOM     12  O   UNL     1      -1.771 -17.770  -1.938  0.00  0.00    +0.000 OA
ATOM     13  C   UNL     1      -2.040 -16.665  -1.440  0.00  0.00    +0.000 C 
BRANCH  13  14
ATOM     14  C   UNL     1      -2.759 -15.657  -2.321  0.00  0.00    +0.000 C 
ATOM     15  H   UNL     1      -2.852 -14.698  -1.807  0.00  0.00    +0.000 HD
ATOM     16  H   UNL     1      -3.771 -16.021  -2.532  0.00  0.00    +0.000 HD
ATOM     17  H   UNL     1      -2.240 -15.547  -3.277  0.00  0.00    +0.000 HD
ENDBRANCH  13  14
ENDBRANCH   1  13
TORSDOF 2
ENDMDL
MODEL 9
REMARK VINA RESULT:    -4.271     36.852     37.985
REMARK INTER + INTRA:          -4.728
REMARK INTER:                  -4.643
REMARK INTRA:                  -0.085
REMARK UNBOUND:                -0.083
REMARK  Name = 7410
REMARK  2 active torsions:
REMARK  status: ('A' for Active; 'I' for Inactive)
REMARK    1  A    between atoms: C_2  and  C_5
REMARK    2  A    between atoms: C_5  and  C_9
REMARK                            x       y       z     vdW  Elec       q    Type
REMARK                         _______ _______ _______ _____ _____    ______ ____
ROOT
ATOM      1  C   UNL     1      -3.636   5.053  26.882  0.00  0.00    +0.000 A 
ATOM      2  C   UNL     1      -3.314   4.997  25.525  0.00  0.00    +0.000 A 
ATOM      3  C   UNL     1      -4.957   4.874  27.293  0.00  0.00    +0.000 A 
ATOM      4  C   UNL     1      -4.313   4.762  24.581  0.00  0.00    +0.000 A 
ATOM      5  C   UNL     1      -5.956   4.639  26.348  0.00  0.00    +0.000 A 
ATOM      6  C   UNL     1      -5.634   4.583  24.992  0.00  0.00    +0.000 A 
ATOM      7  H   UNL     1      -2.302   5.131  25.158  0.00  0.00    +0.000 HD
ATOM      8  H   UNL     1      -5.231   4.913  28.344  0.00  0.00    +0.000 HD
ATOM      9  H   UNL     1      -4.064   4.719  23.525  0.00  0.00    +0.000 HD
ATOM     10  H   UNL     1      -6.984   4.499  26.668  0.00  0.00    +0.000 HD
ATOM     11  H   UNL     1      -6.412   4.400  24.256  0.00  0.00    +0.000 HD
ENDROOT
BRANCH   1  13
ATOM     12  O   UNL     1      -2.774   5.204  29.091  0.00  0.00    +0.000 OA
ATOM     13  C   UNL     1      -2.596   5.298  27.866  0.00  0.00    +0.000 C 
BRANCH  13  14
ATOM     14  C   UNL     1      -1.208   5.692  27.390  0.00  0.00    +0.000 C 
ATOM     15  H   UNL     1      -1.014   6.746  27.605  0.00  0.00    +0.000 HD
ATOM     16  H   UNL     1      -1.149   5.558  26.304  0.00  0.00    +0.000 HD
ATOM     17  H   UNL     1      -0.450   5.048  27.845  0.00  0.00    +0.000 HD
ENDBRANCH  13  14
ENDBRANCH   1  13
TORSDOF 2
ENDMDL
MODEL 10
REMARK VINA RESULT:    -4.180     25.528     26.528
REMARK INTER + INTRA:          -4.629
REMARK INTER:                  -4.546
REMARK INTRA:                  -0.083
REMARK UNBOUND:                -0.083
REMARK  Name = 7410
REMARK  2 active torsions:
REMARK  status: ('A' for Active; 'I' for Inactive)
REMARK    1  A    between atoms: C_2  and  C_5
REMARK    2  A    between atoms: C_5  and  C_9
REMARK                            x       y       z     vdW  Elec       q    Type
REMARK                         _______ _______ _______ _____ _____    ______ ____
ROOT
ATOM      1  C   UNL     1      -6.023 -14.908   5.131  0.00  0.00    +0.000 A 
ATOM      2  C   UNL     1      -6.063 -13.693   4.447  0.00  0.00    +0.000 A 
ATOM      3  C   UNL     1      -7.075 -15.269   5.972  0.00  0.00    +0.000 A 
ATOM      4  C   UNL     1      -7.154 -12.839   4.605  0.00  0.00    +0.000 A 
ATOM      5  C   UNL     1      -8.167 -14.415   6.130  0.00  0.00    +0.000 A 
ATOM      6  C   UNL     1      -8.207 -13.200   5.446  0.00  0.00    +0.000 A 
ATOM      7  H   UNL     1      -5.269 -13.369   3.782  0.00  0.00    +0.000 HD
ATOM      8  H   UNL     1      -7.066 -16.210   6.515  0.00  0.00    +0.000 HD
ATOM      9  H   UNL     1      -7.186 -11.893   4.072  0.00  0.00    +0.000 HD
ATOM     10  H   UNL     1      -8.986 -14.696   6.785  0.00  0.00    +0.000 HD
ATOM     11  H   UNL     1      -9.056 -12.535   5.569  0.00  0.00    +0.000 HD
ENDROOT
BRANCH   1  13
ATOM     12  O   UNL     1      -4.153 -15.797   3.965  0.00  0.00    +0.000 OA
ATOM     13  C   UNL     1      -4.886 -15.798   4.967  0.00  0.00    +0.000 C 
BRANCH  13  14
ATOM     14  C   UNL     1      -4.562 -16.791   6.070  0.00  0.00    +0.000 C 
ATOM     15  H   UNL     1      -4.460 -16.277   7.029  0.00  0.00    +0.000 HD
ATOM     16  H   UNL     1      -3.604 -17.274   5.848  0.00  0.00    +0.000 HD
ATOM     17  H   UNL     1      -5.325 -17.573   6.117  0.00  0.00    +0.000 HD
ENDBRANCH  13  14
ENDBRANCH   1  13
TORSDOF 2
ENDMDL
