MODEL 1
REMARK VINA RESULT:    -2.321      0.000      0.000
REMARK INTER + INTRA:          -2.389
REMARK INTER:                  -2.389
REMARK INTRA:                   0.000
REMARK UNBOUND:                 0.000
REMARK  Name = 177
REMARK  1 active torsions:
REMARK  status: ('A' for Active; 'I' for Inactive)
REMARK    1  A    between atoms: C_2  and  C_3
REMARK                            x       y       z     vdW  Elec       q    Type
REMARK                         _______ _______ _______ _____ _____    ______ ____
ROOT
ATOM      1  C   UNL     1       6.876  -6.085  -8.716  0.00  0.00    +0.000 C 
ATOM      2  H   UNL     1       6.100  -6.079  -7.948  0.00  0.00    +0.000 HD
ATOM      3  H   UNL     1       7.836  -6.340  -8.260  0.00  0.00    +0.000 HD
ATOM      4  H   UNL     1       6.944  -5.097  -9.178  0.00  0.00    +0.000 HD
ENDROOT
BRANCH   1   6
ATOM      5  O   UNL     1       6.073  -8.206  -9.509  0.00  0.00    +0.000 OA
ATOM      6  C   UNL     1       6.521  -7.093  -9.765  0.00  0.00    +0.000 C 
ATOM      7  H   UNL     1       6.687  -6.775 -10.808  0.00  0.00    +0.000 HD
ENDBRANCH   1   6
TORSDOF 1
ENDMDL
MODEL 2
REMARK VINA RESULT:    -2.309      1.936      1.936
REMARK INTER + INTRA:          -2.377
REMARK INTER:                  -2.377
REMARK INTRA:                   0.000
REMARK UNBOUND:                 0.000
REMARK  Name = 177
REMARK  1 active torsions:
REMARK  status: ('A' for Active; 'I' for Inactive)
REMARK    1  A    between atoms: C_2  and  C_3
REMARK                            x       y       z     vdW  Elec       q    Type
REMARK                         _______ _______ _______ _____ _____    ______ ____
ROOT
ATOM      1  C   UNL     1       6.836  -6.041  -8.732  0.00  0.00    +0.000 C 
ATOM      2  H   UNL     1       6.471  -5.267  -8.053  0.00  0.00    +0.000 HD
ATOM      3  H   UNL     1       6.942  -6.982  -8.186  0.00  0.00    +0.000 HD
ATOM      4  H   UNL     1       7.807  -5.746  -9.139  0.00  0.00    +0.000 HD
ENDROOT
BRANCH   1   6
ATOM      5  O   UNL     1       5.508  -5.284 -10.585  0.00  0.00    +0.000 OA
ATOM      6  C   UNL     1       5.863  -6.206  -9.858  0.00  0.00    +0.000 C 
ATOM      7  H   UNL     1       5.470  -7.226 -10.003  0.00  0.00    +0.000 HD
ENDBRANCH   1   6
TORSDOF 1
ENDMDL
MODEL 3
REMARK VINA RESULT:    -2.151     12.614     12.792
REMARK INTER + INTRA:          -2.214
REMARK INTER:                  -2.214
REMARK INTRA:                   0.000
REMARK UNBOUND:                 0.000
REMARK  Name = 177
REMARK  1 active torsions:
REMARK  status: ('A' for Active; 'I' for Inactive)
REMARK    1  A    between atoms: C_2  and  C_3
REMARK                            x       y       z     vdW  Elec       q    Type
REMARK                         _______ _______ _______ _____ _____    ______ ____
ROOT
ATOM      1  C   UNL     1      -1.013   1.443  -3.248  0.00  0.00    +0.000 C 
ATOM      2  H   UNL     1      -1.260   2.436  -2.867  0.00  0.00    +0.000 HD
ATOM      3  H   UNL     1      -1.750   0.722  -2.885  0.00  0.00    +0.000 HD
ATOM      4  H   UNL     1      -0.019   1.152  -2.900  0.00  0.00    +0.000 HD
ENDROOT
BRANCH   1   6
ATOM      5  O   UNL     1      -1.731   2.228  -5.401  0.00  0.00    +0.000 OA
ATOM      6  C   UNL     1      -1.019   1.475  -4.745  0.00  0.00    +0.000 C 
ATOM      7  H   UNL     1      -0.333   0.768  -5.240  0.00  0.00    +0.000 HD
ENDBRANCH   1   6
TORSDOF 1
ENDMDL
MODEL 4
REMARK VINA RESULT:    -2.123      8.328      8.435
REMARK INTER + INTRA:          -2.185
REMARK INTER:                  -2.185
REMARK INTRA:                   0.000
REMARK UNBOUND:                 0.000
REMARK  Name = 177
REMARK  1 active torsions:
REMARK  status: ('A' for Active; 'I' for Inactive)
REMARK    1  A    between atoms: C_2  and  C_3
REMARK                            x       y       z     vdW  Elec       q    Type
REMARK                         _______ _______ _______ _____ _____    ______ ____
ROOT
ATOM      1  C   UNL     1       0.792  -5.404  -5.384  0.00  0.00    +0.000 C 
ATOM      2  H   UNL     1       1.063  -4.449  -4.929  0.00  0.00    +0.000 HD
ATOM      3  H   UNL     1       1.495  -6.174  -5.056  0.00  0.00    +0.000 HD
ATOM      4  H   UNL     1       0.830  -5.317  -6.472  0.00  0.00    +0.000 HD
ENDROOT
BRANCH   1   6
ATOM      5  O   UNL     1      -1.518  -4.958  -4.898  0.00  0.00    +0.000 OA
ATOM      6  C   UNL     1      -0.600  -5.768  -4.969  0.00  0.00    +0.000 C 
ATOM      7  H   UNL     1      -0.762  -6.831  -4.724  0.00  0.00    +0.000 HD
ENDBRANCH   1   6
TORSDOF 1
ENDMDL
MODEL 5
REMARK VINA RESULT:    -1.964      7.466      7.588
REMARK INTER + INTRA:          -2.021
REMARK INTER:                  -2.021
REMARK INTRA:                   0.000
REMARK UNBOUND:                 0.000
REMARK  Name = 177
REMARK  1 active torsions:
REMARK  status: ('A' for Active; 'I' for Inactive)
REMARK    1  A    between atoms: C_2  and  C_3
REMARK                            x       y       z     vdW  Elec       q    Type
REMARK                         _______ _______ _______ _____ _____    ______ ____
ROOT
ATOM      1  C   UNL     1      -0.673  -5.590  -4.998  0.00  0.00    +0.000 C 
ATOM      2  H   UNL     1      -0.911  -4.705  -4.404  0.00  0.00    +0.000 HD
ATOM      3  H   UNL     1      -1.476  -5.769  -5.719  0.00  0.00    +0.000 HD
ATOM      4  H   UNL     1      -0.574  -6.458  -4.342  0.00  0.00    +0.000 HD
ENDROOT
BRANCH   1   6
ATOM      5  O   UNL     1       1.688  -5.172  -5.140  0.00  0.00    +0.000 OA
ATOM      6  C   UNL     1       0.622  -5.367  -5.715  0.00  0.00    +0.000 C 
ATOM      7  H   UNL     1       0.567  -5.387  -6.816  0.00  0.00    +0.000 HD
ENDBRANCH   1   6
TORSDOF 1
ENDMDL
MODEL 6
REMARK VINA RESULT:    -1.957     21.287     21.339
REMARK INTER + INTRA:          -2.014
REMARK INTER:                  -2.014
REMARK INTRA:                   0.000
REMARK UNBOUND:                 0.000
REMARK  Name = 177
REMARK  1 active torsions:
REMARK  status: ('A' for Active; 'I' for Inactive)
REMARK    1  A    between atoms: C_2  and  C_3
REMARK                            x       y       z     vdW  Elec       q    Type
REMARK                         _______ _______ _______ _____ _____    ______ ____
ROOT
ATOM      1  C   UNL     1      -7.852 -13.531   6.595  0.00  0.00    +0.000 C 
ATOM      2  H   UNL     1      -8.693 -13.120   7.157  0.00  0.00    +0.000 HD
ATOM      3  H   UNL     1      -7.864 -14.621   6.670  0.00  0.00    +0.000 HD
ATOM      4  H   UNL     1      -6.914 -13.148   7.005  0.00  0.00    +0.000 HD
ENDROOT
BRANCH   1   6
ATOM      5  O   UNL     1      -7.110 -12.458   4.578  0.00  0.00    +0.000 OA
ATOM      6  C   UNL     1      -7.967 -13.112   5.162  0.00  0.00    +0.000 C 
ATOM      7  H   UNL     1      -8.888 -13.430   4.645  0.00  0.00    +0.000 HD
ENDBRANCH   1   6
TORSDOF 1
ENDMDL
MODEL 7
REMARK VINA RESULT:    -1.945     11.993     12.225
REMARK INTER + INTRA:          -2.002
REMARK INTER:                  -2.002
REMARK INTRA:                   0.000
REMARK UNBOUND:                 0.000
REMARK  Name = 177
REMARK  1 active torsions:
REMARK  status: ('A' for Active; 'I' for Inactive)
REMARK    1  A    between atoms: C_2  and  C_3
REMARK                            x       y       z     vdW  Elec       q    Type
REMARK                         _______ _______ _______ _____ _____    ______ ____
ROOT
ATOM      1  C   UNL     1      17.605  -6.776  -5.266  0.00  0.00    +0.000 C 
ATOM      2  H   UNL     1      16.565  -6.761  -5.597  0.00  0.00    +0.000 HD
ATOM      3  H   UNL     1      18.227  -6.256  -6.000  0.00  0.00    +0.000 HD
ATOM      4  H   UNL     1      17.946  -7.810  -5.169  0.00  0.00    +0.000 HD
ENDROOT
BRANCH   1   6
ATOM      5  O   UNL     1      16.862  -5.318  -3.508  0.00  0.00    +0.000 OA
ATOM      6  C   UNL     1      17.706  -6.099  -3.935  0.00  0.00    +0.000 C 
ATOM      7  H   UNL     1      18.604  -6.343  -3.342  0.00  0.00    +0.000 HD
ENDBRANCH   1   6
TORSDOF 1
ENDMDL
MODEL 8
REMARK VINA RESULT:    -1.901     39.859     40.236
REMARK INTER + INTRA:          -1.957
REMARK INTER:                  -1.957
REMARK INTRA:                   0.000
REMARK UNBOUND:                 0.000
REMARK  Name = 177
REMARK  1 active torsions:
REMARK  status: ('A' for Active; 'I' for Inactive)
REMARK    1  A    between atoms: C_2  and  C_3
REMARK                            x       y       z     vdW  Elec       q    Type
REMARK                         _______ _______ _______ _____ _____    ______ ____
ROOT
ATOM      1  C   UNL     1      -5.710   4.783  25.715  0.00  0.00    +0.000 C 
ATOM      2  H   UNL     1      -5.187   5.664  25.339  0.00  0.00    +0.000 HD
ATOM      3  H   UNL     1      -5.009   3.947  25.785  0.00  0.00    +0.000 HD
ATOM      4  H   UNL     1      -6.522   4.519  25.033  0.00  0.00    +0.000 HD
ENDROOT
BRANCH   1   6
ATOM      5  O   UNL     1      -7.164   5.922  27.250  0.00  0.00    +0.000 OA
ATOM      6  C   UNL     1      -6.283   5.090  27.064  0.00  0.00    +0.000 C 
ATOM      7  H   UNL     1      -5.860   4.514  27.903  0.00  0.00    +0.000 HD
ENDBRANCH   1   6
TORSDOF 1
ENDMDL
MODEL 9
REMARK VINA RESULT:    -1.867      9.936     10.128
REMARK INTER + INTRA:          -1.921
REMARK INTER:                  -1.921
REMARK INTRA:                   0.000
REMARK UNBOUND:                 0.000
REMARK  Name = 177
REMARK  1 active torsions:
REMARK  status: ('A' for Active; 'I' for Inactive)
REMARK    1  A    between atoms: C_2  and  C_3
REMARK                            x       y       z     vdW  Elec       q    Type
REMARK                         _______ _______ _______ _____ _____    ______ ____
ROOT
ATOM      1  C   UNL     1       0.295  -0.461  -8.642  0.00  0.00    +0.000 C 
ATOM      2  H   UNL     1       0.305  -1.550  -8.723  0.00  0.00    +0.000 HD
ATOM      3  H   UNL     1      -0.049  -0.031  -9.586  0.00  0.00    +0.000 HD
ATOM      4  H   UNL     1       1.303  -0.100  -8.424  0.00  0.00    +0.000 HD
ENDROOT
BRANCH   1   6
ATOM      5  O   UNL     1      -0.277   0.655  -6.594  0.00  0.00    +0.000 OA
ATOM      6  C   UNL     1      -0.622  -0.061  -7.528  0.00  0.00    +0.000 C 
ATOM      7  H   UNL     1      -1.650  -0.453  -7.593  0.00  0.00    +0.000 HD
ENDBRANCH   1   6
TORSDOF 1
ENDMDL
MODEL 10
REMARK VINA RESULT:    -1.853      8.400      8.471
REMARK INTER + INTRA:          -1.908
REMARK INTER:                  -1.908
REMARK INTRA:                   0.000
REMARK UNBOUND:                 0.000
REMARK  Name = 177
REMARK  1 active torsions:
REMARK  status: ('A' for Active; 'I' for Inactive)
REMARK    1  A    between atoms: C_2  and  C_3
REMARK                            x       y       z     vdW  Elec       q    Type
REMARK                         _______ _______ _______ _____ _____    ______ ____
ROOT
ATOM      1  C   UNL     1       1.316  -1.151  -7.592  0.00  0.00    +0.000 C 
ATOM      2  H   UNL     1       2.063  -1.944  -7.523  0.00  0.00    +0.000 HD
ATOM      3  H   UNL     1       1.422  -0.478  -6.737  0.00  0.00    +0.000 HD
ATOM      4  H   UNL     1       0.314  -1.589  -7.587  0.00  0.00    +0.000 HD
ENDROOT
BRANCH   1   6
ATOM      5  O   UNL     1       2.413   0.422  -9.037  0.00  0.00    +0.000 OA
ATOM      6  C   UNL     1       1.516  -0.397  -8.869  0.00  0.00    +0.000 C 
ATOM      7  H   UNL     1       0.795  -0.621  -9.673  0.00  0.00    +0.000 HD
ENDBRANCH   1   6
TORSDOF 1
ENDMDL
