MODEL 1
REMARK VINA RESULT:    -5.201      0.000      0.000
REMARK INTER + INTRA:          -6.162
REMARK INTER:                  -5.965
REMARK INTRA:                  -0.197
REMARK UNBOUND:                -0.201
REMARK  Name = 261491
REMARK  4 active torsions:
REMARK  status: ('A' for Active; 'I' for Inactive)
REMARK    1  A    between atoms: C_2  and  C_7
REMARK    2  A    between atoms: C_5  and  C_9
REMARK    3  A    between atoms: C_7  and  C_10
REMARK    4  A    between atoms: C_7  and  C_11
REMARK                            x       y       z     vdW  Elec       q    Type
REMARK                         _______ _______ _______ _____ _____    ______ ____
ROOT
ATOM      1  O   UNL     1      17.244  -7.139   0.104  0.00  0.00    +0.000 OA
ATOM      2  C   UNL     1      18.210  -5.447  -2.883  0.00  0.00    +0.000 C 
ATOM      3  C   UNL     1      16.766  -5.068  -2.771  0.00  0.00    +0.000 C 
ATOM      4  C   UNL     1      17.831  -4.011  -2.639  0.00  0.00    +0.000 C 
ATOM      5  C   UNL     1      16.161  -5.709  -1.547  0.00  0.00    +0.000 C 
ATOM      6  C   UNL     1      18.592  -6.348  -1.747  0.00  0.00    +0.000 C 
ATOM      7  C   UNL     1      17.322  -6.482  -0.927  0.00  0.00    +0.000 C 
ATOM      8  H   UNL     1      16.128  -5.036  -3.642  0.00  0.00    +0.000 HD
ATOM      9  H   UNL     1      18.020  -3.586  -1.661  0.00  0.00    +0.000 HD
ATOM     10  H   UNL     1      17.930  -3.297  -3.448  0.00  0.00    +0.000 HD
ATOM     11  H   UNL     1      15.832  -4.937  -0.843  0.00  0.00    +0.000 HD
ATOM     12  H   UNL     1      19.371  -5.888  -1.133  0.00  0.00    +0.000 HD
ATOM     13  H   UNL     1      18.904  -7.349  -2.052  0.00  0.00    +0.000 HD
ENDROOT
BRANCH   5  14
ATOM     14  C   UNL     1      15.024  -6.654  -1.895  0.00  0.00    +0.000 C 
ATOM     15  H   UNL     1      15.312  -7.700  -1.740  0.00  0.00    +0.000 HD
ATOM     16  H   UNL     1      14.147  -6.456  -1.269  0.00  0.00    +0.000 HD
ATOM     17  H   UNL     1      14.729  -6.540  -2.943  0.00  0.00    +0.000 HD
ENDBRANCH   5  14
BRANCH   2  18
ATOM     18  C   UNL     1      18.760  -5.795  -4.221  0.00  0.00    +0.000 C 
ATOM     19  H   UNL     1      18.908  -4.880  -4.811  0.00  0.00    +0.000 HD
BRANCH  18  20
ATOM     20  C   UNL     1      20.126  -6.485  -4.104  0.00  0.00    +0.000 C 
ATOM     21  H   UNL     1      20.937  -5.853  -4.478  0.00  0.00    +0.000 HD
ATOM     22  H   UNL     1      20.346  -6.730  -3.059  0.00  0.00    +0.000 HD
ATOM     23  H   UNL     1      20.139  -7.417  -4.679  0.00  0.00    +0.000 HD
ENDBRANCH  18  20
BRANCH  18  24
ATOM     24  C   UNL     1      17.794  -6.686  -5.011  0.00  0.00    +0.000 C 
ATOM     25  H   UNL     1      17.919  -7.749  -4.787  0.00  0.00    +0.000 HD
ATOM     26  H   UNL     1      17.961  -6.562  -6.088  0.00  0.00    +0.000 HD
ATOM     27  H   UNL     1      16.752  -6.421  -4.806  0.00  0.00    +0.000 HD
ENDBRANCH  18  24
ENDBRANCH   2  18
TORSDOF 4
ENDMDL
MODEL 2
REMARK VINA RESULT:    -4.981      1.637      3.689
REMARK INTER + INTRA:          -5.910
REMARK INTER:                  -5.754
REMARK INTRA:                  -0.156
REMARK UNBOUND:                -0.201
REMARK  Name = 261491
REMARK  4 active torsions:
REMARK  status: ('A' for Active; 'I' for Inactive)
REMARK    1  A    between atoms: C_2  and  C_7
REMARK    2  A    between atoms: C_5  and  C_9
REMARK    3  A    between atoms: C_7  and  C_10
REMARK    4  A    between atoms: C_7  and  C_11
REMARK                            x       y       z     vdW  Elec       q    Type
REMARK                         _______ _______ _______ _____ _____    ______ ____
ROOT
ATOM      1  O   UNL     1      20.657  -6.142  -1.670  0.00  0.00    +0.000 OA
ATOM      2  C   UNL     1      17.408  -6.006  -3.133  0.00  0.00    +0.000 C 
ATOM      3  C   UNL     1      18.226  -5.252  -4.136  0.00  0.00    +0.000 C 
ATOM      4  C   UNL     1      17.597  -6.567  -4.516  0.00  0.00    +0.000 C 
ATOM      5  C   UNL     1      19.663  -5.189  -3.681  0.00  0.00    +0.000 C 
ATOM      6  C   UNL     1      18.277  -6.450  -1.995  0.00  0.00    +0.000 C 
ATOM      7  C   UNL     1      19.664  -5.954  -2.360  0.00  0.00    +0.000 C 
ATOM      8  H   UNL     1      17.847  -4.356  -4.605  0.00  0.00    +0.000 HD
ATOM      9  H   UNL     1      18.239  -7.431  -4.641  0.00  0.00    +0.000 HD
ATOM     10  H   UNL     1      16.767  -6.541  -5.212  0.00  0.00    +0.000 HD
ATOM     11  H   UNL     1      20.306  -5.713  -4.396  0.00  0.00    +0.000 HD
ATOM     12  H   UNL     1      18.292  -7.541  -1.923  0.00  0.00    +0.000 HD
ATOM     13  H   UNL     1      18.007  -6.020  -1.028  0.00  0.00    +0.000 HD
ENDROOT
BRANCH   5  14
ATOM     14  C   UNL     1      20.135  -3.762  -3.465  0.00  0.00    +0.000 C 
ATOM     15  H   UNL     1      21.229  -3.705  -3.417  0.00  0.00    +0.000 HD
ATOM     16  H   UNL     1      19.806  -3.113  -4.284  0.00  0.00    +0.000 HD
ATOM     17  H   UNL     1      19.739  -3.357  -2.528  0.00  0.00    +0.000 HD
ENDBRANCH   5  14
BRANCH   2  18
ATOM     18  C   UNL     1      16.056  -5.495  -2.778  0.00  0.00    +0.000 C 
ATOM     19  H   UNL     1      15.631  -4.946  -3.629  0.00  0.00    +0.000 HD
BRANCH  18  20
ATOM     20  C   UNL     1      15.092  -6.642  -2.449  0.00  0.00    +0.000 C 
ATOM     21  H   UNL     1      14.924  -7.294  -3.311  0.00  0.00    +0.000 HD
ATOM     22  H   UNL     1      15.487  -7.257  -1.634  0.00  0.00    +0.000 HD
ATOM     23  H   UNL     1      14.119  -6.250  -2.134  0.00  0.00    +0.000 HD
ENDBRANCH  18  20
BRANCH  18  24
ATOM     24  C   UNL     1      16.119  -4.514  -1.599  0.00  0.00    +0.000 C 
ATOM     25  H   UNL     1      15.444  -3.663  -1.720  0.00  0.00    +0.000 HD
ATOM     26  H   UNL     1      17.134  -4.110  -1.500  0.00  0.00    +0.000 HD
ATOM     27  H   UNL     1      15.869  -5.011  -0.657  0.00  0.00    +0.000 HD
ENDBRANCH  18  24
ENDBRANCH   2  18
TORSDOF 4
ENDMDL
MODEL 3
REMARK VINA RESULT:    -4.827      1.728      2.381
REMARK INTER + INTRA:          -5.734
REMARK INTER:                  -5.542
REMARK INTRA:                  -0.192
REMARK UNBOUND:                -0.201
REMARK  Name = 261491
REMARK  4 active torsions:
REMARK  status: ('A' for Active; 'I' for Inactive)
REMARK    1  A    between atoms: C_2  and  C_7
REMARK    2  A    between atoms: C_5  and  C_9
REMARK    3  A    between atoms: C_7  and  C_10
REMARK    4  A    between atoms: C_7  and  C_11
REMARK                            x       y       z     vdW  Elec       q    Type
REMARK                         _______ _______ _______ _____ _____    ______ ____
ROOT
ATOM      1  O   UNL     1      18.682  -2.881  -0.562  0.00  0.00    +0.000 OA
ATOM      2  C   UNL     1      17.855  -5.106  -3.222  0.00  0.00    +0.000 C 
ATOM      3  C   UNL     1      17.288  -5.824  -2.037  0.00  0.00    +0.000 C 
ATOM      4  C   UNL     1      16.366  -5.294  -3.105  0.00  0.00    +0.000 C 
ATOM      5  C   UNL     1      17.551  -5.029  -0.783  0.00  0.00    +0.000 C 
ATOM      6  C   UNL     1      18.509  -3.831  -2.784  0.00  0.00    +0.000 C 
ATOM      7  C   UNL     1      18.295  -3.793  -1.281  0.00  0.00    +0.000 C 
ATOM      8  H   UNL     1      17.381  -6.895  -1.936  0.00  0.00    +0.000 HD
ATOM      9  H   UNL     1      15.753  -4.430  -2.877  0.00  0.00    +0.000 HD
ATOM     10  H   UNL     1      15.875  -6.017  -3.745  0.00  0.00    +0.000 HD
ATOM     11  H   UNL     1      16.603  -4.715  -0.331  0.00  0.00    +0.000 HD
ATOM     12  H   UNL     1      18.018  -2.967  -3.240  0.00  0.00    +0.000 HD
ATOM     13  H   UNL     1      19.583  -3.787  -2.973  0.00  0.00    +0.000 HD
ENDROOT
BRANCH   5  14
ATOM     14  C   UNL     1      18.406  -5.793   0.214  0.00  0.00    +0.000 C 
ATOM     15  H   UNL     1      18.944  -6.616  -0.270  0.00  0.00    +0.000 HD
ATOM     16  H   UNL     1      19.151  -5.135   0.674  0.00  0.00    +0.000 HD
ATOM     17  H   UNL     1      17.788  -6.220   1.010  0.00  0.00    +0.000 HD
ENDBRANCH   5  14
BRANCH   2  18
ATOM     18  C   UNL     1      18.566  -5.893  -4.267  0.00  0.00    +0.000 C 
ATOM     19  H   UNL     1      19.074  -5.212  -4.964  0.00  0.00    +0.000 HD
BRANCH  18  20
ATOM     20  C   UNL     1      19.641  -6.799  -3.652  0.00  0.00    +0.000 C 
ATOM     21  H   UNL     1      20.395  -6.225  -3.105  0.00  0.00    +0.000 HD
ATOM     22  H   UNL     1      19.191  -7.513  -2.954  0.00  0.00    +0.000 HD
ATOM     23  H   UNL     1      20.158  -7.369  -4.431  0.00  0.00    +0.000 HD
ENDBRANCH  18  20
BRANCH  18  24
ATOM     24  C   UNL     1      17.588  -6.736  -5.096  0.00  0.00    +0.000 C 
ATOM     25  H   UNL     1      17.096  -7.515  -4.508  0.00  0.00    +0.000 HD
ATOM     26  H   UNL     1      18.122  -7.237  -5.912  0.00  0.00    +0.000 HD
ATOM     27  H   UNL     1      16.810  -6.112  -5.546  0.00  0.00    +0.000 HD
ENDBRANCH  18  24
ENDBRANCH   2  18
TORSDOF 4
ENDMDL
MODEL 4
REMARK VINA RESULT:    -4.626      2.109      3.733
REMARK INTER + INTRA:          -5.503
REMARK INTER:                  -5.304
REMARK INTRA:                  -0.200
REMARK UNBOUND:                -0.201
REMARK  Name = 261491
REMARK  4 active torsions:
REMARK  status: ('A' for Active; 'I' for Inactive)
REMARK    1  A    between atoms: C_2  and  C_7
REMARK    2  A    between atoms: C_5  and  C_9
REMARK    3  A    between atoms: C_7  and  C_10
REMARK    4  A    between atoms: C_7  and  C_11
REMARK                            x       y       z     vdW  Elec       q    Type
REMARK                         _______ _______ _______ _____ _____    ______ ____
ROOT
ATOM      1  O   UNL     1      19.700  -4.502  -3.866  0.00  0.00    +0.000 OA
ATOM      2  C   UNL     1      16.914  -5.819  -2.073  0.00  0.00    +0.000 C 
ATOM      3  C   UNL     1      16.904  -4.386  -1.641  0.00  0.00    +0.000 C 
ATOM      4  C   UNL     1      15.764  -4.930  -2.462  0.00  0.00    +0.000 C 
ATOM      5  C   UNL     1      18.042  -3.645  -2.299  0.00  0.00    +0.000 C 
ATOM      6  C   UNL     1      18.054  -6.062  -3.015  0.00  0.00    +0.000 C 
ATOM      7  C   UNL     1      18.725  -4.708  -3.155  0.00  0.00    +0.000 C 
ATOM      8  H   UNL     1      16.704  -4.114  -0.615  0.00  0.00    +0.000 HD
ATOM      9  H   UNL     1      15.677  -4.619  -3.496  0.00  0.00    +0.000 HD
ATOM     10  H   UNL     1      14.809  -5.058  -1.967  0.00  0.00    +0.000 HD
ATOM     11  H   UNL     1      17.649  -2.859  -2.953  0.00  0.00    +0.000 HD
ATOM     12  H   UNL     1      17.687  -6.385  -3.993  0.00  0.00    +0.000 HD
ATOM     13  H   UNL     1      18.798  -6.771  -2.648  0.00  0.00    +0.000 HD
ENDROOT
BRANCH   5  14
ATOM     14  C   UNL     1      19.020  -3.076  -1.285  0.00  0.00    +0.000 C 
ATOM     15  H   UNL     1      19.276  -3.816  -0.518  0.00  0.00    +0.000 HD
ATOM     16  H   UNL     1      19.951  -2.768  -1.772  0.00  0.00    +0.000 HD
ATOM     17  H   UNL     1      18.593  -2.204  -0.779  0.00  0.00    +0.000 HD
ENDBRANCH   5  14
BRANCH   2  18
ATOM     18  C   UNL     1      16.652  -6.878  -1.060  0.00  0.00    +0.000 C 
ATOM     19  H   UNL     1      16.502  -7.844  -1.562  0.00  0.00    +0.000 HD
BRANCH  18  20
ATOM     20  C   UNL     1      17.838  -7.042  -0.101  0.00  0.00    +0.000 C 
ATOM     21  H   UNL     1      18.329  -6.087   0.110  0.00  0.00    +0.000 HD
ATOM     22  H   UNL     1      17.508  -7.468   0.852  0.00  0.00    +0.000 HD
ATOM     23  H   UNL     1      18.590  -7.715  -0.528  0.00  0.00    +0.000 HD
ENDBRANCH  18  20
BRANCH  18  24
ATOM     24  C   UNL     1      15.374  -6.586  -0.262  0.00  0.00    +0.000 C 
ATOM     25  H   UNL     1      14.476  -6.986  -0.740  0.00  0.00    +0.000 HD
ATOM     26  H   UNL     1      15.231  -5.503  -0.164  0.00  0.00    +0.000 HD
ATOM     27  H   UNL     1      15.433  -7.004   0.747  0.00  0.00    +0.000 HD
ENDBRANCH  18  24
ENDBRANCH   2  18
TORSDOF 4
ENDMDL
MODEL 5
REMARK VINA RESULT:    -4.601     11.643     13.336
REMARK INTER + INTRA:          -5.475
REMARK INTER:                  -5.274
REMARK INTRA:                  -0.200
REMARK UNBOUND:                -0.201
REMARK  Name = 261491
REMARK  4 active torsions:
REMARK  status: ('A' for Active; 'I' for Inactive)
REMARK    1  A    between atoms: C_2  and  C_7
REMARK    2  A    between atoms: C_5  and  C_9
REMARK    3  A    between atoms: C_7  and  C_10
REMARK    4  A    between atoms: C_7  and  C_11
REMARK                            x       y       z     vdW  Elec       q    Type
REMARK                         _______ _______ _______ _____ _____    ______ ____
ROOT
ATOM      1  O   UNL     1      13.133   5.591   0.267  0.00  0.00    +0.000 OA
ATOM      2  C   UNL     1      14.977   7.473  -2.134  0.00  0.00    +0.000 C 
ATOM      3  C   UNL     1      15.503   6.090  -2.362  0.00  0.00    +0.000 C 
ATOM      4  C   UNL     1      14.709   6.777  -3.441  0.00  0.00    +0.000 C 
ATOM      5  C   UNL     1      14.838   5.126  -1.411  0.00  0.00    +0.000 C 
ATOM      6  C   UNL     1      13.963   7.460  -1.031  0.00  0.00    +0.000 C 
ATOM      7  C   UNL     1      13.878   6.003  -0.612  0.00  0.00    +0.000 C 
ATOM      8  H   UNL     1      16.554   5.916  -2.541  0.00  0.00    +0.000 HD
ATOM      9  H   UNL     1      13.703   6.429  -3.645  0.00  0.00    +0.000 HD
ATOM     10  H   UNL     1      15.243   7.099  -4.328  0.00  0.00    +0.000 HD
ATOM     11  H   UNL     1      14.259   4.385  -1.972  0.00  0.00    +0.000 HD
ATOM     12  H   UNL     1      12.986   7.786  -1.399  0.00  0.00    +0.000 HD
ATOM     13  H   UNL     1      14.242   8.048  -0.155  0.00  0.00    +0.000 HD
ENDROOT
BRANCH   5  14
ATOM     14  C   UNL     1      15.835   4.454  -0.483  0.00  0.00    +0.000 C 
ATOM     15  H   UNL     1      16.572   5.170  -0.101  0.00  0.00    +0.000 HD
ATOM     16  H   UNL     1      15.327   4.010   0.380  0.00  0.00    +0.000 HD
ATOM     17  H   UNL     1      16.380   3.660  -1.005  0.00  0.00    +0.000 HD
ENDBRANCH   5  14
BRANCH   2  18
ATOM     18  C   UNL     1      15.929   8.617  -2.148  0.00  0.00    +0.000 C 
ATOM     19  H   UNL     1      15.535   9.421  -2.784  0.00  0.00    +0.000 HD
BRANCH  18  20
ATOM     20  C   UNL     1      16.123   9.202  -0.743  0.00  0.00    +0.000 C 
ATOM     21  H   UNL     1      15.200   9.639  -0.351  0.00  0.00    +0.000 HD
ATOM     22  H   UNL     1      16.450   8.425  -0.043  0.00  0.00    +0.000 HD
ATOM     23  H   UNL     1      16.885   9.988  -0.753  0.00  0.00    +0.000 HD
ENDBRANCH  18  20
BRANCH  18  24
ATOM     24  C   UNL     1      17.287   8.208  -2.733  0.00  0.00    +0.000 C 
ATOM     25  H   UNL     1      17.277   7.204  -3.165  0.00  0.00    +0.000 HD
ATOM     26  H   UNL     1      18.052   8.213  -1.947  0.00  0.00    +0.000 HD
ATOM     27  H   UNL     1      17.610   8.906  -3.511  0.00  0.00    +0.000 HD
ENDBRANCH  18  24
ENDBRANCH   2  18
TORSDOF 4
ENDMDL
MODEL 6
REMARK VINA RESULT:    -4.480     22.253     23.306
REMARK INTER + INTRA:          -5.336
REMARK INTER:                  -5.154
REMARK INTRA:                  -0.181
REMARK UNBOUND:                -0.201
REMARK  Name = 261491
REMARK  4 active torsions:
REMARK  status: ('A' for Active; 'I' for Inactive)
REMARK    1  A    between atoms: C_2  and  C_7
REMARK    2  A    between atoms: C_5  and  C_9
REMARK    3  A    between atoms: C_7  and  C_10
REMARK    4  A    between atoms: C_7  and  C_11
REMARK                            x       y       z     vdW  Elec       q    Type
REMARK                         _______ _______ _______ _____ _____    ______ ____
ROOT
ATOM      1  O   UNL     1       9.043   4.965 -19.948  0.00  0.00    +0.000 OA
ATOM      2  C   UNL     1       5.535   5.396 -19.479  0.00  0.00    +0.000 C 
ATOM      3  C   UNL     1       5.903   4.571 -18.285  0.00  0.00    +0.000 C 
ATOM      4  C   UNL     1       5.411   5.983 -18.099  0.00  0.00    +0.000 C 
ATOM      5  C   UNL     1       7.380   4.268 -18.308  0.00  0.00    +0.000 C 
ATOM      6  C   UNL     1       6.749   5.651 -20.319  0.00  0.00    +0.000 C 
ATOM      7  C   UNL     1       7.878   4.963 -19.572  0.00  0.00    +0.000 C 
ATOM      8  H   UNL     1       5.268   3.766 -17.946  0.00  0.00    +0.000 HD
ATOM      9  H   UNL     1       6.121   6.743 -17.794  0.00  0.00    +0.000 HD
ATOM     10  H   UNL     1       4.424   6.116 -17.670  0.00  0.00    +0.000 HD
ATOM     11  H   UNL     1       7.870   4.718 -17.438  0.00  0.00    +0.000 HD
ATOM     12  H   UNL     1       6.959   6.722 -20.382  0.00  0.00    +0.000 HD
ATOM     13  H   UNL     1       6.700   5.225 -21.323  0.00  0.00    +0.000 HD
ENDROOT
BRANCH   5  14
ATOM     14  C   UNL     1       7.659   2.776 -18.382  0.00  0.00    +0.000 C 
ATOM     15  H   UNL     1       7.636   2.315 -17.388  0.00  0.00    +0.000 HD
ATOM     16  H   UNL     1       6.910   2.269 -18.999  0.00  0.00    +0.000 HD
ATOM     17  H   UNL     1       8.646   2.585 -18.816  0.00  0.00    +0.000 HD
ENDBRANCH   5  14
BRANCH   2  18
ATOM     18  C   UNL     1       4.275   5.084 -20.208  0.00  0.00    +0.000 C 
ATOM     19  H   UNL     1       4.361   5.409 -21.254  0.00  0.00    +0.000 HD
BRANCH  18  20
ATOM     20  C   UNL     1       3.995   3.576 -20.222  0.00  0.00    +0.000 C 
ATOM     21  H   UNL     1       4.141   3.123 -19.236  0.00  0.00    +0.000 HD
ATOM     22  H   UNL     1       2.963   3.377 -20.533  0.00  0.00    +0.000 HD
ATOM     23  H   UNL     1       4.662   3.065 -20.924  0.00  0.00    +0.000 HD
ENDBRANCH  18  20
BRANCH  18  24
ATOM     24  C   UNL     1       3.078   5.830 -19.604  0.00  0.00    +0.000 C 
ATOM     25  H   UNL     1       2.167   5.718 -20.197  0.00  0.00    +0.000 HD
ATOM     26  H   UNL     1       3.294   6.903 -19.545  0.00  0.00    +0.000 HD
ATOM     27  H   UNL     1       2.864   5.480 -18.590  0.00  0.00    +0.000 HD
ENDBRANCH  18  24
ENDBRANCH   2  18
TORSDOF 4
ENDMDL
MODEL 7
REMARK VINA RESULT:    -4.450     25.866     26.899
REMARK INTER + INTRA:          -5.301
REMARK INTER:                  -5.104
REMARK INTRA:                  -0.198
REMARK UNBOUND:                -0.201
REMARK  Name = 261491
REMARK  4 active torsions:
REMARK  status: ('A' for Active; 'I' for Inactive)
REMARK    1  A    between atoms: C_2  and  C_7
REMARK    2  A    between atoms: C_5  and  C_9
REMARK    3  A    between atoms: C_7  and  C_10
REMARK    4  A    between atoms: C_7  and  C_11
REMARK                            x       y       z     vdW  Elec       q    Type
REMARK                         _______ _______ _______ _____ _____    ______ ____
ROOT
ATOM      1  O   UNL     1       0.433   2.972 -23.901  0.00  0.00    +0.000 OA
ATOM      2  C   UNL     1       2.012   3.865 -20.831  0.00  0.00    +0.000 C 
ATOM      3  C   UNL     1       1.076   2.784 -20.389  0.00  0.00    +0.000 C 
ATOM      4  C   UNL     1       2.565   2.569 -20.303  0.00  0.00    +0.000 C 
ATOM      5  C   UNL     1       0.291   2.271 -21.570  0.00  0.00    +0.000 C 
ATOM      6  C   UNL     1       1.865   4.098 -22.304  0.00  0.00    +0.000 C 
ATOM      7  C   UNL     1       0.814   3.095 -22.744  0.00  0.00    +0.000 C 
ATOM      8  H   UNL     1       0.524   2.867 -19.464  0.00  0.00    +0.000 HD
ATOM      9  H   UNL     1       3.030   1.883 -21.001  0.00  0.00    +0.000 HD
ATOM     10  H   UNL     1       3.011   2.551 -19.316  0.00  0.00    +0.000 HD
ATOM     11  H   UNL     1       0.523   1.215 -21.745  0.00  0.00    +0.000 HD
ATOM     12  H   UNL     1       2.803   3.888 -22.825  0.00  0.00    +0.000 HD
ATOM     13  H   UNL     1       1.511   5.096 -22.570  0.00  0.00    +0.000 HD
ENDROOT
BRANCH   5  14
ATOM     14  C   UNL     1      -1.204   2.482 -21.402  0.00  0.00    +0.000 C 
ATOM     15  H   UNL     1      -1.716   1.545 -21.156  0.00  0.00    +0.000 HD
ATOM     16  H   UNL     1      -1.410   3.193 -20.595  0.00  0.00    +0.000 HD
ATOM     17  H   UNL     1      -1.648   2.874 -22.323  0.00  0.00    +0.000 HD
ENDBRANCH   5  14
BRANCH   2  18
ATOM     18  C   UNL     1       2.166   5.075 -19.979  0.00  0.00    +0.000 C 
ATOM     19  H   UNL     1       2.790   4.838 -19.106  0.00  0.00    +0.000 HD
BRANCH  18  20
ATOM     20  C   UNL     1       2.863   6.211 -20.739  0.00  0.00    +0.000 C 
ATOM     21  H   UNL     1       2.569   6.239 -21.793  0.00  0.00    +0.000 HD
ATOM     22  H   UNL     1       2.616   7.182 -20.296  0.00  0.00    +0.000 HD
ATOM     23  H   UNL     1       3.951   6.091 -20.702  0.00  0.00    +0.000 HD
ENDBRANCH  18  20
BRANCH  18  24
ATOM     24  C   UNL     1       0.813   5.561 -19.444  0.00  0.00    +0.000 C 
ATOM     25  H   UNL     1      -0.013   5.348 -20.128  0.00  0.00    +0.000 HD
ATOM     26  H   UNL     1       0.835   6.647 -19.295  0.00  0.00    +0.000 HD
ATOM     27  H   UNL     1       0.579   5.100 -18.480  0.00  0.00    +0.000 HD
ENDBRANCH  18  24
ENDBRANCH   2  18
TORSDOF 4
ENDMDL
MODEL 8
REMARK VINA RESULT:    -4.345     25.553     27.221
REMARK INTER + INTRA:          -5.181
REMARK INTER:                  -5.049
REMARK INTRA:                  -0.132
REMARK UNBOUND:                -0.201
REMARK  Name = 261491
REMARK  4 active torsions:
REMARK  status: ('A' for Active; 'I' for Inactive)
REMARK    1  A    between atoms: C_2  and  C_7
REMARK    2  A    between atoms: C_5  and  C_9
REMARK    3  A    between atoms: C_7  and  C_10
REMARK    4  A    between atoms: C_7  and  C_11
REMARK                            x       y       z     vdW  Elec       q    Type
REMARK                         _______ _______ _______ _____ _____    ______ ____
ROOT
ATOM      1  O   UNL     1      -7.449 -10.428 -14.767  0.00  0.00    +0.000 OA
ATOM      2  C   UNL     1      -7.018  -7.777 -12.422  0.00  0.00    +0.000 C 
ATOM      3  C   UNL     1      -6.759  -8.982 -11.571  0.00  0.00    +0.000 C 
ATOM      4  C   UNL     1      -5.646  -8.005 -11.847  0.00  0.00    +0.000 C 
ATOM      5  C   UNL     1      -6.907 -10.234 -12.398  0.00  0.00    +0.000 C 
ATOM      6  C   UNL     1      -7.348  -8.201 -13.821  0.00  0.00    +0.000 C 
ATOM      7  C   UNL     1      -7.257  -9.715 -13.790  0.00  0.00    +0.000 C 
ATOM      8  H   UNL     1      -7.139  -9.043 -10.562  0.00  0.00    +0.000 HD
ATOM      9  H   UNL     1      -4.848  -8.305 -12.516  0.00  0.00    +0.000 HD
ATOM     10  H   UNL     1      -5.310  -7.384 -11.025  0.00  0.00    +0.000 HD
ATOM     11  H   UNL     1      -5.952 -10.767 -12.447  0.00  0.00    +0.000 HD
ATOM     12  H   UNL     1      -6.611  -7.810 -14.528  0.00  0.00    +0.000 HD
ATOM     13  H   UNL     1      -8.353  -7.929 -14.149  0.00  0.00    +0.000 HD
ENDROOT
BRANCH   5  14
ATOM     14  C   UNL     1      -8.013 -11.138 -11.880  0.00  0.00    +0.000 C 
ATOM     15  H   UNL     1      -8.979 -10.620 -11.863  0.00  0.00    +0.000 HD
ATOM     16  H   UNL     1      -8.123 -12.024 -12.515  0.00  0.00    +0.000 HD
ATOM     17  H   UNL     1      -7.796 -11.474 -10.860  0.00  0.00    +0.000 HD
ENDBRANCH   5  14
BRANCH   2  18
ATOM     18  C   UNL     1      -7.821  -6.658 -11.859  0.00  0.00    +0.000 C 
ATOM     19  H   UNL     1      -7.993  -6.826 -10.787  0.00  0.00    +0.000 HD
BRANCH  18  20
ATOM     20  C   UNL     1      -7.088  -5.317 -11.997  0.00  0.00    +0.000 C 
ATOM     21  H   UNL     1      -7.688  -4.482 -11.621  0.00  0.00    +0.000 HD
ATOM     22  H   UNL     1      -6.147  -5.332 -11.437  0.00  0.00    +0.000 HD
ATOM     23  H   UNL     1      -6.853  -5.111 -13.047  0.00  0.00    +0.000 HD
ENDBRANCH  18  20
BRANCH  18  24
ATOM     24  C   UNL     1      -9.200  -6.567 -12.525  0.00  0.00    +0.000 C 
ATOM     25  H   UNL     1      -9.310  -5.678 -13.152  0.00  0.00    +0.000 HD
ATOM     26  H   UNL     1      -9.985  -6.521 -11.761  0.00  0.00    +0.000 HD
ATOM     27  H   UNL     1      -9.398  -7.444 -13.149  0.00  0.00    +0.000 HD
ENDBRANCH  18  24
ENDBRANCH   2  18
TORSDOF 4
ENDMDL
MODEL 9
REMARK VINA RESULT:    -4.331     30.895     33.201
REMARK INTER + INTRA:          -5.165
REMARK INTER:                  -4.965
REMARK INTRA:                  -0.200
REMARK UNBOUND:                -0.201
REMARK  Name = 261491
REMARK  4 active torsions:
REMARK  status: ('A' for Active; 'I' for Inactive)
REMARK    1  A    between atoms: C_2  and  C_7
REMARK    2  A    between atoms: C_5  and  C_9
REMARK    3  A    between atoms: C_7  and  C_10
REMARK    4  A    between atoms: C_7  and  C_11
REMARK                            x       y       z     vdW  Elec       q    Type
REMARK                         _______ _______ _______ _____ _____    ______ ____
ROOT
ATOM      1  O   UNL     1     -18.269  -4.758  -4.422  0.00  0.00    +0.000 OA
ATOM      2  C   UNL     1     -14.890  -5.450  -5.324  0.00  0.00    +0.000 C 
ATOM      3  C   UNL     1     -15.131  -6.462  -4.247  0.00  0.00    +0.000 C 
ATOM      4  C   UNL     1     -14.885  -6.916  -5.662  0.00  0.00    +0.000 C 
ATOM      5  C   UNL     1     -16.536  -6.320  -3.717  0.00  0.00    +0.000 C 
ATOM      6  C   UNL     1     -16.118  -4.615  -5.527  0.00  0.00    +0.000 C 
ATOM      7  C   UNL     1     -17.126  -5.178  -4.541  0.00  0.00    +0.000 C 
ATOM      8  H   UNL     1     -14.375  -6.680  -3.508  0.00  0.00    +0.000 HD
ATOM      9  H   UNL     1     -15.717  -7.319  -6.228  0.00  0.00    +0.000 HD
ATOM     10  H   UNL     1     -13.942  -7.405  -5.874  0.00  0.00    +0.000 HD
ATOM     11  H   UNL     1     -17.106  -7.233  -3.916  0.00  0.00    +0.000 HD
ATOM     12  H   UNL     1     -16.504  -4.734  -6.543  0.00  0.00    +0.000 HD
ATOM     13  H   UNL     1     -15.984  -3.555  -5.304  0.00  0.00    +0.000 HD
ENDROOT
BRANCH   5  14
ATOM     14  C   UNL     1     -16.560  -5.971  -2.239  0.00  0.00    +0.000 C 
ATOM     15  H   UNL     1     -17.454  -5.392  -1.979  0.00  0.00    +0.000 HD
ATOM     16  H   UNL     1     -16.563  -6.877  -1.624  0.00  0.00    +0.000 HD
ATOM     17  H   UNL     1     -15.685  -5.374  -1.965  0.00  0.00    +0.000 HD
ENDBRANCH   5  14
BRANCH   2  18
ATOM     18  C   UNL     1     -13.586  -4.733  -5.359  0.00  0.00    +0.000 C 
ATOM     19  H   UNL     1     -13.164  -4.779  -6.372  0.00  0.00    +0.000 HD
BRANCH  18  20
ATOM     20  C   UNL     1     -13.751  -3.250  -5.001  0.00  0.00    +0.000 C 
ATOM     21  H   UNL     1     -13.141  -2.605  -5.641  0.00  0.00    +0.000 HD
ATOM     22  H   UNL     1     -14.796  -2.940  -5.112  0.00  0.00    +0.000 HD
ATOM     23  H   UNL     1     -13.454  -3.067  -3.963  0.00  0.00    +0.000 HD
ENDBRANCH  18  20
BRANCH  18  24
ATOM     24  C   UNL     1     -12.564  -5.384  -4.418  0.00  0.00    +0.000 C 
ATOM     25  H   UNL     1     -12.882  -5.369  -3.372  0.00  0.00    +0.000 HD
ATOM     26  H   UNL     1     -11.609  -4.848  -4.472  0.00  0.00    +0.000 HD
ATOM     27  H   UNL     1     -12.375  -6.425  -4.697  0.00  0.00    +0.000 HD
ENDBRANCH  18  24
ENDBRANCH   2  18
TORSDOF 4
ENDMDL
MODEL 10
REMARK VINA RESULT:    -4.299     21.595     22.659
REMARK INTER + INTRA:          -5.128
REMARK INTER:                  -4.927
REMARK INTRA:                  -0.201
REMARK UNBOUND:                -0.201
REMARK  Name = 261491
REMARK  4 active torsions:
REMARK  status: ('A' for Active; 'I' for Inactive)
REMARK    1  A    between atoms: C_2  and  C_7
REMARK    2  A    between atoms: C_5  and  C_9
REMARK    3  A    between atoms: C_7  and  C_10
REMARK    4  A    between atoms: C_7  and  C_11
REMARK                            x       y       z     vdW  Elec       q    Type
REMARK                         _______ _______ _______ _____ _____    ______ ____
ROOT
ATOM      1  O   UNL     1      -1.294 -17.521   3.992  0.00  0.00    +0.000 OA
ATOM      2  C   UNL     1      -1.734 -15.628   1.003  0.00  0.00    +0.000 C 
ATOM      3  C   UNL     1      -2.840 -15.100   1.864  0.00  0.00    +0.000 C 
ATOM      4  C   UNL     1      -1.705 -14.194   1.461  0.00  0.00    +0.000 C 
ATOM      5  C   UNL     1      -2.828 -15.801   3.200  0.00  0.00    +0.000 C 
ATOM      6  C   UNL     1      -0.973 -16.688   1.741  0.00  0.00    +0.000 C 
ATOM      7  C   UNL     1      -1.651 -16.767   3.097  0.00  0.00    +0.000 C 
ATOM      8  H   UNL     1      -3.818 -14.898   1.453  0.00  0.00    +0.000 HD
ATOM      9  H   UNL     1      -0.981 -13.906   2.213  0.00  0.00    +0.000 HD
ATOM     10  H   UNL     1      -1.922 -13.409   0.746  0.00  0.00    +0.000 HD
ATOM     11  H   UNL     1      -2.628 -15.080   4.000  0.00  0.00    +0.000 HD
ATOM     12  H   UNL     1       0.071 -16.392   1.876  0.00  0.00    +0.000 HD
ATOM     13  H   UNL     1      -1.020 -17.677   1.282  0.00  0.00    +0.000 HD
ENDROOT
BRANCH   5  14
ATOM     14  C   UNL     1      -4.115 -16.564   3.460  0.00  0.00    +0.000 C 
ATOM     15  H   UNL     1      -4.852 -16.387   2.668  0.00  0.00    +0.000 HD
ATOM     16  H   UNL     1      -3.928 -17.642   3.502  0.00  0.00    +0.000 HD
ATOM     17  H   UNL     1      -4.565 -16.258   4.409  0.00  0.00    +0.000 HD
ENDBRANCH   5  14
BRANCH   2  18
ATOM     18  C   UNL     1      -2.004 -15.884  -0.438  0.00  0.00    +0.000 C 
ATOM     19  H   UNL     1      -1.503 -15.122  -1.051  0.00  0.00    +0.000 HD
BRANCH  18  20
ATOM     20  C   UNL     1      -1.459 -17.249  -0.876  0.00  0.00    +0.000 C 
ATOM     21  H   UNL     1      -0.483 -17.463  -0.430  0.00  0.00    +0.000 HD
ATOM     22  H   UNL     1      -2.145 -18.051  -0.582  0.00  0.00    +0.000 HD
ATOM     23  H   UNL     1      -1.342 -17.288  -1.965  0.00  0.00    +0.000 HD
ENDBRANCH  18  20
BRANCH  18  24
ATOM     24  C   UNL     1      -3.503 -15.796  -0.751  0.00  0.00    +0.000 C 
ATOM     25  H   UNL     1      -3.792 -14.829  -1.171  0.00  0.00    +0.000 HD
ATOM     26  H   UNL     1      -4.088 -15.937   0.165  0.00  0.00    +0.000 HD
ATOM     27  H   UNL     1      -3.806 -16.574  -1.459  0.00  0.00    +0.000 HD
ENDBRANCH  18  24
ENDBRANCH   2  18
TORSDOF 4
ENDMDL
