MODEL 1
REMARK VINA RESULT:    -4.526      0.000      0.000
REMARK INTER + INTRA:          -4.804
REMARK INTER:                  -4.793
REMARK INTRA:                  -0.011
REMARK UNBOUND:                -0.014
REMARK  Name = 240
REMARK  1 active torsions:
REMARK  status: ('A' for Active; 'I' for Inactive)
REMARK    1  A    between atoms: C_2  and  C_8
REMARK                            x       y       z     vdW  Elec       q    Type
REMARK                         _______ _______ _______ _____ _____    ______ ____
ROOT
ATOM      1  C   UNL     1      17.484  -5.833  -3.621  0.00  0.00    +0.000 A 
ATOM      2  C   UNL     1      16.228  -6.194  -3.134  0.00  0.00    +0.000 A 
ATOM      3  C   UNL     1      18.156  -4.739  -3.075  0.00  0.00    +0.000 A 
ATOM      4  C   UNL     1      15.644  -5.461  -2.101  0.00  0.00    +0.000 A 
ATOM      5  C   UNL     1      17.571  -4.007  -2.042  0.00  0.00    +0.000 A 
ATOM      6  C   UNL     1      16.315  -4.368  -1.555  0.00  0.00    +0.000 A 
ATOM      7  H   UNL     1      15.692  -7.044  -3.550  0.00  0.00    +0.000 HD
ATOM      8  H   UNL     1      19.135  -4.440  -3.439  0.00  0.00    +0.000 HD
ATOM      9  H   UNL     1      14.665  -5.743  -1.722  0.00  0.00    +0.000 HD
ATOM     10  H   UNL     1      18.094  -3.155  -1.617  0.00  0.00    +0.000 HD
ATOM     11  H   UNL     1      15.860  -3.798  -0.752  0.00  0.00    +0.000 HD
ENDROOT
BRANCH   1  13
ATOM     12  O   UNL     1      17.481  -6.938  -5.714  0.00  0.00    +0.000 OA
ATOM     13  C   UNL     1      18.094  -6.597  -4.699  0.00  0.00    +0.000 C 
ATOM     14  H   UNL     1      19.156  -6.869  -4.574  0.00  0.00    +0.000 HD
ENDBRANCH   1  13
TORSDOF 1
ENDMDL
MODEL 2
REMARK VINA RESULT:    -4.365      2.123      3.581
REMARK INTER + INTRA:          -4.634
REMARK INTER:                  -4.622
REMARK INTRA:                  -0.012
REMARK UNBOUND:                -0.014
REMARK  Name = 240
REMARK  1 active torsions:
REMARK  status: ('A' for Active; 'I' for Inactive)
REMARK    1  A    between atoms: C_2  and  C_8
REMARK                            x       y       z     vdW  Elec       q    Type
REMARK                         _______ _______ _______ _____ _____    ______ ____
ROOT
ATOM      1  C   UNL     1      17.079  -5.136  -3.078  0.00  0.00    +0.000 A 
ATOM      2  C   UNL     1      18.147  -4.298  -2.758  0.00  0.00    +0.000 A 
ATOM      3  C   UNL     1      17.262  -6.189  -3.975  0.00  0.00    +0.000 A 
ATOM      4  C   UNL     1      19.399  -4.513  -3.334  0.00  0.00    +0.000 A 
ATOM      5  C   UNL     1      18.514  -6.403  -4.550  0.00  0.00    +0.000 A 
ATOM      6  C   UNL     1      19.583  -5.566  -4.230  0.00  0.00    +0.000 A 
ATOM      7  H   UNL     1      18.019  -3.473  -2.062  0.00  0.00    +0.000 HD
ATOM      8  H   UNL     1      16.444  -6.854  -4.238  0.00  0.00    +0.000 HD
ATOM      9  H   UNL     1      20.231  -3.860  -3.085  0.00  0.00    +0.000 HD
ATOM     10  H   UNL     1      18.658  -7.224  -5.248  0.00  0.00    +0.000 HD
ATOM     11  H   UNL     1      20.557  -5.733  -4.678  0.00  0.00    +0.000 HD
ENDROOT
BRANCH   1  13
ATOM     12  O   UNL     1      15.623  -4.511  -1.320  0.00  0.00    +0.000 OA
ATOM     13  C   UNL     1      15.773  -4.911  -2.478  0.00  0.00    +0.000 C 
ATOM     14  H   UNL     1      14.894  -5.115  -3.112  0.00  0.00    +0.000 HD
ENDBRANCH   1  13
TORSDOF 1
ENDMDL
MODEL 3
REMARK VINA RESULT:    -4.337     26.426     27.409
REMARK INTER + INTRA:          -4.604
REMARK INTER:                  -4.592
REMARK INTRA:                  -0.012
REMARK UNBOUND:                -0.014
REMARK  Name = 240
REMARK  1 active torsions:
REMARK  status: ('A' for Active; 'I' for Inactive)
REMARK    1  A    between atoms: C_2  and  C_8
REMARK                            x       y       z     vdW  Elec       q    Type
REMARK                         _______ _______ _______ _____ _____    ______ ____
ROOT
ATOM      1  C   UNL     1      -7.491 -14.323   3.721  0.00  0.00    +0.000 A 
ATOM      2  C   UNL     1      -7.778 -15.543   4.334  0.00  0.00    +0.000 A 
ATOM      3  C   UNL     1      -7.560 -13.139   4.456  0.00  0.00    +0.000 A 
ATOM      4  C   UNL     1      -8.134 -15.579   5.682  0.00  0.00    +0.000 A 
ATOM      5  C   UNL     1      -7.917 -13.177   5.804  0.00  0.00    +0.000 A 
ATOM      6  C   UNL     1      -8.203 -14.397   6.417  0.00  0.00    +0.000 A 
ATOM      7  H   UNL     1      -7.728 -16.473   3.773  0.00  0.00    +0.000 HD
ATOM      8  H   UNL     1      -7.341 -12.178   4.000  0.00  0.00    +0.000 HD
ATOM      9  H   UNL     1      -8.357 -16.530   6.159  0.00  0.00    +0.000 HD
ATOM     10  H   UNL     1      -7.971 -12.255   6.378  0.00  0.00    +0.000 HD
ATOM     11  H   UNL     1      -8.480 -14.425   7.466  0.00  0.00    +0.000 HD
ENDROOT
BRANCH   1  13
ATOM     12  O   UNL     1      -7.511 -13.410   1.538  0.00  0.00    +0.000 OA
ATOM     13  C   UNL     1      -7.120 -14.285   2.315  0.00  0.00    +0.000 C 
ATOM     14  H   UNL     1      -6.455 -15.089   1.956  0.00  0.00    +0.000 HD
ENDBRANCH   1  13
TORSDOF 1
ENDMDL
MODEL 4
REMARK VINA RESULT:    -4.139      2.044      2.656
REMARK INTER + INTRA:          -4.394
REMARK INTER:                  -4.383
REMARK INTRA:                  -0.012
REMARK UNBOUND:                -0.014
REMARK  Name = 240
REMARK  1 active torsions:
REMARK  status: ('A' for Active; 'I' for Inactive)
REMARK    1  A    between atoms: C_2  and  C_8
REMARK                            x       y       z     vdW  Elec       q    Type
REMARK                         _______ _______ _______ _____ _____    ______ ____
ROOT
ATOM      1  C   UNL     1      18.290  -4.461  -3.023  0.00  0.00    +0.000 A 
ATOM      2  C   UNL     1      17.773  -5.552  -3.721  0.00  0.00    +0.000 A 
ATOM      3  C   UNL     1      17.586  -3.928  -1.942  0.00  0.00    +0.000 A 
ATOM      4  C   UNL     1      16.553  -6.111  -3.339  0.00  0.00    +0.000 A 
ATOM      5  C   UNL     1      16.367  -4.487  -1.561  0.00  0.00    +0.000 A 
ATOM      6  C   UNL     1      15.850  -5.578  -2.260  0.00  0.00    +0.000 A 
ATOM      7  H   UNL     1      18.310  -5.979  -4.565  0.00  0.00    +0.000 HD
ATOM      8  H   UNL     1      17.970  -3.078  -1.384  0.00  0.00    +0.000 HD
ATOM      9  H   UNL     1      16.151  -6.961  -3.884  0.00  0.00    +0.000 HD
ATOM     10  H   UNL     1      15.818  -4.072  -0.719  0.00  0.00    +0.000 HD
ATOM     11  H   UNL     1      14.901  -6.013  -1.962  0.00  0.00    +0.000 HD
ENDROOT
BRANCH   1  13
ATOM     12  O   UNL     1      20.412  -3.497  -2.611  0.00  0.00    +0.000 OA
ATOM     13  C   UNL     1      19.562  -3.878  -3.421  0.00  0.00    +0.000 C 
ATOM     14  H   UNL     1      19.747  -3.787  -4.504  0.00  0.00    +0.000 HD
ENDBRANCH   1  13
TORSDOF 1
ENDMDL
MODEL 5
REMARK VINA RESULT:    -4.130     21.557     21.749
REMARK INTER + INTRA:          -4.386
REMARK INTER:                  -4.376
REMARK INTRA:                  -0.010
REMARK UNBOUND:                -0.014
REMARK  Name = 240
REMARK  1 active torsions:
REMARK  status: ('A' for Active; 'I' for Inactive)
REMARK    1  A    between atoms: C_2  and  C_8
REMARK                            x       y       z     vdW  Elec       q    Type
REMARK                         _______ _______ _______ _____ _____    ______ ____
ROOT
ATOM      1  C   UNL     1      -0.671 -16.698   2.202  0.00  0.00    +0.000 A 
ATOM      2  C   UNL     1      -0.922 -17.230   0.936  0.00  0.00    +0.000 A 
ATOM      3  C   UNL     1      -1.135 -15.423   2.527  0.00  0.00    +0.000 A 
ATOM      4  C   UNL     1      -1.636 -16.486  -0.003  0.00  0.00    +0.000 A 
ATOM      5  C   UNL     1      -1.850 -14.681   1.587  0.00  0.00    +0.000 A 
ATOM      6  C   UNL     1      -2.100 -15.213   0.322  0.00  0.00    +0.000 A 
ATOM      7  H   UNL     1      -0.566 -18.222   0.668  0.00  0.00    +0.000 HD
ATOM      8  H   UNL     1      -0.952 -14.990   3.506  0.00  0.00    +0.000 HD
ATOM      9  H   UNL     1      -1.831 -16.901  -0.989  0.00  0.00    +0.000 HD
ATOM     10  H   UNL     1      -2.211 -13.688   1.840  0.00  0.00    +0.000 HD
ATOM     11  H   UNL     1      -2.656 -14.634  -0.410  0.00  0.00    +0.000 HD
ENDROOT
BRANCH   1  13
ATOM     12  O   UNL     1       1.247 -17.819   3.016  0.00  0.00    +0.000 OA
ATOM     13  C   UNL     1       0.074 -17.473   3.182  0.00  0.00    +0.000 C 
ATOM     14  H   UNL     1      -0.461 -17.748   4.106  0.00  0.00    +0.000 HD
ENDBRANCH   1  13
TORSDOF 1
ENDMDL
MODEL 6
REMARK VINA RESULT:    -4.089     24.785     25.579
REMARK INTER + INTRA:          -4.342
REMARK INTER:                  -4.332
REMARK INTRA:                  -0.010
REMARK UNBOUND:                -0.014
REMARK  Name = 240
REMARK  1 active torsions:
REMARK  status: ('A' for Active; 'I' for Inactive)
REMARK    1  A    between atoms: C_2  and  C_8
REMARK                            x       y       z     vdW  Elec       q    Type
REMARK                         _______ _______ _______ _____ _____    ______ ____
ROOT
ATOM      1  C   UNL     1      12.278  18.374 -11.493  0.00  0.00    +0.000 A 
ATOM      2  C   UNL     1      13.309  19.160 -10.977  0.00  0.00    +0.000 A 
ATOM      3  C   UNL     1      12.498  17.022 -11.758  0.00  0.00    +0.000 A 
ATOM      4  C   UNL     1      14.559  18.595 -10.727  0.00  0.00    +0.000 A 
ATOM      5  C   UNL     1      13.749  16.457 -11.507  0.00  0.00    +0.000 A 
ATOM      6  C   UNL     1      14.779  17.244 -10.991  0.00  0.00    +0.000 A 
ATOM      7  H   UNL     1      13.152  20.215 -10.766  0.00  0.00    +0.000 HD
ATOM      8  H   UNL     1      11.710  16.391 -12.160  0.00  0.00    +0.000 HD
ATOM      9  H   UNL     1      15.361  19.207 -10.325  0.00  0.00    +0.000 HD
ATOM     10  H   UNL     1      13.920  15.404 -11.713  0.00  0.00    +0.000 HD
ATOM     11  H   UNL     1      15.752  16.803 -10.796  0.00  0.00    +0.000 HD
ENDROOT
BRANCH   1  13
ATOM     12  O   UNL     1      10.273  19.467 -10.872  0.00  0.00    +0.000 OA
ATOM     13  C   UNL     1      10.974  18.964 -11.754  0.00  0.00    +0.000 C 
ATOM     14  H   UNL     1      10.624  18.946 -12.800  0.00  0.00    +0.000 HD
ENDBRANCH   1  13
TORSDOF 1
ENDMDL
MODEL 7
REMARK VINA RESULT:    -3.948     27.316     27.945
REMARK INTER + INTRA:          -4.193
REMARK INTER:                  -4.180
REMARK INTRA:                  -0.013
REMARK UNBOUND:                -0.014
REMARK  Name = 240
REMARK  1 active torsions:
REMARK  status: ('A' for Active; 'I' for Inactive)
REMARK    1  A    between atoms: C_2  and  C_8
REMARK                            x       y       z     vdW  Elec       q    Type
REMARK                         _______ _______ _______ _____ _____    ______ ____
ROOT
ATOM      1  C   UNL     1      -7.719 -15.317   4.363  0.00  0.00    +0.000 A 
ATOM      2  C   UNL     1      -7.538 -13.964   4.078  0.00  0.00    +0.000 A 
ATOM      3  C   UNL     1      -7.990 -15.725   5.670  0.00  0.00    +0.000 A 
ATOM      4  C   UNL     1      -7.627 -13.018   5.099  0.00  0.00    +0.000 A 
ATOM      5  C   UNL     1      -8.078 -14.778   6.690  0.00  0.00    +0.000 A 
ATOM      6  C   UNL     1      -7.897 -13.425   6.405  0.00  0.00    +0.000 A 
ATOM      7  H   UNL     1      -7.327 -13.631   3.064  0.00  0.00    +0.000 HD
ATOM      8  H   UNL     1      -8.135 -16.773   5.915  0.00  0.00    +0.000 HD
ATOM      9  H   UNL     1      -7.485 -11.964   4.877  0.00  0.00    +0.000 HD
ATOM     10  H   UNL     1      -8.289 -15.095   7.708  0.00  0.00    +0.000 HD
ATOM     11  H   UNL     1      -7.966 -12.689   7.200  0.00  0.00    +0.000 HD
ENDROOT
BRANCH   1  13
ATOM     12  O   UNL     1      -8.130 -17.428   3.375  0.00  0.00    +0.000 OA
ATOM     13  C   UNL     1      -7.627 -16.304   3.298  0.00  0.00    +0.000 C 
ATOM     14  H   UNL     1      -7.076 -16.003   2.391  0.00  0.00    +0.000 HD
ENDBRANCH   1  13
TORSDOF 1
ENDMDL
MODEL 8
REMARK VINA RESULT:    -3.928     26.369     26.685
REMARK INTER + INTRA:          -4.172
REMARK INTER:                  -4.163
REMARK INTRA:                  -0.009
REMARK UNBOUND:                -0.014
REMARK  Name = 240
REMARK  1 active torsions:
REMARK  status: ('A' for Active; 'I' for Inactive)
REMARK    1  A    between atoms: C_2  and  C_8
REMARK                            x       y       z     vdW  Elec       q    Type
REMARK                         _______ _______ _______ _____ _____    ______ ____
ROOT
ATOM      1  C   UNL     1      -0.383   3.503 -21.917  0.00  0.00    +0.000 A 
ATOM      2  C   UNL     1      -0.221   2.714 -20.778  0.00  0.00    +0.000 A 
ATOM      3  C   UNL     1      -0.005   4.845 -21.896  0.00  0.00    +0.000 A 
ATOM      4  C   UNL     1       0.319   3.268 -19.617  0.00  0.00    +0.000 A 
ATOM      5  C   UNL     1       0.535   5.398 -20.735  0.00  0.00    +0.000 A 
ATOM      6  C   UNL     1       0.697   4.609 -19.596  0.00  0.00    +0.000 A 
ATOM      7  H   UNL     1      -0.512   1.666 -20.780  0.00  0.00    +0.000 HD
ATOM      8  H   UNL     1      -0.122   5.478 -22.771  0.00  0.00    +0.000 HD
ATOM      9  H   UNL     1       0.445   2.653 -18.730  0.00  0.00    +0.000 HD
ATOM     10  H   UNL     1       0.830   6.444 -20.718  0.00  0.00    +0.000 HD
ATOM     11  H   UNL     1       1.118   5.041 -18.692  0.00  0.00    +0.000 HD
ENDROOT
BRANCH   1  13
ATOM     12  O   UNL     1      -0.311   2.180 -23.878  0.00  0.00    +0.000 OA
ATOM     13  C   UNL     1      -0.947   2.925 -23.127  0.00  0.00    +0.000 C 
ATOM     14  H   UNL     1      -1.994   3.183 -23.358  0.00  0.00    +0.000 HD
ENDBRANCH   1  13
TORSDOF 1
ENDMDL
MODEL 9
REMARK VINA RESULT:    -3.903     24.252     24.598
REMARK INTER + INTRA:          -4.145
REMARK INTER:                  -4.132
REMARK INTRA:                  -0.012
REMARK UNBOUND:                -0.014
REMARK  Name = 240
REMARK  1 active torsions:
REMARK  status: ('A' for Active; 'I' for Inactive)
REMARK    1  A    between atoms: C_2  and  C_8
REMARK                            x       y       z     vdW  Elec       q    Type
REMARK                         _______ _______ _______ _____ _____    ______ ____
ROOT
ATOM      1  C   UNL     1       1.415   3.472 -20.231  0.00  0.00    +0.000 A 
ATOM      2  C   UNL     1       2.145   2.284 -20.206  0.00  0.00    +0.000 A 
ATOM      3  C   UNL     1       2.079   4.699 -20.243  0.00  0.00    +0.000 A 
ATOM      4  C   UNL     1       3.539   2.322 -20.194  0.00  0.00    +0.000 A 
ATOM      5  C   UNL     1       3.473   4.736 -20.231  0.00  0.00    +0.000 A 
ATOM      6  C   UNL     1       4.203   3.548 -20.206  0.00  0.00    +0.000 A 
ATOM      7  H   UNL     1       1.641   1.320 -20.196  0.00  0.00    +0.000 HD
ATOM      8  H   UNL     1       1.531   5.637 -20.263  0.00  0.00    +0.000 HD
ATOM      9  H   UNL     1       4.108   1.397 -20.174  0.00  0.00    +0.000 HD
ATOM     10  H   UNL     1       3.991   5.692 -20.241  0.00  0.00    +0.000 HD
ATOM     11  H   UNL     1       5.288   3.578 -20.197  0.00  0.00    +0.000 HD
ENDROOT
BRANCH   1  13
ATOM     12  O   UNL     1      -0.684   2.533 -20.790  0.00  0.00    +0.000 OA
ATOM     13  C   UNL     1      -0.040   3.432 -20.243  0.00  0.00    +0.000 C 
ATOM     14  H   UNL     1      -0.562   4.258 -19.732  0.00  0.00    +0.000 HD
ENDBRANCH   1  13
TORSDOF 1
ENDMDL
MODEL 10
REMARK VINA RESULT:    -3.896     24.458     24.793
REMARK INTER + INTRA:          -4.137
REMARK INTER:                  -4.123
REMARK INTRA:                  -0.014
REMARK UNBOUND:                -0.014
REMARK  Name = 240
REMARK  1 active torsions:
REMARK  status: ('A' for Active; 'I' for Inactive)
REMARK    1  A    between atoms: C_2  and  C_8
REMARK                            x       y       z     vdW  Elec       q    Type
REMARK                         _______ _______ _______ _____ _____    ______ ____
ROOT
ATOM      1  C   UNL     1       2.072   4.970 -20.023  0.00  0.00    +0.000 A 
ATOM      2  C   UNL     1       1.154   3.921 -19.999  0.00  0.00    +0.000 A 
ATOM      3  C   UNL     1       3.430   4.706 -20.208  0.00  0.00    +0.000 A 
ATOM      4  C   UNL     1       1.592   2.606 -20.162  0.00  0.00    +0.000 A 
ATOM      5  C   UNL     1       3.867   3.391 -20.371  0.00  0.00    +0.000 A 
ATOM      6  C   UNL     1       2.948   2.342 -20.348  0.00  0.00    +0.000 A 
ATOM      7  H   UNL     1       0.093   4.111 -19.855  0.00  0.00    +0.000 HD
ATOM      8  H   UNL     1       4.162   5.507 -20.230  0.00  0.00    +0.000 HD
ATOM      9  H   UNL     1       0.877   1.789 -20.144  0.00  0.00    +0.000 HD
ATOM     10  H   UNL     1       4.924   3.185 -20.516  0.00  0.00    +0.000 HD
ATOM     11  H   UNL     1       3.290   1.319 -20.475  0.00  0.00    +0.000 HD
ENDROOT
BRANCH   1  13
ATOM     12  O   UNL     1       0.439   6.635 -19.624  0.00  0.00    +0.000 OA
ATOM     13  C   UNL     1       1.615   6.341 -19.853  0.00  0.00    +0.000 C 
ATOM     14  H   UNL     1       2.379   7.132 -19.937  0.00  0.00    +0.000 HD
ENDBRANCH   1  13
TORSDOF 1
ENDMDL
