MODEL 1
REMARK VINA RESULT:    -4.415      0.000      0.000
REMARK INTER + INTRA:          -4.415
REMARK INTER:                  -4.415
REMARK INTRA:                   0.000
REMARK UNBOUND:                 0.000
REMARK  Name = 7222
REMARK  0 active torsions:
REMARK  status: ('A' for Active; 'I' for Inactive)
REMARK                            x       y       z     vdW  Elec       q    Type
REMARK                         _______ _______ _______ _____ _____    ______ ____
ROOT
ATOM      1  S   UNL     1      18.309  -4.209   0.328  0.00  0.00    +0.000 S 
ATOM      2  N   UNL     1      18.051  -3.517  -2.143  0.00  0.00    +0.000 NA
ATOM      3  C   UNL     1      17.112  -5.027  -0.604  0.00  0.00    +0.000 A 
ATOM      4  C   UNL     1      17.121  -4.519  -1.907  0.00  0.00    +0.000 A 
ATOM      5  C   UNL     1      16.227  -6.044  -0.211  0.00  0.00    +0.000 A 
ATOM      6  C   UNL     1      16.213  -5.050  -2.847  0.00  0.00    +0.000 A 
ATOM      7  C   UNL     1      15.339  -6.553  -1.161  0.00  0.00    +0.000 A 
ATOM      8  C   UNL     1      15.330  -6.064  -2.464  0.00  0.00    +0.000 A 
ATOM      9  C   UNL     1      18.726  -3.275  -1.043  0.00  0.00    +0.000 A 
ATOM     10  H   UNL     1      16.229  -6.431   0.803  0.00  0.00    +0.000 HD
ATOM     11  H   UNL     1      16.197  -4.676  -3.867  0.00  0.00    +0.000 HD
ATOM     12  H   UNL     1      14.646  -7.341  -0.879  0.00  0.00    +0.000 HD
ATOM     13  H   UNL     1      14.631  -6.471  -3.189  0.00  0.00    +0.000 HD
ATOM     14  H   UNL     1      19.505  -2.527  -1.001  0.00  0.00    +0.000 HD
ENDROOT
TORSDOF 0
ENDMDL
MODEL 2
REMARK VINA RESULT:    -4.335      2.262      2.597
REMARK INTER + INTRA:          -4.335
REMARK INTER:                  -4.335
REMARK INTRA:                   0.000
REMARK UNBOUND:                 0.000
REMARK  Name = 7222
REMARK  0 active torsions:
REMARK  status: ('A' for Active; 'I' for Inactive)
REMARK                            x       y       z     vdW  Elec       q    Type
REMARK                         _______ _______ _______ _____ _____    ______ ____
ROOT
ATOM      1  S   UNL     1      19.969  -3.745  -2.650  0.00  0.00    +0.000 S 
ATOM      2  N   UNL     1      19.306  -5.602  -4.312  0.00  0.00    +0.000 NA
ATOM      3  C   UNL     1      18.362  -4.362  -2.550  0.00  0.00    +0.000 A 
ATOM      4  C   UNL     1      18.193  -5.353  -3.523  0.00  0.00    +0.000 A 
ATOM      5  C   UNL     1      17.327  -3.997  -1.675  0.00  0.00    +0.000 A 
ATOM      6  C   UNL     1      16.941  -5.998  -3.620  0.00  0.00    +0.000 A 
ATOM      7  C   UNL     1      16.099  -4.652  -1.792  0.00  0.00    +0.000 A 
ATOM      8  C   UNL     1      15.905  -5.640  -2.752  0.00  0.00    +0.000 A 
ATOM      9  C   UNL     1      20.292  -4.818  -3.942  0.00  0.00    +0.000 A 
ATOM     10  H   UNL     1      17.471  -3.227  -0.924  0.00  0.00    +0.000 HD
ATOM     11  H   UNL     1      16.780  -6.771  -4.366  0.00  0.00    +0.000 HD
ATOM     12  H   UNL     1      15.284  -4.384  -1.125  0.00  0.00    +0.000 HD
ATOM     13  H   UNL     1      14.943  -6.138  -2.829  0.00  0.00    +0.000 HD
ATOM     14  H   UNL     1      21.258  -4.845  -4.425  0.00  0.00    +0.000 HD
ENDROOT
TORSDOF 0
ENDMDL
MODEL 3
REMARK VINA RESULT:    -4.208     25.069     25.947
REMARK INTER + INTRA:          -4.208
REMARK INTER:                  -4.208
REMARK INTRA:                   0.000
REMARK UNBOUND:                 0.000
REMARK  Name = 7222
REMARK  0 active torsions:
REMARK  status: ('A' for Active; 'I' for Inactive)
REMARK                            x       y       z     vdW  Elec       q    Type
REMARK                         _______ _______ _______ _____ _____    ______ ____
ROOT
ATOM      1  S   UNL     1       2.978   6.351 -20.853  0.00  0.00    +0.000 S 
ATOM      2  N   UNL     1       0.588   5.565 -20.286  0.00  0.00    +0.000 NA
ATOM      3  C   UNL     1       2.746   4.670 -20.550  0.00  0.00    +0.000 A 
ATOM      4  C   UNL     1       1.397   4.439 -20.262  0.00  0.00    +0.000 A 
ATOM      5  C   UNL     1       3.689   3.630 -20.565  0.00  0.00    +0.000 A 
ATOM      6  C   UNL     1       0.981   3.120 -19.981  0.00  0.00    +0.000 A 
ATOM      7  C   UNL     1       3.251   2.334 -20.283  0.00  0.00    +0.000 A 
ATOM      8  C   UNL     1       1.914   2.079 -19.994  0.00  0.00    +0.000 A 
ATOM      9  C   UNL     1       1.310   6.620 -20.584  0.00  0.00    +0.000 A 
ATOM     10  H   UNL     1       4.734   3.821 -20.790  0.00  0.00    +0.000 HD
ATOM     11  H   UNL     1      -0.060   2.910 -19.754  0.00  0.00    +0.000 HD
ATOM     12  H   UNL     1       3.965   1.514 -20.289  0.00  0.00    +0.000 HD
ATOM     13  H   UNL     1       1.592   1.065 -19.777  0.00  0.00    +0.000 HD
ATOM     14  H   UNL     1       0.879   7.609 -20.656  0.00  0.00    +0.000 HD
ENDROOT
TORSDOF 0
ENDMDL
MODEL 4
REMARK VINA RESULT:    -4.189      1.314      2.077
REMARK INTER + INTRA:          -4.189
REMARK INTER:                  -4.189
REMARK INTRA:                   0.000
REMARK UNBOUND:                 0.000
REMARK  Name = 7222
REMARK  0 active torsions:
REMARK  status: ('A' for Active; 'I' for Inactive)
REMARK                            x       y       z     vdW  Elec       q    Type
REMARK                         _______ _______ _______ _____ _____    ______ ____
ROOT
ATOM      1  S   UNL     1      18.373  -3.407  -1.475  0.00  0.00    +0.000 S 
ATOM      2  N   UNL     1      17.727  -4.675   0.676  0.00  0.00    +0.000 NA
ATOM      3  C   UNL     1      17.149  -4.614  -1.603  0.00  0.00    +0.000 A 
ATOM      4  C   UNL     1      16.938  -5.186  -0.344  0.00  0.00    +0.000 A 
ATOM      5  C   UNL     1      16.426  -5.025  -2.734  0.00  0.00    +0.000 A 
ATOM      6  C   UNL     1      15.969  -6.205  -0.217  0.00  0.00    +0.000 A 
ATOM      7  C   UNL     1      15.474  -6.035  -2.582  0.00  0.00    +0.000 A 
ATOM      8  C   UNL     1      15.246  -6.620  -1.340  0.00  0.00    +0.000 A 
ATOM      9  C   UNL     1      18.514  -3.740   0.198  0.00  0.00    +0.000 A 
ATOM     10  H   UNL     1      16.599  -4.574  -3.706  0.00  0.00    +0.000 HD
ATOM     11  H   UNL     1      15.783  -6.668   0.748  0.00  0.00    +0.000 HD
ATOM     12  H   UNL     1      14.904  -6.369  -3.445  0.00  0.00    +0.000 HD
ATOM     13  H   UNL     1      14.501  -7.404  -1.240  0.00  0.00    +0.000 HD
ATOM     14  H   UNL     1      19.215  -3.205   0.822  0.00  0.00    +0.000 HD
ENDROOT
TORSDOF 0
ENDMDL
MODEL 5
REMARK VINA RESULT:    -4.168     26.883     27.936
REMARK INTER + INTRA:          -4.168
REMARK INTER:                  -4.168
REMARK INTRA:                   0.000
REMARK UNBOUND:                 0.000
REMARK  Name = 7222
REMARK  0 active torsions:
REMARK  status: ('A' for Active; 'I' for Inactive)
REMARK                            x       y       z     vdW  Elec       q    Type
REMARK                         _______ _______ _______ _____ _____    ______ ____
ROOT
ATOM      1  S   UNL     1       0.123   4.459 -23.730  0.00  0.00    +0.000 S 
ATOM      2  N   UNL     1      -0.931   2.430 -22.538  0.00  0.00    +0.000 NA
ATOM      3  C   UNL     1       0.334   4.344 -22.023  0.00  0.00    +0.000 A 
ATOM      4  C   UNL     1      -0.302   3.188 -21.561  0.00  0.00    +0.000 A 
ATOM      5  C   UNL     1       1.014   5.214 -21.155  0.00  0.00    +0.000 A 
ATOM      6  C   UNL     1      -0.255   2.894 -20.181  0.00  0.00    +0.000 A 
ATOM      7  C   UNL     1       1.046   4.900 -19.794  0.00  0.00    +0.000 A 
ATOM      8  C   UNL     1       0.420   3.755 -19.310  0.00  0.00    +0.000 A 
ATOM      9  C   UNL     1      -0.772   3.002 -23.709  0.00  0.00    +0.000 A 
ATOM     10  H   UNL     1       1.504   6.109 -21.525  0.00  0.00    +0.000 HD
ATOM     11  H   UNL     1      -0.739   2.003 -19.793  0.00  0.00    +0.000 HD
ATOM     12  H   UNL     1       1.566   5.560 -19.105  0.00  0.00    +0.000 HD
ATOM     13  H   UNL     1       0.455   3.527 -18.249  0.00  0.00    +0.000 HD
ATOM     14  H   UNL     1      -1.183   2.578 -24.614  0.00  0.00    +0.000 HD
ENDROOT
TORSDOF 0
ENDMDL
MODEL 6
REMARK VINA RESULT:    -4.167     30.925     32.008
REMARK INTER + INTRA:          -4.167
REMARK INTER:                  -4.167
REMARK INTRA:                   0.000
REMARK UNBOUND:                 0.000
REMARK  Name = 7222
REMARK  0 active torsions:
REMARK  status: ('A' for Active; 'I' for Inactive)
REMARK                            x       y       z     vdW  Elec       q    Type
REMARK                         _______ _______ _______ _____ _____    ______ ____
ROOT
ATOM      1  S   UNL     1     -16.920  -4.574  -4.335  0.00  0.00    +0.000 S 
ATOM      2  N   UNL     1     -15.709  -6.561  -3.224  0.00  0.00    +0.000 NA
ATOM      3  C   UNL     1     -15.210  -4.673  -4.534  0.00  0.00    +0.000 A 
ATOM      4  C   UNL     1     -14.738  -5.808  -3.866  0.00  0.00    +0.000 A 
ATOM      5  C   UNL     1     -14.349  -3.810  -5.230  0.00  0.00    +0.000 A 
ATOM      6  C   UNL     1     -13.354  -6.085  -3.899  0.00  0.00    +0.000 A 
ATOM      7  C   UNL     1     -12.984  -4.108  -5.247  0.00  0.00    +0.000 A 
ATOM      8  C   UNL     1     -12.490  -5.231  -4.590  0.00  0.00    +0.000 A 
ATOM      9  C   UNL     1     -16.886  -6.008  -3.404  0.00  0.00    +0.000 A 
ATOM     10  H   UNL     1     -14.727  -2.933  -5.745  0.00  0.00    +0.000 HD
ATOM     11  H   UNL     1     -12.958  -6.959  -3.389  0.00  0.00    +0.000 HD
ATOM     12  H   UNL     1     -12.300  -3.453  -5.780  0.00  0.00    +0.000 HD
ATOM     13  H   UNL     1     -11.426  -5.446  -4.613  0.00  0.00    +0.000 HD
ATOM     14  H   UNL     1     -17.789  -6.432  -2.988  0.00  0.00    +0.000 HD
ENDROOT
TORSDOF 0
ENDMDL
MODEL 7
REMARK VINA RESULT:    -4.146      2.134      2.766
REMARK INTER + INTRA:          -4.146
REMARK INTER:                  -4.146
REMARK INTRA:                   0.000
REMARK UNBOUND:                 0.000
REMARK  Name = 7222
REMARK  0 active torsions:
REMARK  status: ('A' for Active; 'I' for Inactive)
REMARK                            x       y       z     vdW  Elec       q    Type
REMARK                         _______ _______ _______ _____ _____    ______ ____
ROOT
ATOM      1  S   UNL     1      19.547  -4.306  -1.175  0.00  0.00    +0.000 S 
ATOM      2  N   UNL     1      17.001  -4.172  -1.566  0.00  0.00    +0.000 NA
ATOM      3  C   UNL     1      18.902  -5.183  -2.512  0.00  0.00    +0.000 A 
ATOM      4  C   UNL     1      17.518  -4.989  -2.560  0.00  0.00    +0.000 A 
ATOM      5  C   UNL     1      19.571  -5.985  -3.450  0.00  0.00    +0.000 A 
ATOM      6  C   UNL     1      16.781  -5.621  -3.585  0.00  0.00    +0.000 A 
ATOM      7  C   UNL     1      18.819  -6.599  -4.454  0.00  0.00    +0.000 A 
ATOM      8  C   UNL     1      17.441  -6.421  -4.523  0.00  0.00    +0.000 A 
ATOM      9  C   UNL     1      17.973  -3.759  -0.786  0.00  0.00    +0.000 A 
ATOM     10  H   UNL     1      20.646  -6.128  -3.402  0.00  0.00    +0.000 HD
ATOM     11  H   UNL     1      15.705  -5.489  -3.648  0.00  0.00    +0.000 HD
ATOM     12  H   UNL     1      19.317  -7.223  -5.191  0.00  0.00    +0.000 HD
ATOM     13  H   UNL     1      16.872  -6.906  -5.311  0.00  0.00    +0.000 HD
ATOM     14  H   UNL     1      17.795  -3.108   0.058  0.00  0.00    +0.000 HD
ENDROOT
TORSDOF 0
ENDMDL
MODEL 8
REMARK VINA RESULT:    -4.119      2.240      2.941
REMARK INTER + INTRA:          -4.119
REMARK INTER:                  -4.119
REMARK INTRA:                   0.000
REMARK UNBOUND:                 0.000
REMARK  Name = 7222
REMARK  0 active torsions:
REMARK  status: ('A' for Active; 'I' for Inactive)
REMARK                            x       y       z     vdW  Elec       q    Type
REMARK                         _______ _______ _______ _____ _____    ______ ____
ROOT
ATOM      1  S   UNL     1      16.555  -4.535  -1.283  0.00  0.00    +0.000 S 
ATOM      2  N   UNL     1      19.077  -4.026  -1.453  0.00  0.00    +0.000 NA
ATOM      3  C   UNL     1      17.415  -5.222  -2.609  0.00  0.00    +0.000 A 
ATOM      4  C   UNL     1      18.757  -4.837  -2.532  0.00  0.00    +0.000 A 
ATOM      5  C   UNL     1      16.938  -6.042  -3.644  0.00  0.00    +0.000 A 
ATOM      6  C   UNL     1      19.650  -5.291  -3.526  0.00  0.00    +0.000 A 
ATOM      7  C   UNL     1      17.842  -6.478  -4.615  0.00  0.00    +0.000 A 
ATOM      8  C   UNL     1      19.182  -6.108  -4.560  0.00  0.00    +0.000 A 
ATOM      9  C   UNL     1      18.002  -3.805  -0.734  0.00  0.00    +0.000 A 
ATOM     10  H   UNL     1      15.893  -6.334  -3.694  0.00  0.00    +0.000 HD
ATOM     11  H   UNL     1      20.699  -5.009  -3.492  0.00  0.00    +0.000 HD
ATOM     12  H   UNL     1      17.493  -7.113  -5.425  0.00  0.00    +0.000 HD
ATOM     13  H   UNL     1      19.871  -6.456  -5.324  0.00  0.00    +0.000 HD
ATOM     14  H   UNL     1      18.023  -3.195   0.158  0.00  0.00    +0.000 HD
ENDROOT
TORSDOF 0
ENDMDL
MODEL 9
REMARK VINA RESULT:    -4.118      2.542      3.154
REMARK INTER + INTRA:          -4.118
REMARK INTER:                  -4.118
REMARK INTRA:                   0.000
REMARK UNBOUND:                 0.000
REMARK  Name = 7222
REMARK  0 active torsions:
REMARK  status: ('A' for Active; 'I' for Inactive)
REMARK                            x       y       z     vdW  Elec       q    Type
REMARK                         _______ _______ _______ _____ _____    ______ ____
ROOT
ATOM      1  S   UNL     1      21.092  -5.053  -3.519  0.00  0.00    +0.000 S 
ATOM      2  N   UNL     1      19.701  -3.500  -2.002  0.00  0.00    +0.000 NA
ATOM      3  C   UNL     1      19.380  -5.256  -3.532  0.00  0.00    +0.000 A 
ATOM      4  C   UNL     1      18.804  -4.333  -2.654  0.00  0.00    +0.000 A 
ATOM      5  C   UNL     1      18.603  -6.167  -4.265  0.00  0.00    +0.000 A 
ATOM      6  C   UNL     1      17.400  -4.323  -2.507  0.00  0.00    +0.000 A 
ATOM      7  C   UNL     1      17.216  -6.137  -4.102  0.00  0.00    +0.000 A 
ATOM      8  C   UNL     1      16.619  -5.227  -3.234  0.00  0.00    +0.000 A 
ATOM      9  C   UNL     1      20.924  -3.788  -2.379  0.00  0.00    +0.000 A 
ATOM     10  H   UNL     1      19.062  -6.880  -4.943  0.00  0.00    +0.000 HD
ATOM     11  H   UNL     1      16.924  -3.617  -1.833  0.00  0.00    +0.000 HD
ATOM     12  H   UNL     1      16.596  -6.833  -4.659  0.00  0.00    +0.000 HD
ATOM     13  H   UNL     1      15.539  -5.218  -3.120  0.00  0.00    +0.000 HD
ATOM     14  H   UNL     1      21.784  -3.259  -1.993  0.00  0.00    +0.000 HD
ENDROOT
TORSDOF 0
ENDMDL
MODEL 10
REMARK VINA RESULT:    -4.076     27.143     28.032
REMARK INTER + INTRA:          -4.076
REMARK INTER:                  -4.076
REMARK INTRA:                   0.000
REMARK UNBOUND:                 0.000
REMARK  Name = 7222
REMARK  0 active torsions:
REMARK  status: ('A' for Active; 'I' for Inactive)
REMARK                            x       y       z     vdW  Elec       q    Type
REMARK                         _______ _______ _______ _____ _____    ______ ____
ROOT
ATOM      1  S   UNL     1       1.164   6.204 -22.083  0.00  0.00    +0.000 S 
ATOM      2  N   UNL     1       0.733   4.870 -19.918  0.00  0.00    +0.000 NA
ATOM      3  C   UNL     1       0.268   4.737 -22.220  0.00  0.00    +0.000 A 
ATOM      4  C   UNL     1       0.138   4.161 -20.952  0.00  0.00    +0.000 A 
ATOM      5  C   UNL     1      -0.280   4.139 -23.366  0.00  0.00    +0.000 A 
ATOM      6  C   UNL     1      -0.566   2.944 -20.830  0.00  0.00    +0.000 A 
ATOM      7  C   UNL     1      -0.972   2.935 -23.218  0.00  0.00    +0.000 A 
ATOM      8  C   UNL     1      -1.115   2.343 -21.967  0.00  0.00    +0.000 A 
ATOM      9  C   UNL     1       1.298   5.954 -20.396  0.00  0.00    +0.000 A 
ATOM     10  H   UNL     1      -0.172   4.596 -24.345  0.00  0.00    +0.000 HD
ATOM     11  H   UNL     1      -0.684   2.473 -19.859  0.00  0.00    +0.000 HD
ATOM     12  H   UNL     1      -1.404   2.455 -24.092  0.00  0.00    +0.000 HD
ATOM     13  H   UNL     1      -1.656   1.406 -21.871  0.00  0.00    +0.000 HD
ATOM     14  H   UNL     1       1.822   6.655 -19.761  0.00  0.00    +0.000 HD
ENDROOT
TORSDOF 0
ENDMDL
