MODEL 1
REMARK VINA RESULT:    -5.117      0.000      0.000
REMARK INTER + INTRA:          -5.998
REMARK INTER:                  -5.853
REMARK INTRA:                  -0.145
REMARK UNBOUND:                -0.134
REMARK  Name = 249286
REMARK  4 active torsions:
REMARK  status: ('A' for Active; 'I' for Inactive)
REMARK    1  A    between atoms: C_2  and  C_7
REMARK    2  A    between atoms: C_5  and  C_9
REMARK    3  A    between atoms: C_7  and  C_10
REMARK    4  A    between atoms: C_7  and  C_11
REMARK                            x       y       z     vdW  Elec       q    Type
REMARK                         _______ _______ _______ _____ _____    ______ ____
ROOT
ATOM      1  O   UNL     1      -7.872 -13.053   7.198  0.00  0.00    +0.000 OA
ATOM      2  C   UNL     1      -7.214 -14.017   3.904  0.00  0.00    +0.000 C 
ATOM      3  C   UNL     1      -7.893 -15.289   4.525  0.00  0.00    +0.000 C 
ATOM      4  C   UNL     1      -7.419 -15.267   3.125  0.00  0.00    +0.000 C 
ATOM      5  C   UNL     1      -7.436 -15.132   5.946  0.00  0.00    +0.000 C 
ATOM      6  C   UNL     1      -7.879 -12.979   4.749  0.00  0.00    +0.000 C 
ATOM      7  C   UNL     1      -7.744 -13.632   6.132  0.00  0.00    +0.000 C 
ATOM      8  H   UNL     1      -8.984 -15.369   4.537  0.00  0.00    +0.000 HD
ATOM      9  H   UNL     1      -8.175 -15.209   2.340  0.00  0.00    +0.000 HD
ATOM     10  H   UNL     1      -6.803 -16.132   2.922  0.00  0.00    +0.000 HD
ATOM     11  H   UNL     1      -6.365 -15.322   6.064  0.00  0.00    +0.000 HD
ATOM     12  H   UNL     1      -8.943 -12.888   4.503  0.00  0.00    +0.000 HD
ATOM     13  H   UNL     1      -7.448 -11.981   4.770  0.00  0.00    +0.000 HD
ENDROOT
BRANCH   5  14
ATOM     14  C   UNL     1      -8.217 -15.993   6.919  0.00  0.00    +0.000 C 
ATOM     15  H   UNL     1      -7.544 -16.645   7.486  0.00  0.00    +0.000 HD
ATOM     16  H   UNL     1      -8.771 -15.386   7.644  0.00  0.00    +0.000 HD
ATOM     17  H   UNL     1      -8.939 -16.622   6.387  0.00  0.00    +0.000 HD
ENDBRANCH   5  14
BRANCH   2  18
ATOM     18  C   UNL     1      -5.718 -13.764   3.925  0.00  0.00    +0.000 C 
ATOM     19  H   UNL     1      -5.270 -14.066   4.879  0.00  0.00    +0.000 HD
BRANCH  18  20
ATOM     20  C   UNL     1      -5.012 -14.570   2.832  0.00  0.00    +0.000 C 
ATOM     21  H   UNL     1      -4.669 -15.559   3.157  0.00  0.00    +0.000 HD
ATOM     22  H   UNL     1      -5.733 -14.775   2.029  0.00  0.00    +0.000 HD
ATOM     23  H   UNL     1      -4.220 -14.004   2.328  0.00  0.00    +0.000 HD
ENDBRANCH  18  20
BRANCH  18  24
ATOM     24  C   UNL     1      -5.414 -12.273   3.764  0.00  0.00    +0.000 C 
ATOM     25  H   UNL     1      -4.482 -12.110   3.213  0.00  0.00    +0.000 HD
ATOM     26  H   UNL     1      -5.309 -11.789   4.743  0.00  0.00    +0.000 HD
ATOM     27  H   UNL     1      -6.217 -11.732   3.255  0.00  0.00    +0.000 HD
ENDBRANCH  18  24
ENDBRANCH   2  18
TORSDOF 4
ENDMDL
MODEL 2
REMARK VINA RESULT:    -4.986     24.494     25.969
REMARK INTER + INTRA:          -5.848
REMARK INTER:                  -5.736
REMARK INTRA:                  -0.112
REMARK UNBOUND:                -0.134
REMARK  Name = 249286
REMARK  4 active torsions:
REMARK  status: ('A' for Active; 'I' for Inactive)
REMARK    1  A    between atoms: C_2  and  C_7
REMARK    2  A    between atoms: C_5  and  C_9
REMARK    3  A    between atoms: C_7  and  C_10
REMARK    4  A    between atoms: C_7  and  C_11
REMARK                            x       y       z     vdW  Elec       q    Type
REMARK                         _______ _______ _______ _____ _____    ______ ____
ROOT
ATOM      1  O   UNL     1      17.373  -4.826   0.830  0.00  0.00    +0.000 OA
ATOM      2  C   UNL     1      16.206  -5.492  -2.396  0.00  0.00    +0.000 C 
ATOM      3  C   UNL     1      15.380  -6.483  -1.500  0.00  0.00    +0.000 C 
ATOM      4  C   UNL     1      15.219  -6.446  -2.970  0.00  0.00    +0.000 C 
ATOM      5  C   UNL     1      16.388  -6.715  -0.413  0.00  0.00    +0.000 C 
ATOM      6  C   UNL     1      16.417  -4.410  -1.387  0.00  0.00    +0.000 C 
ATOM      7  C   UNL     1      16.816  -5.253  -0.169  0.00  0.00    +0.000 C 
ATOM      8  H   UNL     1      14.456  -6.142  -1.025  0.00  0.00    +0.000 HD
ATOM      9  H   UNL     1      14.307  -5.994  -3.363  0.00  0.00    +0.000 HD
ATOM     10  H   UNL     1      15.294  -7.443  -3.382  0.00  0.00    +0.000 HD
ATOM     11  H   UNL     1      17.239  -7.314  -0.751  0.00  0.00    +0.000 HD
ATOM     12  H   UNL     1      15.481  -3.886  -1.164  0.00  0.00    +0.000 HD
ATOM     13  H   UNL     1      17.185  -3.665  -1.586  0.00  0.00    +0.000 HD
ENDROOT
BRANCH   5  14
ATOM     14  C   UNL     1      15.786  -7.341   0.830  0.00  0.00    +0.000 C 
ATOM     15  H   UNL     1      16.263  -6.945   1.733  0.00  0.00    +0.000 HD
ATOM     16  H   UNL     1      14.713  -7.134   0.910  0.00  0.00    +0.000 HD
ATOM     17  H   UNL     1      15.918  -8.429   0.819  0.00  0.00    +0.000 HD
ENDBRANCH   5  14
BRANCH   2  18
ATOM     18  C   UNL     1      17.546  -5.835  -3.018  0.00  0.00    +0.000 C 
ATOM     19  H   UNL     1      18.081  -6.593  -2.434  0.00  0.00    +0.000 HD
BRANCH  18  20
ATOM     20  C   UNL     1      17.366  -6.408  -4.425  0.00  0.00    +0.000 C 
ATOM     21  H   UNL     1      16.632  -5.870  -5.036  0.00  0.00    +0.000 HD
ATOM     22  H   UNL     1      18.314  -6.302  -4.970  0.00  0.00    +0.000 HD
ATOM     23  H   UNL     1      17.188  -7.490  -4.427  0.00  0.00    +0.000 HD
ENDBRANCH  18  20
BRANCH  18  24
ATOM     24  C   UNL     1      18.458  -4.607  -3.060  0.00  0.00    +0.000 C 
ATOM     25  H   UNL     1      18.229  -3.964  -3.917  0.00  0.00    +0.000 HD
ATOM     26  H   UNL     1      19.510  -4.905  -3.142  0.00  0.00    +0.000 HD
ATOM     27  H   UNL     1      18.396  -4.005  -2.149  0.00  0.00    +0.000 HD
ENDBRANCH  18  24
ENDBRANCH   2  18
TORSDOF 4
ENDMDL
MODEL 3
REMARK VINA RESULT:    -4.896      1.738      3.617
REMARK INTER + INTRA:          -5.745
REMARK INTER:                  -5.650
REMARK INTRA:                  -0.095
REMARK UNBOUND:                -0.134
REMARK  Name = 249286
REMARK  4 active torsions:
REMARK  status: ('A' for Active; 'I' for Inactive)
REMARK    1  A    between atoms: C_2  and  C_7
REMARK    2  A    between atoms: C_5  and  C_9
REMARK    3  A    between atoms: C_7  and  C_10
REMARK    4  A    between atoms: C_7  and  C_11
REMARK                            x       y       z     vdW  Elec       q    Type
REMARK                         _______ _______ _______ _____ _____    ______ ____
ROOT
ATOM      1  O   UNL     1      -5.762 -12.164   3.693  0.00  0.00    +0.000 OA
ATOM      2  C   UNL     1      -7.174 -15.218   4.638  0.00  0.00    +0.000 C 
ATOM      3  C   UNL     1      -7.196 -15.279   3.069  0.00  0.00    +0.000 C 
ATOM      4  C   UNL     1      -7.735 -16.379   3.896  0.00  0.00    +0.000 C 
ATOM      5  C   UNL     1      -7.350 -13.815   2.778  0.00  0.00    +0.000 C 
ATOM      6  C   UNL     1      -5.979 -14.336   4.806  0.00  0.00    +0.000 C 
ATOM      7  C   UNL     1      -6.286 -13.265   3.751  0.00  0.00    +0.000 C 
ATOM      8  H   UNL     1      -6.313 -15.631   2.528  0.00  0.00    +0.000 HD
ATOM      9  H   UNL     1      -7.149 -17.297   3.954  0.00  0.00    +0.000 HD
ATOM     10  H   UNL     1      -8.730 -16.646   3.567  0.00  0.00    +0.000 HD
ATOM     11  H   UNL     1      -8.343 -13.437   3.040  0.00  0.00    +0.000 HD
ATOM     12  H   UNL     1      -5.058 -14.857   4.524  0.00  0.00    +0.000 HD
ATOM     13  H   UNL     1      -5.821 -13.864   5.773  0.00  0.00    +0.000 HD
ENDROOT
BRANCH   5  14
ATOM     14  C   UNL     1      -7.033 -13.460   1.338  0.00  0.00    +0.000 C 
ATOM     15  H   UNL     1      -6.124 -13.972   1.004  0.00  0.00    +0.000 HD
ATOM     16  H   UNL     1      -7.841 -13.756   0.660  0.00  0.00    +0.000 HD
ATOM     17  H   UNL     1      -6.881 -12.381   1.228  0.00  0.00    +0.000 HD
ENDBRANCH   5  14
BRANCH   2  18
ATOM     18  C   UNL     1      -8.306 -14.655   5.476  0.00  0.00    +0.000 C 
ATOM     19  H   UNL     1      -8.902 -13.927   4.914  0.00  0.00    +0.000 HD
BRANCH  18  20
ATOM     20  C   UNL     1      -9.264 -15.764   5.917  0.00  0.00    +0.000 C 
ATOM     21  H   UNL     1      -8.847 -16.441   6.672  0.00  0.00    +0.000 HD
ATOM     22  H   UNL     1     -10.132 -15.301   6.406  0.00  0.00    +0.000 HD
ATOM     23  H   UNL     1      -9.704 -16.309   5.074  0.00  0.00    +0.000 HD
ENDBRANCH  18  20
BRANCH  18  24
ATOM     24  C   UNL     1      -7.762 -13.909   6.697  0.00  0.00    +0.000 C 
ATOM     25  H   UNL     1      -8.120 -14.353   7.632  0.00  0.00    +0.000 HD
ATOM     26  H   UNL     1      -8.080 -12.860   6.686  0.00  0.00    +0.000 HD
ATOM     27  H   UNL     1      -6.669 -13.883   6.722  0.00  0.00    +0.000 HD
ENDBRANCH  18  24
ENDBRANCH   2  18
TORSDOF 4
ENDMDL
MODEL 4
REMARK VINA RESULT:    -4.849     27.615     28.993
REMARK INTER + INTRA:          -5.692
REMARK INTER:                  -5.549
REMARK INTRA:                  -0.143
REMARK UNBOUND:                -0.134
REMARK  Name = 249286
REMARK  4 active torsions:
REMARK  status: ('A' for Active; 'I' for Inactive)
REMARK    1  A    between atoms: C_2  and  C_7
REMARK    2  A    between atoms: C_5  and  C_9
REMARK    3  A    between atoms: C_7  and  C_10
REMARK    4  A    between atoms: C_7  and  C_11
REMARK                            x       y       z     vdW  Elec       q    Type
REMARK                         _______ _______ _______ _____ _____    ______ ____
ROOT
ATOM      1  O   UNL     1      -2.173   3.284  28.518  0.00  0.00    +0.000 OA
ATOM      2  C   UNL     1      -4.683   4.963  26.756  0.00  0.00    +0.000 C 
ATOM      3  C   UNL     1      -5.482   4.131  27.822  0.00  0.00    +0.000 C 
ATOM      4  C   UNL     1      -6.168   4.984  26.829  0.00  0.00    +0.000 C 
ATOM      5  C   UNL     1      -4.553   2.960  27.955  0.00  0.00    +0.000 C 
ATOM      6  C   UNL     1      -3.418   5.150  27.529  0.00  0.00    +0.000 C 
ATOM      7  C   UNL     1      -3.218   3.726  28.067  0.00  0.00    +0.000 C 
ATOM      8  H   UNL     1      -5.638   4.542  28.824  0.00  0.00    +0.000 HD
ATOM      9  H   UNL     1      -6.604   5.919  27.186  0.00  0.00    +0.000 HD
ATOM     10  H   UNL     1      -6.950   4.428  26.330  0.00  0.00    +0.000 HD
ATOM     11  H   UNL     1      -4.555   2.320  27.067  0.00  0.00    +0.000 HD
ATOM     12  H   UNL     1      -3.566   5.831  28.375  0.00  0.00    +0.000 HD
ATOM     13  H   UNL     1      -2.528   5.466  26.989  0.00  0.00    +0.000 HD
ENDROOT
BRANCH   5  14
ATOM     14  C   UNL     1      -4.827   2.122  29.188  0.00  0.00    +0.000 C 
ATOM     15  H   UNL     1      -4.685   1.057  28.972  0.00  0.00    +0.000 HD
ATOM     16  H   UNL     1      -4.153   2.380  30.013  0.00  0.00    +0.000 HD
ATOM     17  H   UNL     1      -5.855   2.269  29.536  0.00  0.00    +0.000 HD
ENDBRANCH   5  14
BRANCH   2  18
ATOM     18  C   UNL     1      -4.327   4.444  25.376  0.00  0.00    +0.000 C 
ATOM     19  H   UNL     1      -4.035   3.387  25.403  0.00  0.00    +0.000 HD
BRANCH  18  20
ATOM     20  C   UNL     1      -5.525   4.545  24.429  0.00  0.00    +0.000 C 
ATOM     21  H   UNL     1      -6.158   3.651  24.412  0.00  0.00    +0.000 HD
ATOM     22  H   UNL     1      -6.186   5.348  24.786  0.00  0.00    +0.000 HD
ATOM     23  H   UNL     1      -5.247   4.871  23.420  0.00  0.00    +0.000 HD
ENDBRANCH  18  20
BRANCH  18  24
ATOM     24  C   UNL     1      -3.131   5.203  24.799  0.00  0.00    +0.000 C 
ATOM     25  H   UNL     1      -3.442   5.927  24.038  0.00  0.00    +0.000 HD
ATOM     26  H   UNL     1      -2.421   4.513  24.328  0.00  0.00    +0.000 HD
ATOM     27  H   UNL     1      -2.558   5.732  25.566  0.00  0.00    +0.000 HD
ENDBRANCH  18  24
ENDBRANCH   2  18
TORSDOF 4
ENDMDL
MODEL 5
REMARK VINA RESULT:    -4.771     25.809     27.811
REMARK INTER + INTRA:          -5.602
REMARK INTER:                  -5.459
REMARK INTRA:                  -0.143
REMARK UNBOUND:                -0.134
REMARK  Name = 249286
REMARK  4 active torsions:
REMARK  status: ('A' for Active; 'I' for Inactive)
REMARK    1  A    between atoms: C_2  and  C_7
REMARK    2  A    between atoms: C_5  and  C_9
REMARK    3  A    between atoms: C_7  and  C_10
REMARK    4  A    between atoms: C_7  and  C_11
REMARK                            x       y       z     vdW  Elec       q    Type
REMARK                         _______ _______ _______ _____ _____    ______ ____
ROOT
ATOM      1  O   UNL     1      17.123  -3.927  -0.885  0.00  0.00    +0.000 OA
ATOM      2  C   UNL     1      18.582  -5.407  -3.694  0.00  0.00    +0.000 C 
ATOM      3  C   UNL     1      17.154  -6.059  -3.641  0.00  0.00    +0.000 C 
ATOM      4  C   UNL     1      18.138  -6.428  -4.681  0.00  0.00    +0.000 C 
ATOM      5  C   UNL     1      16.936  -6.031  -2.157  0.00  0.00    +0.000 C 
ATOM      6  C   UNL     1      18.248  -4.099  -3.054  0.00  0.00    +0.000 C 
ATOM      7  C   UNL     1      17.396  -4.586  -1.875  0.00  0.00    +0.000 C 
ATOM      8  H   UNL     1      16.308  -5.547  -4.108  0.00  0.00    +0.000 HD
ATOM      9  H   UNL     1      17.964  -6.055  -5.692  0.00  0.00    +0.000 HD
ATOM     10  H   UNL     1      18.238  -7.503  -4.742  0.00  0.00    +0.000 HD
ATOM     11  H   UNL     1      17.571  -6.748  -1.627  0.00  0.00    +0.000 HD
ATOM     12  H   UNL     1      17.625  -3.482  -3.712  0.00  0.00    +0.000 HD
ATOM     13  H   UNL     1      19.067  -3.484  -2.687  0.00  0.00    +0.000 HD
ENDROOT
BRANCH   5  14
ATOM     14  C   UNL     1      15.487  -6.248  -1.766  0.00  0.00    +0.000 C 
ATOM     15  H   UNL     1      14.833  -6.162  -2.641  0.00  0.00    +0.000 HD
ATOM     16  H   UNL     1      15.327  -7.243  -1.337  0.00  0.00    +0.000 HD
ATOM     17  H   UNL     1      15.170  -5.507  -1.025  0.00  0.00    +0.000 HD
ENDBRANCH   5  14
BRANCH   2  18
ATOM     18  C   UNL     1      19.798  -5.985  -2.996  0.00  0.00    +0.000 C 
ATOM     19  H   UNL     1      19.550  -6.367  -1.999  0.00  0.00    +0.000 HD
BRANCH  18  20
ATOM     20  C   UNL     1      20.376  -7.160  -3.788  0.00  0.00    +0.000 C 
ATOM     21  H   UNL     1      20.077  -8.144  -3.409  0.00  0.00    +0.000 HD
ATOM     22  H   UNL     1      19.977  -7.122  -4.811  0.00  0.00    +0.000 HD
ATOM     23  H   UNL     1      21.460  -7.087  -3.932  0.00  0.00    +0.000 HD
ENDBRANCH  18  20
BRANCH  18  24
ATOM     24  C   UNL     1      20.869  -4.911  -2.787  0.00  0.00    +0.000 C 
ATOM     25  H   UNL     1      21.360  -4.643  -3.729  0.00  0.00    +0.000 HD
ATOM     26  H   UNL     1      21.645  -5.263  -2.097  0.00  0.00    +0.000 HD
ATOM     27  H   UNL     1      20.468  -4.000  -2.335  0.00  0.00    +0.000 HD
ENDBRANCH  18  24
ENDBRANCH   2  18
TORSDOF 4
ENDMDL
MODEL 6
REMARK VINA RESULT:    -4.637      1.911      3.993
REMARK INTER + INTRA:          -5.448
REMARK INTER:                  -5.350
REMARK INTRA:                  -0.098
REMARK UNBOUND:                -0.134
REMARK  Name = 249286
REMARK  4 active torsions:
REMARK  status: ('A' for Active; 'I' for Inactive)
REMARK    1  A    between atoms: C_2  and  C_7
REMARK    2  A    between atoms: C_5  and  C_9
REMARK    3  A    between atoms: C_7  and  C_10
REMARK    4  A    between atoms: C_7  and  C_11
REMARK                            x       y       z     vdW  Elec       q    Type
REMARK                         _______ _______ _______ _____ _____    ______ ____
ROOT
ATOM      1  O   UNL     1      -5.208 -14.798   2.473  0.00  0.00    +0.000 OA
ATOM      2  C   UNL     1      -7.810 -14.407   4.775  0.00  0.00    +0.000 C 
ATOM      3  C   UNL     1      -7.265 -12.945   4.591  0.00  0.00    +0.000 C 
ATOM      4  C   UNL     1      -8.376 -13.250   5.519  0.00  0.00    +0.000 C 
ATOM      5  C   UNL     1      -5.827 -13.263   4.302  0.00  0.00    +0.000 C 
ATOM      6  C   UNL     1      -7.463 -14.940   3.422  0.00  0.00    +0.000 C 
ATOM      7  C   UNL     1      -6.035 -14.397   3.278  0.00  0.00    +0.000 C 
ATOM      8  H   UNL     1      -7.638 -12.328   3.769  0.00  0.00    +0.000 HD
ATOM      9  H   UNL     1      -9.379 -12.946   5.216  0.00  0.00    +0.000 HD
ATOM     10  H   UNL     1      -8.184 -12.819   6.491  0.00  0.00    +0.000 HD
ATOM     11  H   UNL     1      -5.294 -13.632   5.183  0.00  0.00    +0.000 HD
ATOM     12  H   UNL     1      -8.092 -14.493   2.645  0.00  0.00    +0.000 HD
ATOM     13  H   UNL     1      -7.462 -16.019   3.281  0.00  0.00    +0.000 HD
ENDROOT
BRANCH   5  14
ATOM     14  C   UNL     1      -5.071 -12.093   3.702  0.00  0.00    +0.000 C 
ATOM     15  H   UNL     1      -5.653 -11.625   2.901  0.00  0.00    +0.000 HD
ATOM     16  H   UNL     1      -4.862 -11.319   4.449  0.00  0.00    +0.000 HD
ATOM     17  H   UNL     1      -4.113 -12.423   3.285  0.00  0.00    +0.000 HD
ENDBRANCH   5  14
BRANCH   2  18
ATOM     18  C   UNL     1      -7.289 -15.375   5.819  0.00  0.00    +0.000 C 
ATOM     19  H   UNL     1      -6.257 -15.143   6.109  0.00  0.00    +0.000 HD
BRANCH  18  20
ATOM     20  C   UNL     1      -8.131 -15.309   7.095  0.00  0.00    +0.000 C 
ATOM     21  H   UNL     1      -8.401 -16.290   7.503  0.00  0.00    +0.000 HD
ATOM     22  H   UNL     1      -7.532 -14.834   7.884  0.00  0.00    +0.000 HD
ATOM     23  H   UNL     1      -9.001 -14.649   6.999  0.00  0.00    +0.000 HD
ENDBRANCH  18  20
BRANCH  18  24
ATOM     24  C   UNL     1      -7.266 -16.805   5.274  0.00  0.00    +0.000 C 
ATOM     25  H   UNL     1      -8.091 -17.403   5.676  0.00  0.00    +0.000 HD
ATOM     26  H   UNL     1      -6.330 -17.310   5.542  0.00  0.00    +0.000 HD
ATOM     27  H   UNL     1      -7.314 -16.840   4.182  0.00  0.00    +0.000 HD
ENDBRANCH  18  24
ENDBRANCH   2  18
TORSDOF 4
ENDMDL
MODEL 7
REMARK VINA RESULT:    -4.587      1.690      2.470
REMARK INTER + INTRA:          -5.391
REMARK INTER:                  -5.258
REMARK INTRA:                  -0.133
REMARK UNBOUND:                -0.134
REMARK  Name = 249286
REMARK  4 active torsions:
REMARK  status: ('A' for Active; 'I' for Inactive)
REMARK    1  A    between atoms: C_2  and  C_7
REMARK    2  A    between atoms: C_5  and  C_9
REMARK    3  A    between atoms: C_7  and  C_10
REMARK    4  A    between atoms: C_7  and  C_11
REMARK                            x       y       z     vdW  Elec       q    Type
REMARK                         _______ _______ _______ _____ _____    ______ ____
ROOT
ATOM      1  O   UNL     1      -5.768 -16.881   6.155  0.00  0.00    +0.000 OA
ATOM      2  C   UNL     1      -6.488 -13.953   4.387  0.00  0.00    +0.000 C 
ATOM      3  C   UNL     1      -7.574 -13.969   5.521  0.00  0.00    +0.000 C 
ATOM      4  C   UNL     1      -7.526 -12.895   4.506  0.00  0.00    +0.000 C 
ATOM      5  C   UNL     1      -7.723 -15.453   5.686  0.00  0.00    +0.000 C 
ATOM      6  C   UNL     1      -5.409 -14.695   5.108  0.00  0.00    +0.000 C 
ATOM      7  C   UNL     1      -6.231 -15.841   5.715  0.00  0.00    +0.000 C 
ATOM      8  H   UNL     1      -7.337 -13.550   6.503  0.00  0.00    +0.000 HD
ATOM      9  H   UNL     1      -7.162 -11.917   4.826  0.00  0.00    +0.000 HD
ATOM     10  H   UNL     1      -8.502 -12.751   4.063  0.00  0.00    +0.000 HD
ATOM     11  H   UNL     1      -8.227 -15.921   4.835  0.00  0.00    +0.000 HD
ATOM     12  H   UNL     1      -4.988 -14.092   5.920  0.00  0.00    +0.000 HD
ATOM     13  H   UNL     1      -4.587 -15.102   4.523  0.00  0.00    +0.000 HD
ENDROOT
BRANCH   5  14
ATOM     14  C   UNL     1      -8.431 -15.838   6.971  0.00  0.00    +0.000 C 
ATOM     15  H   UNL     1      -8.176 -15.141   7.777  0.00  0.00    +0.000 HD
ATOM     16  H   UNL     1      -9.520 -15.820   6.856  0.00  0.00    +0.000 HD
ATOM     17  H   UNL     1      -8.143 -16.847   7.285  0.00  0.00    +0.000 HD
ENDBRANCH   5  14
BRANCH   2  18
ATOM     18  C   UNL     1      -6.681 -14.594   3.026  0.00  0.00    +0.000 C 
ATOM     19  H   UNL     1      -7.318 -15.485   3.084  0.00  0.00    +0.000 HD
BRANCH  18  20
ATOM     20  C   UNL     1      -7.365 -13.626   2.058  0.00  0.00    +0.000 C 
ATOM     21  H   UNL     1      -8.361 -13.300   2.380  0.00  0.00    +0.000 HD
ATOM     22  H   UNL     1      -6.771 -12.702   2.011  0.00  0.00    +0.000 HD
ATOM     23  H   UNL     1      -7.364 -13.985   1.022  0.00  0.00    +0.000 HD
ENDBRANCH  18  20
BRANCH  18  24
ATOM     24  C   UNL     1      -5.344 -15.064   2.449  0.00  0.00    +0.000 C 
ATOM     25  H   UNL     1      -5.428 -16.057   1.996  0.00  0.00    +0.000 HD
ATOM     26  H   UNL     1      -4.579 -15.120   3.232  0.00  0.00    +0.000 HD
ATOM     27  H   UNL     1      -4.944 -14.374   1.700  0.00  0.00    +0.000 HD
ENDBRANCH  18  24
ENDBRANCH   2  18
TORSDOF 4
ENDMDL
MODEL 8
REMARK VINA RESULT:    -4.471     14.405     15.310
REMARK INTER + INTRA:          -5.258
REMARK INTER:                  -5.129
REMARK INTRA:                  -0.129
REMARK UNBOUND:                -0.134
REMARK  Name = 249286
REMARK  4 active torsions:
REMARK  status: ('A' for Active; 'I' for Inactive)
REMARK    1  A    between atoms: C_2  and  C_7
REMARK    2  A    between atoms: C_5  and  C_9
REMARK    3  A    between atoms: C_7  and  C_10
REMARK    4  A    between atoms: C_7  and  C_11
REMARK                            x       y       z     vdW  Elec       q    Type
REMARK                         _______ _______ _______ _____ _____    ______ ____
ROOT
ATOM      1  O   UNL     1     -17.468  -3.621  -3.233  0.00  0.00    +0.000 OA
ATOM      2  C   UNL     1     -14.979  -5.242  -5.074  0.00  0.00    +0.000 C 
ATOM      3  C   UNL     1     -15.659  -6.411  -4.276  0.00  0.00    +0.000 C 
ATOM      4  C   UNL     1     -14.513  -6.651  -5.180  0.00  0.00    +0.000 C 
ATOM      5  C   UNL     1     -16.077  -5.650  -3.052  0.00  0.00    +0.000 C 
ATOM      6  C   UNL     1     -16.160  -4.333  -5.179  0.00  0.00    +0.000 C 
ATOM      7  C   UNL     1     -16.687  -4.410  -3.739  0.00  0.00    +0.000 C 
ATOM      8  H   UNL     1     -16.550  -6.898  -4.682  0.00  0.00    +0.000 HD
ATOM      9  H   UNL     1     -14.721  -7.141  -6.133  0.00  0.00    +0.000 HD
ATOM     10  H   UNL     1     -13.749  -7.226  -4.676  0.00  0.00    +0.000 HD
ATOM     11  H   UNL     1     -15.227  -5.364  -2.425  0.00  0.00    +0.000 HD
ATOM     12  H   UNL     1     -16.918  -4.743  -5.856  0.00  0.00    +0.000 HD
ATOM     13  H   UNL     1     -15.987  -3.294  -5.451  0.00  0.00    +0.000 HD
ENDROOT
BRANCH   5  14
ATOM     14  C   UNL     1     -17.102  -6.391  -2.215  0.00  0.00    +0.000 C 
ATOM     15  H   UNL     1     -17.423  -5.778  -1.365  0.00  0.00    +0.000 HD
ATOM     16  H   UNL     1     -17.997  -6.640  -2.795  0.00  0.00    +0.000 HD
ATOM     17  H   UNL     1     -16.683  -7.326  -1.827  0.00  0.00    +0.000 HD
ENDBRANCH   5  14
BRANCH   2  18
ATOM     18  C   UNL     1     -13.802  -4.439  -4.554  0.00  0.00    +0.000 C 
ATOM     19  H   UNL     1     -13.951  -4.129  -3.513  0.00  0.00    +0.000 HD
BRANCH  18  20
ATOM     20  C   UNL     1     -12.517  -5.269  -4.587  0.00  0.00    +0.000 C 
ATOM     21  H   UNL     1     -12.104  -5.492  -3.596  0.00  0.00    +0.000 HD
ATOM     22  H   UNL     1     -12.746  -6.252  -5.022  0.00  0.00    +0.000 HD
ATOM     23  H   UNL     1     -11.760  -4.858  -5.265  0.00  0.00    +0.000 HD
ENDBRANCH  18  20
BRANCH  18  24
ATOM     24  C   UNL     1     -13.621  -3.151  -5.361  0.00  0.00    +0.000 C 
ATOM     25  H   UNL     1     -12.564  -2.879  -5.453  0.00  0.00    +0.000 HD
ATOM     26  H   UNL     1     -14.138  -2.313  -4.879  0.00  0.00    +0.000 HD
ATOM     27  H   UNL     1     -14.049  -3.220  -6.365  0.00  0.00    +0.000 HD
ENDBRANCH  18  24
ENDBRANCH   2  18
TORSDOF 4
ENDMDL
MODEL 9
REMARK VINA RESULT:    -4.410     25.118     27.288
REMARK INTER + INTRA:          -5.188
REMARK INTER:                  -5.060
REMARK INTRA:                  -0.128
REMARK UNBOUND:                -0.134
REMARK  Name = 249286
REMARK  4 active torsions:
REMARK  status: ('A' for Active; 'I' for Inactive)
REMARK    1  A    between atoms: C_2  and  C_7
REMARK    2  A    between atoms: C_5  and  C_9
REMARK    3  A    between atoms: C_7  and  C_10
REMARK    4  A    between atoms: C_7  and  C_11
REMARK                            x       y       z     vdW  Elec       q    Type
REMARK                         _______ _______ _______ _____ _____    ______ ____
ROOT
ATOM      1  O   UNL     1      19.066  -6.993  -4.282  0.00  0.00    +0.000 OA
ATOM      2  C   UNL     1      16.885  -5.134  -2.281  0.00  0.00    +0.000 C 
ATOM      3  C   UNL     1      18.305  -4.681  -1.787  0.00  0.00    +0.000 C 
ATOM      4  C   UNL     1      17.066  -4.151  -1.179  0.00  0.00    +0.000 C 
ATOM      5  C   UNL     1      19.062  -5.950  -2.046  0.00  0.00    +0.000 C 
ATOM      6  C   UNL     1      17.241  -5.467  -3.694  0.00  0.00    +0.000 C 
ATOM      7  C   UNL     1      18.537  -6.256  -3.465  0.00  0.00    +0.000 C 
ATOM      8  H   UNL     1      18.827  -3.874  -2.308  0.00  0.00    +0.000 HD
ATOM      9  H   UNL     1      16.788  -3.123  -1.421  0.00  0.00    +0.000 HD
ATOM     10  H   UNL     1      17.109  -4.234  -0.102  0.00  0.00    +0.000 HD
ATOM     11  H   UNL     1      18.787  -6.752  -1.354  0.00  0.00    +0.000 HD
ATOM     12  H   UNL     1      17.472  -4.564  -4.269  0.00  0.00    +0.000 HD
ATOM     13  H   UNL     1      16.542  -6.069  -4.271  0.00  0.00    +0.000 HD
ENDROOT
BRANCH   5  14
ATOM     14  C   UNL     1      20.566  -5.758  -2.031  0.00  0.00    +0.000 C 
ATOM     15  H   UNL     1      21.048  -6.524  -1.414  0.00  0.00    +0.000 HD
ATOM     16  H   UNL     1      20.995  -5.831  -3.036  0.00  0.00    +0.000 HD
ATOM     17  H   UNL     1      20.827  -4.774  -1.625  0.00  0.00    +0.000 HD
ENDBRANCH   5  14
BRANCH   2  18
ATOM     18  C   UNL     1      16.121  -6.304  -1.692  0.00  0.00    +0.000 C 
ATOM     19  H   UNL     1      16.761  -7.185  -1.568  0.00  0.00    +0.000 HD
BRANCH  18  20
ATOM     20  C   UNL     1      15.576  -5.958  -0.304  0.00  0.00    +0.000 C 
ATOM     21  H   UNL     1      15.911  -6.635   0.490  0.00  0.00    +0.000 HD
ATOM     22  H   UNL     1      15.965  -4.972  -0.012  0.00  0.00    +0.000 HD
ATOM     23  H   UNL     1      14.489  -5.818  -0.294  0.00  0.00    +0.000 HD
ENDBRANCH  18  20
BRANCH  18  24
ATOM     24  C   UNL     1      14.979  -6.733  -2.617  0.00  0.00    +0.000 C 
ATOM     25  H   UNL     1      14.721  -7.788  -2.475  0.00  0.00    +0.000 HD
ATOM     26  H   UNL     1      15.259  -6.598  -3.669  0.00  0.00    +0.000 HD
ATOM     27  H   UNL     1      14.076  -6.133  -2.475  0.00  0.00    +0.000 HD
ENDBRANCH  18  24
ENDBRANCH   2  18
TORSDOF 4
ENDMDL
MODEL 10
REMARK VINA RESULT:    -4.360      4.883      6.474
REMARK INTER + INTRA:          -5.131
REMARK INTER:                  -4.997
REMARK INTRA:                  -0.134
REMARK UNBOUND:                -0.134
REMARK  Name = 249286
REMARK  4 active torsions:
REMARK  status: ('A' for Active; 'I' for Inactive)
REMARK    1  A    between atoms: C_2  and  C_7
REMARK    2  A    between atoms: C_5  and  C_9
REMARK    3  A    between atoms: C_7  and  C_10
REMARK    4  A    between atoms: C_7  and  C_11
REMARK                            x       y       z     vdW  Elec       q    Type
REMARK                         _______ _______ _______ _____ _____    ______ ____
ROOT
ATOM      1  O   UNL     1      -4.112 -14.497   2.799  0.00  0.00    +0.000 OA
ATOM      2  C   UNL     1      -1.880 -15.748   0.418  0.00  0.00    +0.000 C 
ATOM      3  C   UNL     1      -3.236 -15.653  -0.369  0.00  0.00    +0.000 C 
ATOM      4  C   UNL     1      -2.003 -16.170  -1.003  0.00  0.00    +0.000 C 
ATOM      5  C   UNL     1      -4.187 -15.892   0.767  0.00  0.00    +0.000 C 
ATOM      6  C   UNL     1      -2.114 -14.635   1.388  0.00  0.00    +0.000 C 
ATOM      7  C   UNL     1      -3.557 -14.943   1.808  0.00  0.00    +0.000 C 
ATOM      8  H   UNL     1      -3.521 -14.711  -0.846  0.00  0.00    +0.000 HD
ATOM      9  H   UNL     1      -1.503 -15.525  -1.727  0.00  0.00    +0.000 HD
ATOM     10  H   UNL     1      -2.197 -17.117  -1.488  0.00  0.00    +0.000 HD
ATOM     11  H   UNL     1      -4.162 -16.926   1.124  0.00  0.00    +0.000 HD
ATOM     12  H   UNL     1      -2.090 -13.660   0.888  0.00  0.00    +0.000 HD
ATOM     13  H   UNL     1      -1.478 -14.580   2.269  0.00  0.00    +0.000 HD
ENDROOT
BRANCH   5  14
ATOM     14  C   UNL     1      -5.614 -15.500   0.437  0.00  0.00    +0.000 C 
ATOM     15  H   UNL     1      -5.732 -14.411   0.461  0.00  0.00    +0.000 HD
ATOM     16  H   UNL     1      -5.907 -15.838  -0.563  0.00  0.00    +0.000 HD
ATOM     17  H   UNL     1      -6.313 -15.938   1.158  0.00  0.00    +0.000 HD
ENDBRANCH   5  14
BRANCH   2  18
ATOM     18  C   UNL     1      -1.440 -16.974   1.194  0.00  0.00    +0.000 C 
ATOM     19  H   UNL     1      -2.295 -17.518   1.613  0.00  0.00    +0.000 HD
BRANCH  18  20
ATOM     20  C   UNL     1      -0.694 -17.956   0.288  0.00  0.00    +0.000 C 
ATOM     21  H   UNL     1      -0.043 -17.475  -0.452  0.00  0.00    +0.000 HD
ATOM     22  H   UNL     1      -0.014 -18.557   0.908  0.00  0.00    +0.000 HD
ATOM     23  H   UNL     1      -1.354 -18.703  -0.168  0.00  0.00    +0.000 HD
ENDBRANCH  18  20
BRANCH  18  24
ATOM     24  C   UNL     1      -0.561 -16.580   2.384  0.00  0.00    +0.000 C 
ATOM     25  H   UNL     1      -0.437 -17.413   3.085  0.00  0.00    +0.000 HD
ATOM     26  H   UNL     1      -1.006 -15.745   2.938  0.00  0.00    +0.000 HD
ATOM     27  H   UNL     1       0.430 -16.234   2.079  0.00  0.00    +0.000 HD
ENDBRANCH  18  24
ENDBRANCH   2  18
TORSDOF 4
ENDMDL
