MODEL 1
REMARK VINA RESULT:    -3.541      0.000      0.000
REMARK INTER + INTRA:          -4.829
REMARK INTER:                  -4.711
REMARK INTRA:                  -0.118
REMARK UNBOUND:                -0.253
REMARK  Name = 31272
REMARK  6 active torsions:
REMARK  status: ('A' for Active; 'I' for Inactive)
REMARK    1  A    between atoms: O_1  and  C_5
REMARK    2  A    between atoms: O_1  and  C_7
REMARK    3  A    between atoms: C_3  and  C_4
REMARK    4  A    between atoms: C_3  and  C_5
REMARK    5  A    between atoms: C_4  and  C_6
REMARK    6  A    between atoms: C_7  and  C_8
REMARK                            x       y       z     vdW  Elec       q    Type
REMARK                         _______ _______ _______ _____ _____    ______ ____
ROOT
ATOM      1  C   UNL     1      15.538  -6.029  -2.367  0.00  0.00    +0.000 C 
ATOM      2  H   UNL     1      15.599  -7.110  -2.542  0.00  0.00    +0.000 HD
ATOM      3  H   UNL     1      14.563  -5.716  -2.761  0.00  0.00    +0.000 HD
ENDROOT
BRANCH   1   4
ATOM      4  C   UNL     1      15.624  -5.730  -0.872  0.00  0.00    +0.000 C 
ATOM      5  H   UNL     1      14.880  -4.970  -0.600  0.00  0.00    +0.000 HD
ATOM      6  H   UNL     1      16.610  -5.319  -0.631  0.00  0.00    +0.000 HD
BRANCH   4   7
ATOM      7  C   UNL     1      15.383  -6.979  -0.040  0.00  0.00    +0.000 C 
ATOM      8  H   UNL     1      14.370  -6.987   0.374  0.00  0.00    +0.000 HD
ATOM      9  H   UNL     1      15.515  -7.883  -0.643  0.00  0.00    +0.000 HD
ATOM     10  H   UNL     1      16.091  -7.020   0.795  0.00  0.00    +0.000 HD
ENDBRANCH   4   7
ENDBRANCH   1   4
BRANCH   1  11
ATOM     11  C   UNL     1      16.641  -5.327  -3.144  0.00  0.00    +0.000 C 
ATOM     12  H   UNL     1      16.338  -5.195  -4.190  0.00  0.00    +0.000 HD
ATOM     13  H   UNL     1      16.845  -4.345  -2.703  0.00  0.00    +0.000 HD
BRANCH  11  14
ATOM     14  O   UNL     1      17.817  -6.123  -3.092  0.00  0.00    +0.000 OA
BRANCH  14  16
ATOM     15  O   UNL     1      19.679  -5.963  -4.451  0.00  0.00    +0.000 OA
ATOM     16  C   UNL     1      18.504  -6.252  -4.268  0.00  0.00    +0.000 C 
BRANCH  16  17
ATOM     17  C   UNL     1      17.602  -6.808  -5.329  0.00  0.00    +0.000 C 
ATOM     18  H   UNL     1      16.951  -7.573  -4.897  0.00  0.00    +0.000 HD
ATOM     19  H   UNL     1      18.201  -7.227  -6.141  0.00  0.00    +0.000 HD
ATOM     20  H   UNL     1      16.978  -6.006  -5.732  0.00  0.00    +0.000 HD
ENDBRANCH  16  17
ENDBRANCH  14  16
ENDBRANCH  11  14
ENDBRANCH   1  11
TORSDOF 6
ENDMDL
MODEL 2
REMARK VINA RESULT:    -3.506      1.778      3.977
REMARK INTER + INTRA:          -4.784
REMARK INTER:                  -4.470
REMARK INTRA:                  -0.313
REMARK UNBOUND:                -0.253
REMARK  Name = 31272
REMARK  6 active torsions:
REMARK  status: ('A' for Active; 'I' for Inactive)
REMARK    1  A    between atoms: O_1  and  C_5
REMARK    2  A    between atoms: O_1  and  C_7
REMARK    3  A    between atoms: C_3  and  C_4
REMARK    4  A    between atoms: C_3  and  C_5
REMARK    5  A    between atoms: C_4  and  C_6
REMARK    6  A    between atoms: C_7  and  C_8
REMARK                            x       y       z     vdW  Elec       q    Type
REMARK                         _______ _______ _______ _____ _____    ______ ____
ROOT
ATOM      1  C   UNL     1      18.831  -6.426  -2.938  0.00  0.00    +0.000 C 
ATOM      2  H   UNL     1      18.094  -7.204  -2.704  0.00  0.00    +0.000 HD
ATOM      3  H   UNL     1      19.804  -6.833  -2.634  0.00  0.00    +0.000 HD
ENDROOT
BRANCH   1   4
ATOM      4  C   UNL     1      18.828  -6.129  -4.436  0.00  0.00    +0.000 C 
ATOM      5  H   UNL     1      19.752  -6.506  -4.893  0.00  0.00    +0.000 HD
ATOM      6  H   UNL     1      18.803  -5.046  -4.600  0.00  0.00    +0.000 HD
BRANCH   4   7
ATOM      7  C   UNL     1      17.637  -6.769  -5.129  0.00  0.00    +0.000 C 
ATOM      8  H   UNL     1      16.695  -6.387  -4.724  0.00  0.00    +0.000 HD
ATOM      9  H   UNL     1      17.655  -6.569  -6.205  0.00  0.00    +0.000 HD
ATOM     10  H   UNL     1      17.653  -7.855  -4.984  0.00  0.00    +0.000 HD
ENDBRANCH   4   7
ENDBRANCH   1   4
BRANCH   1  11
ATOM     11  C   UNL     1      18.531  -5.181  -2.118  0.00  0.00    +0.000 C 
ATOM     12  H   UNL     1      19.403  -4.911  -1.511  0.00  0.00    +0.000 HD
ATOM     13  H   UNL     1      18.284  -4.345  -2.782  0.00  0.00    +0.000 HD
BRANCH  11  14
ATOM     14  O   UNL     1      17.427  -5.449  -1.264  0.00  0.00    +0.000 OA
BRANCH  14  16
ATOM     15  O   UNL     1      15.804  -4.681  -2.717  0.00  0.00    +0.000 OA
ATOM     16  C   UNL     1      16.198  -5.464  -1.863  0.00  0.00    +0.000 C 
BRANCH  16  17
ATOM     17  C   UNL     1      15.379  -6.596  -1.321  0.00  0.00    +0.000 C 
ATOM     18  H   UNL     1      14.317  -6.335  -1.358  0.00  0.00    +0.000 HD
ATOM     19  H   UNL     1      15.686  -6.818  -0.296  0.00  0.00    +0.000 HD
ATOM     20  H   UNL     1      15.540  -7.487  -1.935  0.00  0.00    +0.000 HD
ENDBRANCH  16  17
ENDBRANCH  14  16
ENDBRANCH  11  14
ENDBRANCH   1  11
TORSDOF 6
ENDMDL
MODEL 3
REMARK VINA RESULT:    -3.332     25.073     26.233
REMARK INTER + INTRA:          -4.559
REMARK INTER:                  -4.432
REMARK INTRA:                  -0.127
REMARK UNBOUND:                -0.253
REMARK  Name = 31272
REMARK  6 active torsions:
REMARK  status: ('A' for Active; 'I' for Inactive)
REMARK    1  A    between atoms: O_1  and  C_5
REMARK    2  A    between atoms: O_1  and  C_7
REMARK    3  A    between atoms: C_3  and  C_4
REMARK    4  A    between atoms: C_3  and  C_5
REMARK    5  A    between atoms: C_4  and  C_6
REMARK    6  A    between atoms: C_7  and  C_8
REMARK                            x       y       z     vdW  Elec       q    Type
REMARK                         _______ _______ _______ _____ _____    ______ ____
ROOT
ATOM      1  C   UNL     1      -6.855 -13.416   5.219  0.00  0.00    +0.000 C 
ATOM      2  H   UNL     1      -6.194 -12.554   5.369  0.00  0.00    +0.000 HD
ATOM      3  H   UNL     1      -6.204 -14.300   5.228  0.00  0.00    +0.000 HD
ENDROOT
BRANCH   1   4
ATOM      4  C   UNL     1      -7.876 -13.502   6.351  0.00  0.00    +0.000 C 
ATOM      5  H   UNL     1      -8.837 -13.088   6.020  0.00  0.00    +0.000 HD
ATOM      6  H   UNL     1      -7.539 -12.899   7.202  0.00  0.00    +0.000 HD
BRANCH   4   7
ATOM      7  C   UNL     1      -8.086 -14.937   6.805  0.00  0.00    +0.000 C 
ATOM      8  H   UNL     1      -8.242 -15.601   5.950  0.00  0.00    +0.000 HD
ATOM      9  H   UNL     1      -7.220 -15.300   7.368  0.00  0.00    +0.000 HD
ATOM     10  H   UNL     1      -8.966 -15.005   7.453  0.00  0.00    +0.000 HD
ENDBRANCH   4   7
ENDBRANCH   1   4
BRANCH   1  11
ATOM     11  C   UNL     1      -7.532 -13.306   3.861  0.00  0.00    +0.000 C 
ATOM     12  H   UNL     1      -8.622 -13.299   3.983  0.00  0.00    +0.000 HD
ATOM     13  H   UNL     1      -7.221 -12.381   3.361  0.00  0.00    +0.000 HD
BRANCH  11  14
ATOM     14  O   UNL     1      -7.155 -14.423   3.068  0.00  0.00    +0.000 OA
BRANCH  14  16
ATOM     15  O   UNL     1      -5.125 -14.427   1.965  0.00  0.00    +0.000 OA
ATOM     16  C   UNL     1      -6.317 -14.156   2.021  0.00  0.00    +0.000 C 
BRANCH  16  17
ATOM     17  C   UNL     1      -7.073 -13.472   0.922  0.00  0.00    +0.000 C 
ATOM     18  H   UNL     1      -7.039 -14.081   0.014  0.00  0.00    +0.000 HD
ATOM     19  H   UNL     1      -6.646 -12.483   0.738  0.00  0.00    +0.000 HD
ATOM     20  H   UNL     1      -8.118 -13.351   1.221  0.00  0.00    +0.000 HD
ENDBRANCH  16  17
ENDBRANCH  14  16
ENDBRANCH  11  14
ENDBRANCH   1  11
TORSDOF 6
ENDMDL
MODEL 4
REMARK VINA RESULT:    -3.290     25.494     26.343
REMARK INTER + INTRA:          -4.504
REMARK INTER:                  -4.285
REMARK INTRA:                  -0.219
REMARK UNBOUND:                -0.253
REMARK  Name = 31272
REMARK  6 active torsions:
REMARK  status: ('A' for Active; 'I' for Inactive)
REMARK    1  A    between atoms: O_1  and  C_5
REMARK    2  A    between atoms: O_1  and  C_7
REMARK    3  A    between atoms: C_3  and  C_4
REMARK    4  A    between atoms: C_3  and  C_5
REMARK    5  A    between atoms: C_4  and  C_6
REMARK    6  A    between atoms: C_7  and  C_8
REMARK                            x       y       z     vdW  Elec       q    Type
REMARK                         _______ _______ _______ _____ _____    ______ ____
ROOT
ATOM      1  C   UNL     1      13.837  16.733 -12.069  0.00  0.00    +0.000 C 
ATOM      2  H   UNL     1      13.484  16.828 -13.104  0.00  0.00    +0.000 HD
ATOM      3  H   UNL     1      13.925  15.655 -11.880  0.00  0.00    +0.000 HD
ENDROOT
BRANCH   1   4
ATOM      4  C   UNL     1      15.197  17.409 -11.912  0.00  0.00    +0.000 C 
ATOM      5  H   UNL     1      15.244  18.305 -12.543  0.00  0.00    +0.000 HD
ATOM      6  H   UNL     1      15.990  16.732 -12.249  0.00  0.00    +0.000 HD
BRANCH   4   7
ATOM      7  C   UNL     1      15.457  17.806 -10.468  0.00  0.00    +0.000 C 
ATOM      8  H   UNL     1      16.501  17.632 -10.193  0.00  0.00    +0.000 HD
ATOM      9  H   UNL     1      15.231  18.866 -10.306  0.00  0.00    +0.000 HD
ATOM     10  H   UNL     1      14.825  17.218  -9.793  0.00  0.00    +0.000 HD
ENDBRANCH   4   7
ENDBRANCH   1   4
BRANCH   1  11
ATOM     11  C   UNL     1      12.802  17.325 -11.124  0.00  0.00    +0.000 C 
ATOM     12  H   UNL     1      12.486  16.571 -10.394  0.00  0.00    +0.000 HD
ATOM     13  H   UNL     1      13.228  18.184 -10.593  0.00  0.00    +0.000 HD
BRANCH  11  14
ATOM     14  O   UNL     1      11.677  17.748 -11.882  0.00  0.00    +0.000 OA
BRANCH  14  16
ATOM     15  O   UNL     1      10.161  19.484 -12.034  0.00  0.00    +0.000 OA
ATOM     16  C   UNL     1      11.079  18.905 -11.468  0.00  0.00    +0.000 C 
BRANCH  16  17
ATOM     17  C   UNL     1      11.712  19.382 -10.195  0.00  0.00    +0.000 C 
ATOM     18  H   UNL     1      11.114  20.189  -9.764  0.00  0.00    +0.000 HD
ATOM     19  H   UNL     1      12.732  19.721 -10.394  0.00  0.00    +0.000 HD
ATOM     20  H   UNL     1      11.752  18.557  -9.478  0.00  0.00    +0.000 HD
ENDBRANCH  16  17
ENDBRANCH  14  16
ENDBRANCH  11  14
ENDBRANCH   1  11
TORSDOF 6
ENDMDL
MODEL 5
REMARK VINA RESULT:    -3.251     30.975     31.928
REMARK INTER + INTRA:          -4.454
REMARK INTER:                  -4.342
REMARK INTRA:                  -0.112
REMARK UNBOUND:                -0.253
REMARK  Name = 31272
REMARK  6 active torsions:
REMARK  status: ('A' for Active; 'I' for Inactive)
REMARK    1  A    between atoms: O_1  and  C_5
REMARK    2  A    between atoms: O_1  and  C_7
REMARK    3  A    between atoms: C_3  and  C_4
REMARK    4  A    between atoms: C_3  and  C_5
REMARK    5  A    between atoms: C_4  and  C_6
REMARK    6  A    between atoms: C_7  and  C_8
REMARK                            x       y       z     vdW  Elec       q    Type
REMARK                         _______ _______ _______ _____ _____    ______ ____
ROOT
ATOM      1  C   UNL     1     -16.284  -6.054  -3.882  0.00  0.00    +0.000 C 
ATOM      2  H   UNL     1     -16.673  -6.774  -4.612  0.00  0.00    +0.000 HD
ATOM      3  H   UNL     1     -16.598  -5.064  -4.239  0.00  0.00    +0.000 HD
ENDROOT
BRANCH   1   4
ATOM      4  C   UNL     1     -16.877  -6.328  -2.502  0.00  0.00    +0.000 C 
ATOM      5  H   UNL     1     -16.760  -5.444  -1.862  0.00  0.00    +0.000 HD
ATOM      6  H   UNL     1     -16.336  -7.150  -2.021  0.00  0.00    +0.000 HD
BRANCH   4   7
ATOM      7  C   UNL     1     -18.353  -6.682  -2.590  0.00  0.00    +0.000 C 
ATOM      8  H   UNL     1     -18.813  -6.703  -1.598  0.00  0.00    +0.000 HD
ATOM      9  H   UNL     1     -18.894  -5.956  -3.205  0.00  0.00    +0.000 HD
ATOM     10  H   UNL     1     -18.478  -7.672  -3.043  0.00  0.00    +0.000 HD
ENDBRANCH   4   7
ENDBRANCH   1   4
BRANCH   1  11
ATOM     11  C   UNL     1     -14.764  -6.122  -3.863  0.00  0.00    +0.000 C 
ATOM     12  H   UNL     1     -14.371  -5.511  -3.041  0.00  0.00    +0.000 HD
ATOM     13  H   UNL     1     -14.437  -7.158  -3.728  0.00  0.00    +0.000 HD
BRANCH  11  14
ATOM     14  O   UNL     1     -14.268  -5.625  -5.098  0.00  0.00    +0.000 OA
BRANCH  14  16
ATOM     15  O   UNL     1     -12.328  -4.826  -6.066  0.00  0.00    +0.000 OA
ATOM     16  C   UNL     1     -12.932  -5.335  -5.131  0.00  0.00    +0.000 C 
BRANCH  16  17
ATOM     17  C   UNL     1     -12.290  -5.731  -3.835  0.00  0.00    +0.000 C 
ATOM     18  H   UNL     1     -11.492  -5.026  -3.587  0.00  0.00    +0.000 HD
ATOM     19  H   UNL     1     -11.895  -6.747  -3.914  0.00  0.00    +0.000 HD
ATOM     20  H   UNL     1     -13.038  -5.708  -3.038  0.00  0.00    +0.000 HD
ENDBRANCH  16  17
ENDBRANCH  14  16
ENDBRANCH  11  14
ENDBRANCH   1  11
TORSDOF 6
ENDMDL
MODEL 6
REMARK VINA RESULT:    -3.155     25.961     26.791
REMARK INTER + INTRA:          -4.330
REMARK INTER:                  -4.177
REMARK INTRA:                  -0.154
REMARK UNBOUND:                -0.253
REMARK  Name = 31272
REMARK  6 active torsions:
REMARK  status: ('A' for Active; 'I' for Inactive)
REMARK    1  A    between atoms: O_1  and  C_5
REMARK    2  A    between atoms: O_1  and  C_7
REMARK    3  A    between atoms: C_3  and  C_4
REMARK    4  A    between atoms: C_3  and  C_5
REMARK    5  A    between atoms: C_4  and  C_6
REMARK    6  A    between atoms: C_7  and  C_8
REMARK                            x       y       z     vdW  Elec       q    Type
REMARK                         _______ _______ _______ _____ _____    ______ ____
ROOT
ATOM      1  C   UNL     1      12.878  17.682 -10.665  0.00  0.00    +0.000 C 
ATOM      2  H   UNL     1      12.087  17.693  -9.905  0.00  0.00    +0.000 HD
ATOM      3  H   UNL     1      13.732  18.206 -10.216  0.00  0.00    +0.000 HD
ENDROOT
BRANCH   1   4
ATOM      4  C   UNL     1      13.262  16.245 -11.008  0.00  0.00    +0.000 C 
ATOM      5  H   UNL     1      12.441  15.567 -10.745  0.00  0.00    +0.000 HD
ATOM      6  H   UNL     1      14.134  15.942 -10.419  0.00  0.00    +0.000 HD
BRANCH   4   7
ATOM      7  C   UNL     1      13.577  16.091 -12.487  0.00  0.00    +0.000 C 
ATOM      8  H   UNL     1      13.141  15.171 -12.889  0.00  0.00    +0.000 HD
ATOM      9  H   UNL     1      13.185  16.937 -13.062  0.00  0.00    +0.000 HD
ATOM     10  H   UNL     1      14.661  16.049 -12.641  0.00  0.00    +0.000 HD
ENDBRANCH   4   7
ENDBRANCH   1   4
BRANCH   1  11
ATOM     11  C   UNL     1      12.411  18.447 -11.894  0.00  0.00    +0.000 C 
ATOM     12  H   UNL     1      13.051  19.323 -12.057  0.00  0.00    +0.000 HD
ATOM     13  H   UNL     1      12.456  17.801 -12.778  0.00  0.00    +0.000 HD
BRANCH  11  14
ATOM     14  O   UNL     1      11.072  18.875 -11.687  0.00  0.00    +0.000 OA
BRANCH  14  16
ATOM     15  O   UNL     1      10.263  19.846  -9.753  0.00  0.00    +0.000 OA
ATOM     16  C   UNL     1      10.903  19.898 -10.795  0.00  0.00    +0.000 C 
BRANCH  16  17
ATOM     17  C   UNL     1      11.625  21.120 -11.275  0.00  0.00    +0.000 C 
ATOM     18  H   UNL     1      12.048  21.659 -10.423  0.00  0.00    +0.000 HD
ATOM     19  H   UNL     1      10.938  21.761 -11.833  0.00  0.00    +0.000 HD
ATOM     20  H   UNL     1      12.442  20.822 -11.939  0.00  0.00    +0.000 HD
ENDBRANCH  16  17
ENDBRANCH  14  16
ENDBRANCH  11  14
ENDBRANCH   1  11
TORSDOF 6
ENDMDL
MODEL 7
REMARK VINA RESULT:    -3.143     12.810     13.437
REMARK INTER + INTRA:          -4.315
REMARK INTER:                  -4.135
REMARK INTRA:                  -0.180
REMARK UNBOUND:                -0.253
REMARK  Name = 31272
REMARK  6 active torsions:
REMARK  status: ('A' for Active; 'I' for Inactive)
REMARK    1  A    between atoms: O_1  and  C_5
REMARK    2  A    between atoms: O_1  and  C_7
REMARK    3  A    between atoms: C_3  and  C_4
REMARK    4  A    between atoms: C_3  and  C_5
REMARK    5  A    between atoms: C_4  and  C_6
REMARK    6  A    between atoms: C_7  and  C_8
REMARK                            x       y       z     vdW  Elec       q    Type
REMARK                         _______ _______ _______ _____ _____    ______ ____
ROOT
ATOM      1  C   UNL     1      15.165   5.664  -2.463  0.00  0.00    +0.000 C 
ATOM      2  H   UNL     1      15.820   5.490  -3.326  0.00  0.00    +0.000 HD
ATOM      3  H   UNL     1      14.267   5.058  -2.641  0.00  0.00    +0.000 HD
ENDROOT
BRANCH   1   4
ATOM      4  C   UNL     1      15.855   5.217  -1.177  0.00  0.00    +0.000 C 
ATOM      5  H   UNL     1      15.913   6.058  -0.473  0.00  0.00    +0.000 HD
ATOM      6  H   UNL     1      16.883   4.906  -1.395  0.00  0.00    +0.000 HD
BRANCH   4   7
ATOM      7  C   UNL     1      15.112   4.068  -0.515  0.00  0.00    +0.000 C 
ATOM      8  H   UNL     1      14.580   3.465  -1.257  0.00  0.00    +0.000 HD
ATOM      9  H   UNL     1      15.803   3.415   0.028  0.00  0.00    +0.000 HD
ATOM     10  H   UNL     1      14.377   4.454   0.199  0.00  0.00    +0.000 HD
ENDBRANCH   4   7
ENDBRANCH   1   4
BRANCH   1  11
ATOM     11  C   UNL     1      14.776   7.134  -2.411  0.00  0.00    +0.000 C 
ATOM     12  H   UNL     1      13.771   7.271  -2.829  0.00  0.00    +0.000 HD
ATOM     13  H   UNL     1      14.785   7.488  -1.374  0.00  0.00    +0.000 HD
BRANCH  11  14
ATOM     14  O   UNL     1      15.710   7.883  -3.176  0.00  0.00    +0.000 OA
BRANCH  14  16
ATOM     15  O   UNL     1      16.600   8.972  -1.343  0.00  0.00    +0.000 OA
ATOM     16  C   UNL     1      16.704   8.498  -2.467  0.00  0.00    +0.000 C 
BRANCH  16  17
ATOM     17  C   UNL     1      17.971   8.514  -3.269  0.00  0.00    +0.000 C 
ATOM     18  H   UNL     1      18.413   7.514  -3.282  0.00  0.00    +0.000 HD
ATOM     19  H   UNL     1      18.669   9.239  -2.844  0.00  0.00    +0.000 HD
ATOM     20  H   UNL     1      17.745   8.808  -4.298  0.00  0.00    +0.000 HD
ENDBRANCH  16  17
ENDBRANCH  14  16
ENDBRANCH  11  14
ENDBRANCH   1  11
TORSDOF 6
ENDMDL
MODEL 8
REMARK VINA RESULT:    -3.098     11.677     12.349
REMARK INTER + INTRA:          -4.257
REMARK INTER:                  -4.176
REMARK INTRA:                  -0.081
REMARK UNBOUND:                -0.253
REMARK  Name = 31272
REMARK  6 active torsions:
REMARK  status: ('A' for Active; 'I' for Inactive)
REMARK    1  A    between atoms: O_1  and  C_5
REMARK    2  A    between atoms: O_1  and  C_7
REMARK    3  A    between atoms: C_3  and  C_4
REMARK    4  A    between atoms: C_3  and  C_5
REMARK    5  A    between atoms: C_4  and  C_6
REMARK    6  A    between atoms: C_7  and  C_8
REMARK                            x       y       z     vdW  Elec       q    Type
REMARK                         _______ _______ _______ _____ _____    ______ ____
ROOT
ATOM      1  C   UNL     1      15.885   4.969  -0.505  0.00  0.00    +0.000 C 
ATOM      2  H   UNL     1      16.055   5.512   0.433  0.00  0.00    +0.000 HD
ATOM      3  H   UNL     1      16.816   5.063  -1.079  0.00  0.00    +0.000 HD
ENDROOT
BRANCH   1   4
ATOM      4  C   UNL     1      15.586   3.500  -0.219  0.00  0.00    +0.000 C 
ATOM      5  H   UNL     1      16.306   3.108   0.511  0.00  0.00    +0.000 HD
ATOM      6  H   UNL     1      15.702   2.912  -1.136  0.00  0.00    +0.000 HD
BRANCH   4   7
ATOM      7  C   UNL     1      14.179   3.313   0.323  0.00  0.00    +0.000 C 
ATOM      8  H   UNL     1      13.453   3.216  -0.490  0.00  0.00    +0.000 HD
ATOM      9  H   UNL     1      14.115   2.416   0.948  0.00  0.00    +0.000 HD
ATOM     10  H   UNL     1      13.891   4.175   0.934  0.00  0.00    +0.000 HD
ENDBRANCH   4   7
ENDBRANCH   1   4
BRANCH   1  11
ATOM     11  C   UNL     1      14.753   5.633  -1.276  0.00  0.00    +0.000 C 
ATOM     12  H   UNL     1      13.854   5.006  -1.235  0.00  0.00    +0.000 HD
ATOM     13  H   UNL     1      14.527   6.613  -0.841  0.00  0.00    +0.000 HD
BRANCH  11  14
ATOM     14  O   UNL     1      15.153   5.795  -2.630  0.00  0.00    +0.000 OA
BRANCH  14  16
ATOM     15  O   UNL     1      14.271   7.569  -3.817  0.00  0.00    +0.000 OA
ATOM     16  C   UNL     1      15.137   7.076  -3.107  0.00  0.00    +0.000 C 
BRANCH  16  17
ATOM     17  C   UNL     1      16.352   7.814  -2.633  0.00  0.00    +0.000 C 
ATOM     18  H   UNL     1      16.615   7.484  -1.624  0.00  0.00    +0.000 HD
ATOM     19  H   UNL     1      16.162   8.890  -2.649  0.00  0.00    +0.000 HD
ATOM     20  H   UNL     1      17.192   7.598  -3.300  0.00  0.00    +0.000 HD
ENDBRANCH  16  17
ENDBRANCH  14  16
ENDBRANCH  11  14
ENDBRANCH   1  11
TORSDOF 6
ENDMDL
MODEL 9
REMARK VINA RESULT:    -3.064     24.892     25.621
REMARK INTER + INTRA:          -4.212
REMARK INTER:                  -3.959
REMARK INTRA:                  -0.253
REMARK UNBOUND:                -0.253
REMARK  Name = 31272
REMARK  6 active torsions:
REMARK  status: ('A' for Active; 'I' for Inactive)
REMARK    1  A    between atoms: O_1  and  C_5
REMARK    2  A    between atoms: O_1  and  C_7
REMARK    3  A    between atoms: C_3  and  C_4
REMARK    4  A    between atoms: C_3  and  C_5
REMARK    5  A    between atoms: C_4  and  C_6
REMARK    6  A    between atoms: C_7  and  C_8
REMARK                            x       y       z     vdW  Elec       q    Type
REMARK                         _______ _______ _______ _____ _____    ______ ____
ROOT
ATOM      1  C   UNL     1       2.212   6.366 -20.082  0.00  0.00    +0.000 C 
ATOM      2  H   UNL     1       1.851   7.402 -20.055  0.00  0.00    +0.000 HD
ATOM      3  H   UNL     1       2.397   6.140 -21.140  0.00  0.00    +0.000 HD
ENDROOT
BRANCH   1   4
ATOM      4  C   UNL     1       3.506   6.237 -19.282  0.00  0.00    +0.000 C 
ATOM      5  H   UNL     1       3.274   6.026 -18.230  0.00  0.00    +0.000 HD
ATOM      6  H   UNL     1       4.057   7.183 -19.310  0.00  0.00    +0.000 HD
BRANCH   4   7
ATOM      7  C   UNL     1       4.389   5.126 -19.826  0.00  0.00    +0.000 C 
ATOM      8  H   UNL     1       5.094   5.511 -20.569  0.00  0.00    +0.000 HD
ATOM      9  H   UNL     1       4.962   4.651 -19.022  0.00  0.00    +0.000 HD
ATOM     10  H   UNL     1       3.776   4.356 -20.307  0.00  0.00    +0.000 HD
ENDBRANCH   4   7
ENDBRANCH   1   4
BRANCH   1  11
ATOM     11  C   UNL     1       1.129   5.438 -19.552  0.00  0.00    +0.000 C 
ATOM     12  H   UNL     1       1.536   4.801 -18.758  0.00  0.00    +0.000 HD
ATOM     13  H   UNL     1       0.296   6.025 -19.150  0.00  0.00    +0.000 HD
BRANCH  11  14
ATOM     14  O   UNL     1       0.662   4.622 -20.618  0.00  0.00    +0.000 OA
BRANCH  14  16
ATOM     15  O   UNL     1      -0.705   2.816 -20.164  0.00  0.00    +0.000 OA
ATOM     16  C   UNL     1       0.403   3.317 -20.300  0.00  0.00    +0.000 C 
BRANCH  16  17
ATOM     17  C   UNL     1       1.689   2.564 -20.139  0.00  0.00    +0.000 C 
ATOM     18  H   UNL     1       1.591   1.567 -20.577  0.00  0.00    +0.000 HD
ATOM     19  H   UNL     1       1.947   2.496 -19.079  0.00  0.00    +0.000 HD
ATOM     20  H   UNL     1       2.489   3.097 -20.660  0.00  0.00    +0.000 HD
ENDBRANCH  16  17
ENDBRANCH  14  16
ENDBRANCH  11  14
ENDBRANCH   1  11
TORSDOF 6
ENDMDL
MODEL 10
REMARK VINA RESULT:    -3.056     13.534     14.604
REMARK INTER + INTRA:          -4.202
REMARK INTER:                  -3.883
REMARK INTRA:                  -0.318
REMARK UNBOUND:                -0.253
REMARK  Name = 31272
REMARK  6 active torsions:
REMARK  status: ('A' for Active; 'I' for Inactive)
REMARK    1  A    between atoms: O_1  and  C_5
REMARK    2  A    between atoms: O_1  and  C_7
REMARK    3  A    between atoms: C_3  and  C_4
REMARK    4  A    between atoms: C_3  and  C_5
REMARK    5  A    between atoms: C_4  and  C_6
REMARK    6  A    between atoms: C_7  and  C_8
REMARK                            x       y       z     vdW  Elec       q    Type
REMARK                         _______ _______ _______ _____ _____    ______ ____
ROOT
ATOM      1  C   UNL     1      15.241   6.311  -2.248  0.00  0.00    +0.000 C 
ATOM      2  H   UNL     1      15.516   5.388  -2.773  0.00  0.00    +0.000 HD
ATOM      3  H   UNL     1      16.158   6.662  -1.758  0.00  0.00    +0.000 HD
ENDROOT
BRANCH   1   4
ATOM      4  C   UNL     1      14.741   7.356  -3.242  0.00  0.00    +0.000 C 
ATOM      5  H   UNL     1      13.664   7.515  -3.106  0.00  0.00    +0.000 HD
ATOM      6  H   UNL     1      14.889   6.996  -4.266  0.00  0.00    +0.000 HD
BRANCH   4   7
ATOM      7  C   UNL     1      15.464   8.681  -3.067  0.00  0.00    +0.000 C 
ATOM      8  H   UNL     1      15.795   8.815  -2.033  0.00  0.00    +0.000 HD
ATOM      9  H   UNL     1      16.341   8.738  -3.720  0.00  0.00    +0.000 HD
ATOM     10  H   UNL     1      14.797   9.512  -3.321  0.00  0.00    +0.000 HD
ENDBRANCH   4   7
ENDBRANCH   1   4
BRANCH   1  11
ATOM     11  C   UNL     1      14.195   5.998  -1.188  0.00  0.00    +0.000 C 
ATOM     12  H   UNL     1      13.201   6.293  -1.544  0.00  0.00    +0.000 HD
ATOM     13  H   UNL     1      14.193   4.925  -0.968  0.00  0.00    +0.000 HD
BRANCH  11  14
ATOM     14  O   UNL     1      14.507   6.724  -0.007  0.00  0.00    +0.000 OA
BRANCH  14  16
ATOM     15  O   UNL     1      12.475   7.788   0.263  0.00  0.00    +0.000 OA
ATOM     16  C   UNL     1      13.699   7.792   0.268  0.00  0.00    +0.000 C 
BRANCH  16  17
ATOM     17  C   UNL     1      14.533   8.997   0.584  0.00  0.00    +0.000 C 
ATOM     18  H   UNL     1      15.119   9.282  -0.294  0.00  0.00    +0.000 HD
ATOM     19  H   UNL     1      15.188   8.781   1.432  0.00  0.00    +0.000 HD
ATOM     20  H   UNL     1      13.878   9.831   0.852  0.00  0.00    +0.000 HD
ENDBRANCH  16  17
ENDBRANCH  14  16
ENDBRANCH  11  14
ENDBRANCH   1  11
TORSDOF 6
ENDMDL
