MODEL 1
REMARK VINA RESULT:    -3.295      0.000      0.000
REMARK INTER + INTRA:          -3.894
REMARK INTER:                  -3.871
REMARK INTRA:                  -0.023
REMARK UNBOUND:                -0.021
REMARK  Name = 264
REMARK  4 active torsions:
REMARK  status: ('A' for Active; 'I' for Inactive)
REMARK    1  A    between atoms: O_1  and  C_6
REMARK    2  A    between atoms: C_3  and  C_4
REMARK    3  A    between atoms: C_3  and  C_5
REMARK    4  A    between atoms: C_4  and  C_6
REMARK                            x       y       z     vdW  Elec       q    Type
REMARK                         _______ _______ _______ _____ _____    ______ ____
ROOT
ATOM      1  C   UNL     1      12.198  18.009 -11.483  0.00  0.00    +0.000 C 
ATOM      2  H   UNL     1      11.160  17.738 -11.709  0.00  0.00    +0.000 HD
ATOM      3  H   UNL     1      12.583  18.534 -12.366  0.00  0.00    +0.000 HD
ENDROOT
BRANCH   1   4
ATOM      4  C   UNL     1      12.211  18.968 -10.300  0.00  0.00    +0.000 C 
ATOM      5  H   UNL     1      12.055  19.999 -10.632  0.00  0.00    +0.000 HD
ATOM      6  H   UNL     1      13.167  18.919  -9.769  0.00  0.00    +0.000 HD
ATOM      7  H   UNL     1      11.415  18.711  -9.594  0.00  0.00    +0.000 HD
ENDBRANCH   1   4
BRANCH   1   8
ATOM      8  C   UNL     1      13.018  16.750 -11.231  0.00  0.00    +0.000 C 
ATOM      9  H   UNL     1      13.614  16.866 -10.320  0.00  0.00    +0.000 HD
ATOM     10  H   UNL     1      12.349  15.891 -11.113  0.00  0.00    +0.000 HD
BRANCH   8  12
ATOM     11  O   UNL     1      14.807  17.247 -12.776  0.00  0.00    +0.000 OA
ATOM     12  C   UNL     1      13.962  16.458 -12.372  0.00  0.00    +0.000 C 
BRANCH  12  13
ATOM     13  O   UNL     1      13.795  15.216 -12.890  0.00  0.00    +0.000 OA
ATOM     14  H   UNL     1      14.476  14.589 -12.565  0.00  0.00    +0.000 HD
ENDBRANCH  12  13
ENDBRANCH   8  12
ENDBRANCH   1   8
TORSDOF 4
ENDMDL
MODEL 2
REMARK VINA RESULT:    -3.224     12.310     13.083
REMARK INTER + INTRA:          -3.810
REMARK INTER:                  -3.770
REMARK INTRA:                  -0.040
REMARK UNBOUND:                -0.021
REMARK  Name = 264
REMARK  4 active torsions:
REMARK  status: ('A' for Active; 'I' for Inactive)
REMARK    1  A    between atoms: O_1  and  C_6
REMARK    2  A    between atoms: C_3  and  C_4
REMARK    3  A    between atoms: C_3  and  C_5
REMARK    4  A    between atoms: C_4  and  C_6
REMARK                            x       y       z     vdW  Elec       q    Type
REMARK                         _______ _______ _______ _____ _____    ______ ____
ROOT
ATOM      1  C   UNL     1      16.764   8.576  -2.315  0.00  0.00    +0.000 C 
ATOM      2  H   UNL     1      16.630   7.676  -1.703  0.00  0.00    +0.000 HD
ATOM      3  H   UNL     1      16.989   9.395  -1.621  0.00  0.00    +0.000 HD
ENDROOT
BRANCH   1   4
ATOM      4  C   UNL     1      17.959   8.374  -3.236  0.00  0.00    +0.000 C 
ATOM      5  H   UNL     1      18.899   8.506  -2.690  0.00  0.00    +0.000 HD
ATOM      6  H   UNL     1      17.939   9.088  -4.064  0.00  0.00    +0.000 HD
ATOM      7  H   UNL     1      17.948   7.363  -3.656  0.00  0.00    +0.000 HD
ENDBRANCH   1   4
BRANCH   1   8
ATOM      8  C   UNL     1      15.479   8.881  -3.075  0.00  0.00    +0.000 C 
ATOM      9  H   UNL     1      14.856   9.571  -2.496  0.00  0.00    +0.000 HD
ATOM     10  H   UNL     1      15.720   9.341  -4.039  0.00  0.00    +0.000 HD
BRANCH   8  12
ATOM     11  O   UNL     1      14.837   6.577  -2.738  0.00  0.00    +0.000 OA
ATOM     12  C   UNL     1      14.674   7.633  -3.337  0.00  0.00    +0.000 C 
BRANCH  12  13
ATOM     13  O   UNL     1      13.727   7.806  -4.292  0.00  0.00    +0.000 OA
ATOM     14  H   UNL     1      13.995   8.477  -4.957  0.00  0.00    +0.000 HD
ENDBRANCH  12  13
ENDBRANCH   8  12
ENDBRANCH   1   8
TORSDOF 4
ENDMDL
MODEL 3
REMARK VINA RESULT:    -3.189     39.294     40.014
REMARK INTER + INTRA:          -3.769
REMARK INTER:                  -3.733
REMARK INTRA:                  -0.036
REMARK UNBOUND:                -0.021
REMARK  Name = 264
REMARK  4 active torsions:
REMARK  status: ('A' for Active; 'I' for Inactive)
REMARK    1  A    between atoms: O_1  and  C_6
REMARK    2  A    between atoms: C_3  and  C_4
REMARK    3  A    between atoms: C_3  and  C_5
REMARK    4  A    between atoms: C_4  and  C_6
REMARK                            x       y       z     vdW  Elec       q    Type
REMARK                         _______ _______ _______ _____ _____    ______ ____
ROOT
ATOM      1  C   UNL     1      -8.008 -13.050   5.458  0.00  0.00    +0.000 C 
ATOM      2  H   UNL     1      -9.010 -12.617   5.347  0.00  0.00    +0.000 HD
ATOM      3  H   UNL     1      -7.414 -12.321   6.021  0.00  0.00    +0.000 HD
ENDROOT
BRANCH   1   4
ATOM      4  C   UNL     1      -8.112 -14.332   6.272  0.00  0.00    +0.000 C 
ATOM      5  H   UNL     1      -8.339 -15.186   5.628  0.00  0.00    +0.000 HD
ATOM      6  H   UNL     1      -8.901 -14.252   7.027  0.00  0.00    +0.000 HD
ATOM      7  H   UNL     1      -7.167 -14.533   6.786  0.00  0.00    +0.000 HD
ENDBRANCH   1   4
BRANCH   1   8
ATOM      8  C   UNL     1      -7.387 -13.273   4.084  0.00  0.00    +0.000 C 
ATOM      9  H   UNL     1      -7.631 -14.277   3.721  0.00  0.00    +0.000 HD
ATOM     10  H   UNL     1      -7.780 -12.534   3.377  0.00  0.00    +0.000 HD
BRANCH   8  12
ATOM     11  O   UNL     1      -5.126 -14.055   4.414  0.00  0.00    +0.000 OA
ATOM     12  C   UNL     1      -5.885 -13.140   4.120  0.00  0.00    +0.000 C 
BRANCH  12  13
ATOM     13  O   UNL     1      -5.456 -11.903   3.766  0.00  0.00    +0.000 OA
ATOM     14  H   UNL     1      -4.608 -11.670   4.201  0.00  0.00    +0.000 HD
ENDBRANCH  12  13
ENDBRANCH   8  12
ENDBRANCH   1   8
TORSDOF 4
ENDMDL
MODEL 4
REMARK VINA RESULT:    -3.172     20.073     20.802
REMARK INTER + INTRA:          -3.749
REMARK INTER:                  -3.734
REMARK INTRA:                  -0.015
REMARK UNBOUND:                -0.021
REMARK  Name = 264
REMARK  4 active torsions:
REMARK  status: ('A' for Active; 'I' for Inactive)
REMARK    1  A    between atoms: O_1  and  C_6
REMARK    2  A    between atoms: C_3  and  C_4
REMARK    3  A    between atoms: C_3  and  C_5
REMARK    4  A    between atoms: C_4  and  C_6
REMARK                            x       y       z     vdW  Elec       q    Type
REMARK                         _______ _______ _______ _____ _____    ______ ____
ROOT
ATOM      1  C   UNL     1       2.085   2.484 -20.912  0.00  0.00    +0.000 C 
ATOM      2  H   UNL     1       2.217   2.539 -21.999  0.00  0.00    +0.000 HD
ATOM      3  H   UNL     1       1.549   1.549 -20.710  0.00  0.00    +0.000 HD
ENDROOT
BRANCH   1   4
ATOM      4  C   UNL     1       3.454   2.416 -20.250  0.00  0.00    +0.000 C 
ATOM      5  H   UNL     1       4.057   1.612 -20.683  0.00  0.00    +0.000 HD
ATOM      6  H   UNL     1       3.359   2.233 -19.175  0.00  0.00    +0.000 HD
ATOM      7  H   UNL     1       3.991   3.359 -20.390  0.00  0.00    +0.000 HD
ENDBRANCH   1   4
BRANCH   1   8
ATOM      8  C   UNL     1       1.255   3.669 -20.432  0.00  0.00    +0.000 C 
ATOM      9  H   UNL     1       1.769   4.177 -19.609  0.00  0.00    +0.000 HD
ATOM     10  H   UNL     1       1.113   4.377 -21.255  0.00  0.00    +0.000 HD
BRANCH   8  12
ATOM     11  O   UNL     1      -0.988   2.804 -20.668  0.00  0.00    +0.000 OA
ATOM     12  C   UNL     1      -0.104   3.239 -19.940  0.00  0.00    +0.000 C 
BRANCH  12  13
ATOM     13  O   UNL     1      -0.241   3.358 -18.596  0.00  0.00    +0.000 OA
ATOM     14  H   UNL     1       0.429   3.963 -18.211  0.00  0.00    +0.000 HD
ENDBRANCH  12  13
ENDBRANCH   8  12
ENDBRANCH   1   8
TORSDOF 4
ENDMDL
MODEL 5
REMARK VINA RESULT:    -3.160      3.334      4.201
REMARK INTER + INTRA:          -3.735
REMARK INTER:                  -3.725
REMARK INTRA:                  -0.010
REMARK UNBOUND:                -0.021
REMARK  Name = 264
REMARK  4 active torsions:
REMARK  status: ('A' for Active; 'I' for Inactive)
REMARK    1  A    between atoms: O_1  and  C_6
REMARK    2  A    between atoms: C_3  and  C_4
REMARK    3  A    between atoms: C_3  and  C_5
REMARK    4  A    between atoms: C_4  and  C_6
REMARK                            x       y       z     vdW  Elec       q    Type
REMARK                         _______ _______ _______ _____ _____    ______ ____
ROOT
ATOM      1  C   UNL     1      12.389  17.651 -11.648  0.00  0.00    +0.000 C 
ATOM      2  H   UNL     1      12.945  18.073 -12.494  0.00  0.00    +0.000 HD
ATOM      3  H   UNL     1      11.417  17.331 -12.042  0.00  0.00    +0.000 HD
ENDROOT
BRANCH   1   4
ATOM      4  C   UNL     1      13.133  16.428 -11.129  0.00  0.00    +0.000 C 
ATOM      5  H   UNL     1      12.589  15.510 -11.369  0.00  0.00    +0.000 HD
ATOM      6  H   UNL     1      13.258  16.480 -10.043  0.00  0.00    +0.000 HD
ATOM      7  H   UNL     1      14.127  16.367 -11.584  0.00  0.00    +0.000 HD
ENDBRANCH   1   4
BRANCH   1   8
ATOM      8  C   UNL     1      12.188  18.718 -10.579  0.00  0.00    +0.000 C 
ATOM      9  H   UNL     1      12.242  18.265  -9.583  0.00  0.00    +0.000 HD
ATOM     10  H   UNL     1      12.970  19.480 -10.666  0.00  0.00    +0.000 HD
BRANCH   8  12
ATOM     11  O   UNL     1      10.233  19.494 -11.766  0.00  0.00    +0.000 OA
ATOM     12  C   UNL     1      10.849  19.398 -10.711  0.00  0.00    +0.000 C 
BRANCH  12  13
ATOM     13  O   UNL     1      10.379  19.873  -9.531  0.00  0.00    +0.000 OA
ATOM     14  H   UNL     1      10.723  19.363  -8.767  0.00  0.00    +0.000 HD
ENDBRANCH  12  13
ENDBRANCH   8  12
ENDBRANCH   1   8
TORSDOF 4
ENDMDL
MODEL 6
REMARK VINA RESULT:    -3.151     21.828     22.453
REMARK INTER + INTRA:          -3.724
REMARK INTER:                  -3.685
REMARK INTRA:                  -0.039
REMARK UNBOUND:                -0.021
REMARK  Name = 264
REMARK  4 active torsions:
REMARK  status: ('A' for Active; 'I' for Inactive)
REMARK    1  A    between atoms: O_1  and  C_6
REMARK    2  A    between atoms: C_3  and  C_4
REMARK    3  A    between atoms: C_3  and  C_5
REMARK    4  A    between atoms: C_4  and  C_6
REMARK                            x       y       z     vdW  Elec       q    Type
REMARK                         _______ _______ _______ _____ _____    ______ ____
ROOT
ATOM      1  C   UNL     1      -0.158   3.610 -20.958  0.00  0.00    +0.000 C 
ATOM      2  H   UNL     1      -0.663   4.583 -20.941  0.00  0.00    +0.000 HD
ATOM      3  H   UNL     1       0.717   3.723 -21.608  0.00  0.00    +0.000 HD
ENDROOT
BRANCH   1   4
ATOM      4  C   UNL     1       0.317   3.276 -19.550  0.00  0.00    +0.000 C 
ATOM      5  H   UNL     1      -0.531   3.177 -18.866  0.00  0.00    +0.000 HD
ATOM      6  H   UNL     1       0.979   4.058 -19.166  0.00  0.00    +0.000 HD
ATOM      7  H   UNL     1       0.869   2.331 -19.550  0.00  0.00    +0.000 HD
ENDBRANCH   1   4
BRANCH   1   8
ATOM      8  C   UNL     1      -1.094   2.552 -21.531  0.00  0.00    +0.000 C 
ATOM      9  H   UNL     1      -1.472   1.911 -20.727  0.00  0.00    +0.000 HD
ATOM     10  H   UNL     1      -1.941   3.039 -22.026  0.00  0.00    +0.000 HD
BRANCH   8  12
ATOM     11  O   UNL     1      -0.239   1.981 -23.716  0.00  0.00    +0.000 OA
ATOM     12  C   UNL     1      -0.397   1.675 -22.540  0.00  0.00    +0.000 C 
BRANCH  12  13
ATOM     13  O   UNL     1       0.064   0.517 -22.005  0.00  0.00    +0.000 OA
ATOM     14  H   UNL     1       0.870   0.659 -21.464  0.00  0.00    +0.000 HD
ENDBRANCH  12  13
ENDBRANCH   8  12
ENDBRANCH   1   8
TORSDOF 4
ENDMDL
MODEL 7
REMARK VINA RESULT:    -3.150     23.329     24.135
REMARK INTER + INTRA:          -3.724
REMARK INTER:                  -3.710
REMARK INTRA:                  -0.013
REMARK UNBOUND:                -0.021
REMARK  Name = 264
REMARK  4 active torsions:
REMARK  status: ('A' for Active; 'I' for Inactive)
REMARK    1  A    between atoms: O_1  and  C_6
REMARK    2  A    between atoms: C_3  and  C_4
REMARK    3  A    between atoms: C_3  and  C_5
REMARK    4  A    between atoms: C_4  and  C_6
REMARK                            x       y       z     vdW  Elec       q    Type
REMARK                         _______ _______ _______ _____ _____    ______ ____
ROOT
ATOM      1  C   UNL     1      15.709  -5.193  -1.865  0.00  0.00    +0.000 C 
ATOM      2  H   UNL     1      14.882  -4.473  -1.844  0.00  0.00    +0.000 HD
ATOM      3  H   UNL     1      16.084  -5.269  -0.838  0.00  0.00    +0.000 HD
ENDROOT
BRANCH   1   4
ATOM      4  C   UNL     1      15.169  -6.551  -2.291  0.00  0.00    +0.000 C 
ATOM      5  H   UNL     1      15.550  -6.830  -3.279  0.00  0.00    +0.000 HD
ATOM      6  H   UNL     1      14.076  -6.541  -2.335  0.00  0.00    +0.000 HD
ATOM      7  H   UNL     1      15.475  -7.322  -1.577  0.00  0.00    +0.000 HD
ENDBRANCH   1   4
BRANCH   1   8
ATOM      8  C   UNL     1      16.814  -4.683  -2.783  0.00  0.00    +0.000 C 
ATOM      9  H   UNL     1      17.373  -5.527  -3.201  0.00  0.00    +0.000 HD
ATOM     10  H   UNL     1      16.375  -4.105  -3.603  0.00  0.00    +0.000 HD
BRANCH   8  12
ATOM     11  O   UNL     1      17.806  -3.665  -0.830  0.00  0.00    +0.000 OA
ATOM     12  C   UNL     1      17.787  -3.795  -2.048  0.00  0.00    +0.000 C 
BRANCH  12  13
ATOM     13  O   UNL     1      18.661  -3.172  -2.876  0.00  0.00    +0.000 OA
ATOM     14  H   UNL     1      19.468  -3.709  -3.029  0.00  0.00    +0.000 HD
ENDBRANCH  12  13
ENDBRANCH   8  12
ENDBRANCH   1   8
TORSDOF 4
ENDMDL
MODEL 8
REMARK VINA RESULT:    -3.031     21.188     21.972
REMARK INTER + INTRA:          -3.583
REMARK INTER:                  -3.553
REMARK INTRA:                  -0.030
REMARK UNBOUND:                -0.021
REMARK  Name = 264
REMARK  4 active torsions:
REMARK  status: ('A' for Active; 'I' for Inactive)
REMARK    1  A    between atoms: O_1  and  C_6
REMARK    2  A    between atoms: C_3  and  C_4
REMARK    3  A    between atoms: C_3  and  C_5
REMARK    4  A    between atoms: C_4  and  C_6
REMARK                            x       y       z     vdW  Elec       q    Type
REMARK                         _______ _______ _______ _____ _____    ______ ____
ROOT
ATOM      1  C   UNL     1       2.419   2.472 -21.546  0.00  0.00    +0.000 C 
ATOM      2  H   UNL     1       2.712   3.321 -22.175  0.00  0.00    +0.000 HD
ATOM      3  H   UNL     1       2.591   1.567 -22.141  0.00  0.00    +0.000 HD
ENDROOT
BRANCH   1   4
ATOM      4  C   UNL     1       3.321   2.430 -20.320  0.00  0.00    +0.000 C 
ATOM      5  H   UNL     1       4.095   1.664 -20.432  0.00  0.00    +0.000 HD
ATOM      6  H   UNL     1       2.744   2.206 -19.418  0.00  0.00    +0.000 HD
ATOM      7  H   UNL     1       3.814   3.396 -20.178  0.00  0.00    +0.000 HD
ENDBRANCH   1   4
BRANCH   1   8
ATOM      8  C   UNL     1       0.941   2.580 -21.187  0.00  0.00    +0.000 C 
ATOM      9  H   UNL     1       0.787   2.295 -20.141  0.00  0.00    +0.000 HD
ATOM     10  H   UNL     1       0.603   3.612 -21.328  0.00  0.00    +0.000 HD
BRANCH   8  12
ATOM     11  O   UNL     1      -1.134   1.742 -22.095  0.00  0.00    +0.000 OA
ATOM     12  C   UNL     1       0.089   1.682 -22.048  0.00  0.00    +0.000 C 
BRANCH  12  13
ATOM     13  O   UNL     1       0.819   0.813 -22.789  0.00  0.00    +0.000 OA
ATOM     14  H   UNL     1       0.300   0.018 -23.039  0.00  0.00    +0.000 HD
ENDBRANCH  12  13
ENDBRANCH   8  12
ENDBRANCH   1   8
TORSDOF 4
ENDMDL
MODEL 9
REMARK VINA RESULT:    -3.003     20.443     21.077
REMARK INTER + INTRA:          -3.550
REMARK INTER:                  -3.488
REMARK INTRA:                  -0.062
REMARK UNBOUND:                -0.021
REMARK  Name = 264
REMARK  4 active torsions:
REMARK  status: ('A' for Active; 'I' for Inactive)
REMARK    1  A    between atoms: O_1  and  C_6
REMARK    2  A    between atoms: C_3  and  C_4
REMARK    3  A    between atoms: C_3  and  C_5
REMARK    4  A    between atoms: C_4  and  C_6
REMARK                            x       y       z     vdW  Elec       q    Type
REMARK                         _______ _______ _______ _____ _____    ______ ____
ROOT
ATOM      1  C   UNL     1       1.223   4.388 -19.990  0.00  0.00    +0.000 C 
ATOM      2  H   UNL     1       1.980   3.917 -20.628  0.00  0.00    +0.000 HD
ATOM      3  H   UNL     1       1.755   4.785 -19.117  0.00  0.00    +0.000 HD
ENDROOT
BRANCH   1   4
ATOM      4  C   UNL     1       0.591   5.547 -20.747  0.00  0.00    +0.000 C 
ATOM      5  H   UNL     1       1.284   6.391 -20.818  0.00  0.00    +0.000 HD
ATOM      6  H   UNL     1      -0.319   5.891 -20.246  0.00  0.00    +0.000 HD
ATOM      7  H   UNL     1       0.324   5.237 -21.763  0.00  0.00    +0.000 HD
ENDBRANCH   1   4
BRANCH   1   8
ATOM      8  C   UNL     1       0.203   3.347 -19.544  0.00  0.00    +0.000 C 
ATOM      9  H   UNL     1       0.693   2.575 -18.943  0.00  0.00    +0.000 HD
ATOM     10  H   UNL     1      -0.575   3.828 -18.941  0.00  0.00    +0.000 HD
BRANCH   8  12
ATOM     11  O   UNL     1       0.122   1.926 -21.495  0.00  0.00    +0.000 OA
ATOM     12  C   UNL     1      -0.460   2.674 -20.720  0.00  0.00    +0.000 C 
BRANCH  12  13
ATOM     13  O   UNL     1      -1.782   2.963 -20.817  0.00  0.00    +0.000 OA
ATOM     14  H   UNL     1      -1.989   3.463 -21.635  0.00  0.00    +0.000 HD
ENDBRANCH  12  13
ENDBRANCH   8  12
ENDBRANCH   1   8
TORSDOF 4
ENDMDL
MODEL 10
REMARK VINA RESULT:    -2.820     32.260     32.823
REMARK INTER + INTRA:          -3.336
REMARK INTER:                  -3.315
REMARK INTRA:                  -0.021
REMARK UNBOUND:                -0.021
REMARK  Name = 264
REMARK  4 active torsions:
REMARK  status: ('A' for Active; 'I' for Inactive)
REMARK    1  A    between atoms: O_1  and  C_6
REMARK    2  A    between atoms: C_3  and  C_4
REMARK    3  A    between atoms: C_3  and  C_5
REMARK    4  A    between atoms: C_4  and  C_6
REMARK                            x       y       z     vdW  Elec       q    Type
REMARK                         _______ _______ _______ _____ _____    ______ ____
ROOT
ATOM      1  C   UNL     1      16.192 -14.288  -3.960  0.00  0.00    +0.000 C 
ATOM      2  H   UNL     1      16.798 -14.081  -4.850  0.00  0.00    +0.000 HD
ATOM      3  H   UNL     1      16.220 -15.373  -3.809  0.00  0.00    +0.000 HD
ENDROOT
BRANCH   1   4
ATOM      4  C   UNL     1      16.833 -13.609  -2.757  0.00  0.00    +0.000 C 
ATOM      5  H   UNL     1      17.820 -13.211  -3.014  0.00  0.00    +0.000 HD
ATOM      6  H   UNL     1      16.953 -14.314  -1.929  0.00  0.00    +0.000 HD
ATOM      7  H   UNL     1      16.209 -12.779  -2.412  0.00  0.00    +0.000 HD
ENDBRANCH   1   4
BRANCH   1   8
ATOM      8  C   UNL     1      14.756 -13.836  -4.196  0.00  0.00    +0.000 C 
ATOM      9  H   UNL     1      14.502 -13.019  -3.512  0.00  0.00    +0.000 HD
ATOM     10  H   UNL     1      14.645 -13.484  -5.227  0.00  0.00    +0.000 HD
BRANCH   8  12
ATOM     11  O   UNL     1      14.009 -16.133  -4.216  0.00  0.00    +0.000 OA
ATOM     12  C   UNL     1      13.772 -14.956  -3.971  0.00  0.00    +0.000 C 
BRANCH  12  13
ATOM     13  O   UNL     1      12.598 -14.530  -3.442  0.00  0.00    +0.000 OA
ATOM     14  H   UNL     1      12.736 -13.870  -2.729  0.00  0.00    +0.000 HD
ENDBRANCH  12  13
ENDBRANCH   8  12
ENDBRANCH   1   8
TORSDOF 4
ENDMDL
