MODEL 1
REMARK VINA RESULT:    -4.758      0.000      0.000
REMARK INTER + INTRA:          -5.175
REMARK INTER:                  -5.175
REMARK INTRA:                   0.000
REMARK UNBOUND:                 0.000
REMARK  Name = 2537
REMARK  3 active torsions:
REMARK  status: ('A' for Active; 'I' for Inactive)
REMARK    1  A    between atoms: C_2  and  C_9
REMARK    2  A    between atoms: C_2  and  C_10
REMARK    3  A    between atoms: C_3  and  C_11
REMARK                            x       y       z     vdW  Elec       q    Type
REMARK                         _______ _______ _______ _____ _____    ______ ____
ROOT
ATOM      1  O   UNL     1      -4.810 -15.834   5.215  0.00  0.00    +0.000 OA
ATOM      2  C   UNL     1      -6.934 -14.516   2.770  0.00  0.00    +0.000 C 
ATOM      3  C   UNL     1      -5.544 -14.306   3.433  0.00  0.00    +0.000 C 
ATOM      4  C   UNL     1      -7.688 -14.157   4.080  0.00  0.00    +0.000 C 
ATOM      5  C   UNL     1      -5.626 -12.880   4.022  0.00  0.00    +0.000 C 
ATOM      6  C   UNL     1      -7.107 -12.767   4.446  0.00  0.00    +0.000 C 
ATOM      7  C   UNL     1      -7.147 -15.168   5.121  0.00  0.00    +0.000 C 
ATOM      8  C   UNL     1      -5.701 -15.204   4.665  0.00  0.00    +0.000 C 
ATOM      9  H   UNL     1      -8.778 -14.161   4.011  0.00  0.00    +0.000 HD
ATOM     10  H   UNL     1      -5.373 -12.111   3.285  0.00  0.00    +0.000 HD
ATOM     11  H   UNL     1      -4.963 -12.746   4.884  0.00  0.00    +0.000 HD
ATOM     12  H   UNL     1      -7.207 -12.540   5.513  0.00  0.00    +0.000 HD
ATOM     13  H   UNL     1      -7.610 -11.966   3.894  0.00  0.00    +0.000 HD
ATOM     14  H   UNL     1      -7.603 -16.155   5.020  0.00  0.00    +0.000 HD
ATOM     15  H   UNL     1      -7.227 -14.804   6.148  0.00  0.00    +0.000 HD
ENDROOT
BRANCH   2  16
ATOM     16  C   UNL     1      -7.243 -13.569   1.595  0.00  0.00    +0.000 C 
ATOM     17  H   UNL     1      -7.387 -14.073   0.636  0.00  0.00    +0.000 HD
ATOM     18  H   UNL     1      -6.426 -12.851   1.460  0.00  0.00    +0.000 HD
ATOM     19  H   UNL     1      -8.159 -12.999   1.788  0.00  0.00    +0.000 HD
ENDBRANCH   2  16
BRANCH   2  20
ATOM     20  C   UNL     1      -7.193 -15.949   2.259  0.00  0.00    +0.000 C 
ATOM     21  H   UNL     1      -8.238 -16.060   1.951  0.00  0.00    +0.000 HD
ATOM     22  H   UNL     1      -6.986 -16.729   2.996  0.00  0.00    +0.000 HD
ATOM     23  H   UNL     1      -6.562 -16.170   1.390  0.00  0.00    +0.000 HD
ENDBRANCH   2  20
BRANCH   3  24
ATOM     24  C   UNL     1      -4.315 -14.586   2.602  0.00  0.00    +0.000 C 
ATOM     25  H   UNL     1      -3.939 -15.600   2.775  0.00  0.00    +0.000 HD
ATOM     26  H   UNL     1      -4.537 -14.491   1.533  0.00  0.00    +0.000 HD
ATOM     27  H   UNL     1      -3.510 -13.880   2.829  0.00  0.00    +0.000 HD
ENDBRANCH   3  24
TORSDOF 3
ENDMDL
MODEL 2
REMARK VINA RESULT:    -4.688     29.837     31.236
REMARK INTER + INTRA:          -5.099
REMARK INTER:                  -5.099
REMARK INTRA:                   0.000
REMARK UNBOUND:                 0.000
REMARK  Name = 2537
REMARK  3 active torsions:
REMARK  status: ('A' for Active; 'I' for Inactive)
REMARK    1  A    between atoms: C_2  and  C_9
REMARK    2  A    between atoms: C_2  and  C_10
REMARK    3  A    between atoms: C_3  and  C_11
REMARK                            x       y       z     vdW  Elec       q    Type
REMARK                         _______ _______ _______ _____ _____    ______ ____
ROOT
ATOM      1  O   UNL     1      13.228   7.779  -0.202  0.00  0.00    +0.000 OA
ATOM      2  C   UNL     1      16.320   7.081  -1.677  0.00  0.00    +0.000 C 
ATOM      3  C   UNL     1      15.166   8.122  -1.676  0.00  0.00    +0.000 C 
ATOM      4  C   UNL     1      15.414   5.976  -2.288  0.00  0.00    +0.000 C 
ATOM      5  C   UNL     1      14.667   8.122  -3.139  0.00  0.00    +0.000 C 
ATOM      6  C   UNL     1      14.860   6.651  -3.570  0.00  0.00    +0.000 C 
ATOM      7  C   UNL     1      14.237   5.853  -1.290  0.00  0.00    +0.000 C 
ATOM      8  C   UNL     1      14.088   7.320  -0.939  0.00  0.00    +0.000 C 
ATOM      9  H   UNL     1      15.906   5.021  -2.486  0.00  0.00    +0.000 HD
ATOM     10  H   UNL     1      15.252   8.793  -3.777  0.00  0.00    +0.000 HD
ATOM     11  H   UNL     1      13.615   8.417  -3.221  0.00  0.00    +0.000 HD
ATOM     12  H   UNL     1      13.920   6.201  -3.906  0.00  0.00    +0.000 HD
ATOM     13  H   UNL     1      15.571   6.579  -4.399  0.00  0.00    +0.000 HD
ATOM     14  H   UNL     1      14.502   5.273  -0.403  0.00  0.00    +0.000 HD
ATOM     15  H   UNL     1      13.327   5.464  -1.753  0.00  0.00    +0.000 HD
ENDROOT
BRANCH   2  16
ATOM     16  C   UNL     1      17.530   7.451  -2.557  0.00  0.00    +0.000 C 
ATOM     17  H   UNL     1      18.392   7.828  -2.002  0.00  0.00    +0.000 HD
ATOM     18  H   UNL     1      17.251   8.226  -3.279  0.00  0.00    +0.000 HD
ATOM     19  H   UNL     1      17.879   6.579  -3.121  0.00  0.00    +0.000 HD
ENDBRANCH   2  16
BRANCH   2  20
ATOM     20  C   UNL     1      16.881   6.742  -0.280  0.00  0.00    +0.000 C 
ATOM     21  H   UNL     1      17.274   7.645   0.202  0.00  0.00    +0.000 HD
ATOM     22  H   UNL     1      17.686   6.002  -0.290  0.00  0.00    +0.000 HD
ATOM     23  H   UNL     1      16.095   6.334   0.365  0.00  0.00    +0.000 HD
ENDBRANCH   2  20
BRANCH   3  24
ATOM     24  C   UNL     1      15.446   9.486  -1.094  0.00  0.00    +0.000 C 
ATOM     25  H   UNL     1      14.658   9.792  -0.398  0.00  0.00    +0.000 HD
ATOM     26  H   UNL     1      16.395   9.490  -0.547  0.00  0.00    +0.000 HD
ATOM     27  H   UNL     1      15.523  10.247  -1.878  0.00  0.00    +0.000 HD
ENDBRANCH   3  24
TORSDOF 3
ENDMDL
MODEL 3
REMARK VINA RESULT:    -4.680     30.324     31.852
REMARK INTER + INTRA:          -5.091
REMARK INTER:                  -5.091
REMARK INTRA:                   0.000
REMARK UNBOUND:                 0.000
REMARK  Name = 2537
REMARK  3 active torsions:
REMARK  status: ('A' for Active; 'I' for Inactive)
REMARK    1  A    between atoms: C_2  and  C_9
REMARK    2  A    between atoms: C_2  and  C_10
REMARK    3  A    between atoms: C_3  and  C_11
REMARK                            x       y       z     vdW  Elec       q    Type
REMARK                         _______ _______ _______ _____ _____    ______ ____
ROOT
ATOM      1  O   UNL     1       2.567   2.158 -22.908  0.00  0.00    +0.000 OA
ATOM      2  C   UNL     1       1.363   4.762 -20.909  0.00  0.00    +0.000 C 
ATOM      3  C   UNL     1       2.121   3.407 -20.837  0.00  0.00    +0.000 C 
ATOM      4  C   UNL     1       0.048   4.079 -21.375  0.00  0.00    +0.000 C 
ATOM      5  C   UNL     1       1.229   2.532 -19.927  0.00  0.00    +0.000 C 
ATOM      6  C   UNL     1      -0.197   3.010 -20.279  0.00  0.00    +0.000 C 
ATOM      7  C   UNL     1       0.447   3.326 -22.668  0.00  0.00    +0.000 C 
ATOM      8  C   UNL     1       1.827   2.865 -22.240  0.00  0.00    +0.000 C 
ATOM      9  H   UNL     1      -0.804   4.748 -21.519  0.00  0.00    +0.000 HD
ATOM     10  H   UNL     1       1.440   2.689 -18.864  0.00  0.00    +0.000 HD
ATOM     11  H   UNL     1       1.344   1.462 -20.135  0.00  0.00    +0.000 HD
ATOM     12  H   UNL     1      -0.825   2.185 -20.633  0.00  0.00    +0.000 HD
ATOM     13  H   UNL     1      -0.689   3.443 -19.402  0.00  0.00    +0.000 HD
ATOM     14  H   UNL     1       0.517   3.990 -23.532  0.00  0.00    +0.000 HD
ATOM     15  H   UNL     1      -0.203   2.474 -22.881  0.00  0.00    +0.000 HD
ENDROOT
BRANCH   2  16
ATOM     16  C   UNL     1       1.235   5.507 -19.566  0.00  0.00    +0.000 C 
ATOM     17  H   UNL     1       1.234   6.596 -19.653  0.00  0.00    +0.000 HD
ATOM     18  H   UNL     1       2.065   5.240 -18.902  0.00  0.00    +0.000 HD
ATOM     19  H   UNL     1       0.302   5.234 -19.059  0.00  0.00    +0.000 HD
ENDBRANCH   2  16
BRANCH   2  20
ATOM     20  C   UNL     1       1.948   5.773 -21.917  0.00  0.00    +0.000 C 
ATOM     21  H   UNL     1       1.300   6.653 -21.994  0.00  0.00    +0.000 HD
ATOM     22  H   UNL     1       2.074   5.372 -22.927  0.00  0.00    +0.000 HD
ATOM     23  H   UNL     1       2.938   6.114 -21.594  0.00  0.00    +0.000 HD
ENDBRANCH   2  20
BRANCH   3  24
ATOM     24  C   UNL     1       3.584   3.434 -20.465  0.00  0.00    +0.000 C 
ATOM     25  H   UNL     1       3.823   4.308 -19.851  0.00  0.00    +0.000 HD
ATOM     26  H   UNL     1       3.858   2.539 -19.895  0.00  0.00    +0.000 HD
ATOM     27  H   UNL     1       4.222   3.456 -21.354  0.00  0.00    +0.000 HD
ENDBRANCH   3  24
TORSDOF 3
ENDMDL
MODEL 4
REMARK VINA RESULT:    -4.629     30.396     31.965
REMARK INTER + INTRA:          -5.035
REMARK INTER:                  -5.035
REMARK INTRA:                   0.000
REMARK UNBOUND:                 0.000
REMARK  Name = 2537
REMARK  3 active torsions:
REMARK  status: ('A' for Active; 'I' for Inactive)
REMARK    1  A    between atoms: C_2  and  C_9
REMARK    2  A    between atoms: C_2  and  C_10
REMARK    3  A    between atoms: C_3  and  C_11
REMARK                            x       y       z     vdW  Elec       q    Type
REMARK                         _______ _______ _______ _____ _____    ______ ____
ROOT
ATOM      1  O   UNL     1       1.155   1.841 -22.714  0.00  0.00    +0.000 OA
ATOM      2  C   UNL     1       1.068   4.317 -20.247  0.00  0.00    +0.000 C 
ATOM      3  C   UNL     1       0.834   4.087 -21.766  0.00  0.00    +0.000 C 
ATOM      4  C   UNL     1       2.591   4.038 -20.371  0.00  0.00    +0.000 C 
ATOM      5  C   UNL     1       1.837   5.047 -22.445  0.00  0.00    +0.000 C 
ATOM      6  C   UNL     1       3.038   5.033 -21.474  0.00  0.00    +0.000 C 
ATOM      7  C   UNL     1       2.671   2.616 -20.978  0.00  0.00    +0.000 C 
ATOM      8  C   UNL     1       1.495   2.715 -21.931  0.00  0.00    +0.000 C 
ATOM      9  H   UNL     1       3.164   4.138 -19.446  0.00  0.00    +0.000 HD
ATOM     10  H   UNL     1       1.436   6.060 -22.552  0.00  0.00    +0.000 HD
ATOM     11  H   UNL     1       2.138   4.700 -23.440  0.00  0.00    +0.000 HD
ATOM     12  H   UNL     1       3.960   4.716 -21.973  0.00  0.00    +0.000 HD
ATOM     13  H   UNL     1       3.217   6.031 -21.062  0.00  0.00    +0.000 HD
ATOM     14  H   UNL     1       2.495   1.835 -20.235  0.00  0.00    +0.000 HD
ATOM     15  H   UNL     1       3.602   2.437 -21.520  0.00  0.00    +0.000 HD
ENDROOT
BRANCH   2  16
ATOM     16  C   UNL     1       0.733   5.735 -19.745  0.00  0.00    +0.000 C 
ATOM     17  H   UNL     1      -0.328   5.907 -19.556  0.00  0.00    +0.000 HD
ATOM     18  H   UNL     1       1.053   6.483 -20.479  0.00  0.00    +0.000 HD
ATOM     19  H   UNL     1       1.256   5.945 -18.805  0.00  0.00    +0.000 HD
ENDBRANCH   2  16
BRANCH   2  20
ATOM     20  C   UNL     1       0.314   3.336 -19.325  0.00  0.00    +0.000 C 
ATOM     21  H   UNL     1      -0.389   2.729 -19.907  0.00  0.00    +0.000 HD
ATOM     22  H   UNL     1      -0.257   3.822 -18.529  0.00  0.00    +0.000 HD
ATOM     23  H   UNL     1       1.015   2.654 -18.830  0.00  0.00    +0.000 HD
ENDBRANCH   2  20
BRANCH   3  24
ATOM     24  C   UNL     1      -0.582   4.170 -22.284  0.00  0.00    +0.000 C 
ATOM     25  H   UNL     1      -0.602   4.376 -23.359  0.00  0.00    +0.000 HD
ATOM     26  H   UNL     1      -1.115   3.228 -22.114  0.00  0.00    +0.000 HD
ATOM     27  H   UNL     1      -1.148   4.957 -21.775  0.00  0.00    +0.000 HD
ENDBRANCH   3  24
TORSDOF 3
ENDMDL
MODEL 5
REMARK VINA RESULT:    -4.585     24.289     25.999
REMARK INTER + INTRA:          -4.988
REMARK INTER:                  -4.988
REMARK INTRA:                   0.000
REMARK UNBOUND:                 0.000
REMARK  Name = 2537
REMARK  3 active torsions:
REMARK  status: ('A' for Active; 'I' for Inactive)
REMARK    1  A    between atoms: C_2  and  C_9
REMARK    2  A    between atoms: C_2  and  C_10
REMARK    3  A    between atoms: C_3  and  C_11
REMARK                            x       y       z     vdW  Elec       q    Type
REMARK                         _______ _______ _______ _____ _____    ______ ____
ROOT
ATOM      1  O   UNL     1      17.979  -4.135   0.357  0.00  0.00    +0.000 OA
ATOM      2  C   UNL     1      17.794  -6.032  -2.574  0.00  0.00    +0.000 C 
ATOM      3  C   UNL     1      17.428  -4.641  -1.986  0.00  0.00    +0.000 C 
ATOM      4  C   UNL     1      16.782  -6.765  -1.651  0.00  0.00    +0.000 C 
ATOM      5  C   UNL     1      15.893  -4.563  -2.149  0.00  0.00    +0.000 C 
ATOM      6  C   UNL     1      15.449  -6.028  -1.943  0.00  0.00    +0.000 C 
ATOM      7  C   UNL     1      17.218  -6.371  -0.218  0.00  0.00    +0.000 C 
ATOM      8  C   UNL     1      17.606  -4.931  -0.492  0.00  0.00    +0.000 C 
ATOM      9  H   UNL     1      16.714  -7.846  -1.793  0.00  0.00    +0.000 HD
ATOM     10  H   UNL     1      15.598  -4.204  -3.141  0.00  0.00    +0.000 HD
ATOM     11  H   UNL     1      15.427  -3.907  -1.405  0.00  0.00    +0.000 HD
ATOM     12  H   UNL     1      14.731  -6.123  -1.121  0.00  0.00    +0.000 HD
ATOM     13  H   UNL     1      14.966  -6.419  -2.845  0.00  0.00    +0.000 HD
ATOM     14  H   UNL     1      18.084  -6.942   0.124  0.00  0.00    +0.000 HD
ATOM     15  H   UNL     1      16.402  -6.429   0.505  0.00  0.00    +0.000 HD
ENDROOT
BRANCH   2  16
ATOM     16  C   UNL     1      17.500  -6.200  -4.078  0.00  0.00    +0.000 C 
ATOM     17  H   UNL     1      17.256  -5.270  -4.595  0.00  0.00    +0.000 HD
ATOM     18  H   UNL     1      16.654  -6.880  -4.225  0.00  0.00    +0.000 HD
ATOM     19  H   UNL     1      18.366  -6.626  -4.596  0.00  0.00    +0.000 HD
ENDBRANCH   2  16
BRANCH   2  20
ATOM     20  C   UNL     1      19.265  -6.451  -2.366  0.00  0.00    +0.000 C 
ATOM     21  H   UNL     1      19.367  -7.037  -1.445  0.00  0.00    +0.000 HD
ATOM     22  H   UNL     1      19.962  -5.611  -2.296  0.00  0.00    +0.000 HD
ATOM     23  H   UNL     1      19.612  -7.073  -3.198  0.00  0.00    +0.000 HD
ENDBRANCH   2  20
BRANCH   3  24
ATOM     24  C   UNL     1      18.187  -3.438  -2.489  0.00  0.00    +0.000 C 
ATOM     25  H   UNL     1      17.680  -2.505  -2.221  0.00  0.00    +0.000 HD
ATOM     26  H   UNL     1      19.195  -3.405  -2.060  0.00  0.00    +0.000 HD
ATOM     27  H   UNL     1      18.302  -3.464  -3.578  0.00  0.00    +0.000 HD
ENDBRANCH   3  24
TORSDOF 3
ENDMDL
MODEL 6
REMARK VINA RESULT:    -4.521     30.768     32.207
REMARK INTER + INTRA:          -4.918
REMARK INTER:                  -4.918
REMARK INTRA:                   0.000
REMARK UNBOUND:                 0.000
REMARK  Name = 2537
REMARK  3 active torsions:
REMARK  status: ('A' for Active; 'I' for Inactive)
REMARK    1  A    between atoms: C_2  and  C_9
REMARK    2  A    between atoms: C_2  and  C_10
REMARK    3  A    between atoms: C_3  and  C_11
REMARK                            x       y       z     vdW  Elec       q    Type
REMARK                         _______ _______ _______ _____ _____    ______ ____
ROOT
ATOM      1  O   UNL     1       0.261   3.395 -19.149  0.00  0.00    +0.000 OA
ATOM      2  C   UNL     1       1.392   5.560 -21.651  0.00  0.00    +0.000 C 
ATOM      3  C   UNL     1       1.736   4.225 -20.934  0.00  0.00    +0.000 C 
ATOM      4  C   UNL     1       1.644   6.394 -20.365  0.00  0.00    +0.000 C 
ATOM      5  C   UNL     1       3.134   4.480 -20.327  0.00  0.00    +0.000 C 
ATOM      6  C   UNL     1       3.081   5.979 -19.956  0.00  0.00    +0.000 C 
ATOM      7  C   UNL     1       0.676   5.785 -19.320  0.00  0.00    +0.000 C 
ATOM      8  C   UNL     1       0.804   4.328 -19.722  0.00  0.00    +0.000 C 
ATOM      9  H   UNL     1       1.525   7.475 -20.474  0.00  0.00    +0.000 HD
ATOM     10  H   UNL     1       3.940   4.285 -21.043  0.00  0.00    +0.000 HD
ATOM     11  H   UNL     1       3.321   3.866 -19.439  0.00  0.00    +0.000 HD
ATOM     12  H   UNL     1       3.275   6.140 -18.890  0.00  0.00    +0.000 HD
ATOM     13  H   UNL     1       3.834   6.544 -20.515  0.00  0.00    +0.000 HD
ATOM     14  H   UNL     1      -0.351   6.129 -19.453  0.00  0.00    +0.000 HD
ATOM     15  H   UNL     1       1.010   5.940 -18.292  0.00  0.00    +0.000 HD
ENDROOT
BRANCH   2  16
ATOM     16  C   UNL     1       2.323   5.927 -22.823  0.00  0.00    +0.000 C 
ATOM     17  H   UNL     1       3.153   6.583 -22.550  0.00  0.00    +0.000 HD
ATOM     18  H   UNL     1       1.758   6.436 -23.612  0.00  0.00    +0.000 HD
ATOM     19  H   UNL     1       2.769   5.027 -23.260  0.00  0.00    +0.000 HD
ENDBRANCH   2  16
BRANCH   2  20
ATOM     20  C   UNL     1      -0.050   5.646 -22.194  0.00  0.00    +0.000 C 
ATOM     21  H   UNL     1      -0.755   5.826 -21.374  0.00  0.00    +0.000 HD
ATOM     22  H   UNL     1      -0.383   4.746 -22.718  0.00  0.00    +0.000 HD
ATOM     23  H   UNL     1      -0.147   6.472 -22.907  0.00  0.00    +0.000 HD
ENDBRANCH   2  20
BRANCH   3  24
ATOM     24  C   UNL     1       1.604   2.945 -21.723  0.00  0.00    +0.000 C 
ATOM     25  H   UNL     1       1.123   2.159 -21.131  0.00  0.00    +0.000 HD
ATOM     26  H   UNL     1       1.000   3.102 -22.624  0.00  0.00    +0.000 HD
ATOM     27  H   UNL     1       2.581   2.575 -22.051  0.00  0.00    +0.000 HD
ENDBRANCH   3  24
TORSDOF 3
ENDMDL
MODEL 7
REMARK VINA RESULT:    -4.456     30.372     31.757
REMARK INTER + INTRA:          -4.847
REMARK INTER:                  -4.847
REMARK INTRA:                   0.000
REMARK UNBOUND:                 0.000
REMARK  Name = 2537
REMARK  3 active torsions:
REMARK  status: ('A' for Active; 'I' for Inactive)
REMARK    1  A    between atoms: C_2  and  C_9
REMARK    2  A    between atoms: C_2  and  C_10
REMARK    3  A    between atoms: C_3  and  C_11
REMARK                            x       y       z     vdW  Elec       q    Type
REMARK                         _______ _______ _______ _____ _____    ______ ____
ROOT
ATOM      1  O   UNL     1       0.505   4.887 -18.965  0.00  0.00    +0.000 OA
ATOM      2  C   UNL     1       2.295   3.048 -21.339  0.00  0.00    +0.000 C 
ATOM      3  C   UNL     1       1.876   4.498 -20.969  0.00  0.00    +0.000 C 
ATOM      4  C   UNL     1       0.830   2.631 -21.645  0.00  0.00    +0.000 C 
ATOM      5  C   UNL     1       1.078   4.979 -22.202  0.00  0.00    +0.000 C 
ATOM      6  C   UNL     1       0.376   3.690 -22.683  0.00  0.00    +0.000 C 
ATOM      7  C   UNL     1       0.067   2.923 -20.329  0.00  0.00    +0.000 C 
ATOM      8  C   UNL     1       0.782   4.202 -19.938  0.00  0.00    +0.000 C 
ATOM      9  H   UNL     1       0.697   1.604 -21.995  0.00  0.00    +0.000 HD
ATOM     10  H   UNL     1       1.728   5.384 -22.985  0.00  0.00    +0.000 HD
ATOM     11  H   UNL     1       0.342   5.751 -21.947  0.00  0.00    +0.000 HD
ATOM     12  H   UNL     1      -0.713   3.807 -22.711  0.00  0.00    +0.000 HD
ATOM     13  H   UNL     1       0.702   3.424 -23.694  0.00  0.00    +0.000 HD
ATOM     14  H   UNL     1       0.227   2.150 -19.575  0.00  0.00    +0.000 HD
ATOM     15  H   UNL     1      -0.999   3.100 -20.487  0.00  0.00    +0.000 HD
ENDROOT
BRANCH   2  16
ATOM     16  C   UNL     1       3.240   2.934 -22.550  0.00  0.00    +0.000 C 
ATOM     17  H   UNL     1       2.731   2.850 -23.513  0.00  0.00    +0.000 HD
ATOM     18  H   UNL     1       3.882   2.051 -22.450  0.00  0.00    +0.000 HD
ATOM     19  H   UNL     1       3.891   3.813 -22.618  0.00  0.00    +0.000 HD
ENDBRANCH   2  16
BRANCH   2  20
ATOM     20  C   UNL     1       2.955   2.257 -20.191  0.00  0.00    +0.000 C 
ATOM     21  H   UNL     1       3.307   1.284 -20.552  0.00  0.00    +0.000 HD
ATOM     22  H   UNL     1       2.293   2.069 -19.341  0.00  0.00    +0.000 HD
ATOM     23  H   UNL     1       3.821   2.799 -19.794  0.00  0.00    +0.000 HD
ENDBRANCH   2  20
BRANCH   3  24
ATOM     24  C   UNL     1       2.951   5.445 -20.492  0.00  0.00    +0.000 C 
ATOM     25  H   UNL     1       3.951   5.050 -20.700  0.00  0.00    +0.000 HD
ATOM     26  H   UNL     1       2.865   6.416 -20.992  0.00  0.00    +0.000 HD
ATOM     27  H   UNL     1       2.873   5.629 -19.416  0.00  0.00    +0.000 HD
ENDBRANCH   3  24
TORSDOF 3
ENDMDL
MODEL 8
REMARK VINA RESULT:    -4.416     13.777     15.362
REMARK INTER + INTRA:          -4.803
REMARK INTER:                  -4.803
REMARK INTRA:                   0.000
REMARK UNBOUND:                 0.000
REMARK  Name = 2537
REMARK  3 active torsions:
REMARK  status: ('A' for Active; 'I' for Inactive)
REMARK    1  A    between atoms: C_2  and  C_9
REMARK    2  A    between atoms: C_2  and  C_10
REMARK    3  A    between atoms: C_3  and  C_11
REMARK                            x       y       z     vdW  Elec       q    Type
REMARK                         _______ _______ _______ _____ _____    ______ ____
ROOT
ATOM      1  O   UNL     1     -15.728  -4.397  -2.912  0.00  0.00    +0.000 OA
ATOM      2  C   UNL     1     -13.397  -5.281  -5.363  0.00  0.00    +0.000 C 
ATOM      3  C   UNL     1     -14.526  -4.260  -5.053  0.00  0.00    +0.000 C 
ATOM      4  C   UNL     1     -14.396  -6.470  -5.424  0.00  0.00    +0.000 C 
ATOM      5  C   UNL     1     -15.545  -4.478  -6.195  0.00  0.00    +0.000 C 
ATOM      6  C   UNL     1     -15.439  -5.994  -6.468  0.00  0.00    +0.000 C 
ATOM      7  C   UNL     1     -15.092  -6.455  -4.041  0.00  0.00    +0.000 C 
ATOM      8  C   UNL     1     -15.188  -4.953  -3.857  0.00  0.00    +0.000 C 
ATOM      9  H   UNL     1     -13.958  -7.441  -5.669  0.00  0.00    +0.000 HD
ATOM     10  H   UNL     1     -15.293  -3.902  -7.092  0.00  0.00    +0.000 HD
ATOM     11  H   UNL     1     -16.565  -4.205  -5.901  0.00  0.00    +0.000 HD
ATOM     12  H   UNL     1     -16.406  -6.496  -6.351  0.00  0.00    +0.000 HD
ATOM     13  H   UNL     1     -15.096  -6.182  -7.490  0.00  0.00    +0.000 HD
ATOM     14  H   UNL     1     -14.471  -6.897  -3.258  0.00  0.00    +0.000 HD
ATOM     15  H   UNL     1     -16.083  -6.913  -4.059  0.00  0.00    +0.000 HD
ENDROOT
BRANCH   2  16
ATOM     16  C   UNL     1     -12.642  -5.035  -6.684  0.00  0.00    +0.000 C 
ATOM     17  H   UNL     1     -11.857  -4.278  -6.620  0.00  0.00    +0.000 HD
ATOM     18  H   UNL     1     -13.338  -4.710  -7.465  0.00  0.00    +0.000 HD
ATOM     19  H   UNL     1     -12.158  -5.955  -7.031  0.00  0.00    +0.000 HD
ENDBRANCH   2  16
BRANCH   2  20
ATOM     20  C   UNL     1     -12.324  -5.408  -4.261  0.00  0.00    +0.000 C 
ATOM     21  H   UNL     1     -11.367  -5.718  -4.696  0.00  0.00    +0.000 HD
ATOM     22  H   UNL     1     -12.574  -6.128  -3.477  0.00  0.00    +0.000 HD
ATOM     23  H   UNL     1     -12.168  -4.446  -3.759  0.00  0.00    +0.000 HD
ENDBRANCH   2  20
BRANCH   3  24
ATOM     24  C   UNL     1     -14.133  -2.823  -4.811  0.00  0.00    +0.000 C 
ATOM     25  H   UNL     1     -13.215  -2.565  -5.349  0.00  0.00    +0.000 HD
ATOM     26  H   UNL     1     -14.921  -2.141  -5.148  0.00  0.00    +0.000 HD
ATOM     27  H   UNL     1     -13.971  -2.627  -3.746  0.00  0.00    +0.000 HD
ENDBRANCH   3  24
TORSDOF 3
ENDMDL
MODEL 9
REMARK VINA RESULT:    -4.349     16.441     17.719
REMARK INTER + INTRA:          -4.730
REMARK INTER:                  -4.730
REMARK INTRA:                   0.000
REMARK UNBOUND:                 0.000
REMARK  Name = 2537
REMARK  3 active torsions:
REMARK  status: ('A' for Active; 'I' for Inactive)
REMARK    1  A    between atoms: C_2  and  C_9
REMARK    2  A    between atoms: C_2  and  C_10
REMARK    3  A    between atoms: C_3  and  C_11
REMARK                            x       y       z     vdW  Elec       q    Type
REMARK                         _______ _______ _______ _____ _____    ______ ____
ROOT
ATOM      1  O   UNL     1      -9.047 -10.171 -13.902  0.00  0.00    +0.000 OA
ATOM      2  C   UNL     1      -8.205  -7.201 -12.261  0.00  0.00    +0.000 C 
ATOM      3  C   UNL     1      -7.742  -8.147 -13.403  0.00  0.00    +0.000 C 
ATOM      4  C   UNL     1      -7.915  -8.267 -11.168  0.00  0.00    +0.000 C 
ATOM      5  C   UNL     1      -6.323  -8.581 -12.971  0.00  0.00    +0.000 C 
ATOM      6  C   UNL     1      -6.433  -8.641 -11.432  0.00  0.00    +0.000 C 
ATOM      7  C   UNL     1      -8.776  -9.484 -11.585  0.00  0.00    +0.000 C 
ATOM      8  C   UNL     1      -8.596  -9.380 -13.087  0.00  0.00    +0.000 C 
ATOM      9  H   UNL     1      -8.099  -7.948 -10.139  0.00  0.00    +0.000 HD
ATOM     10  H   UNL     1      -5.557  -7.861 -13.278  0.00  0.00    +0.000 HD
ATOM     11  H   UNL     1      -6.043  -9.559 -13.379  0.00  0.00    +0.000 HD
ATOM     12  H   UNL     1      -6.178  -9.633 -11.045  0.00  0.00    +0.000 HD
ATOM     13  H   UNL     1      -5.751  -7.923 -10.965  0.00  0.00    +0.000 HD
ATOM     14  H   UNL     1      -9.827  -9.362 -11.317  0.00  0.00    +0.000 HD
ATOM     15  H   UNL     1      -8.384 -10.431 -11.207  0.00  0.00    +0.000 HD
ENDROOT
BRANCH   2  16
ATOM     16  C   UNL     1      -7.375  -5.911 -12.107  0.00  0.00    +0.000 C 
ATOM     17  H   UNL     1      -7.695  -5.264 -11.288  0.00  0.00    +0.000 HD
ATOM     18  H   UNL     1      -7.427  -5.315 -13.025  0.00  0.00    +0.000 HD
ATOM     19  H   UNL     1      -6.321  -6.149 -11.924  0.00  0.00    +0.000 HD
ENDBRANCH   2  16
BRANCH   2  20
ATOM     20  C   UNL     1      -9.683  -6.764 -12.347  0.00  0.00    +0.000 C 
ATOM     21  H   UNL     1      -9.799  -5.958 -13.080  0.00  0.00    +0.000 HD
ATOM     22  H   UNL     1     -10.097  -6.405 -11.401  0.00  0.00    +0.000 HD
ATOM     23  H   UNL     1     -10.316  -7.600 -12.664  0.00  0.00    +0.000 HD
ENDBRANCH   2  20
BRANCH   3  24
ATOM     24  C   UNL     1      -7.855  -7.649 -14.823  0.00  0.00    +0.000 C 
ATOM     25  H   UNL     1      -6.868  -7.496 -15.272  0.00  0.00    +0.000 HD
ATOM     26  H   UNL     1      -8.398  -8.368 -15.446  0.00  0.00    +0.000 HD
ATOM     27  H   UNL     1      -8.403  -6.702 -14.872  0.00  0.00    +0.000 HD
ENDBRANCH   3  24
TORSDOF 3
ENDMDL
MODEL 10
REMARK VINA RESULT:    -4.309     30.836     32.375
REMARK INTER + INTRA:          -4.687
REMARK INTER:                  -4.687
REMARK INTRA:                   0.000
REMARK UNBOUND:                 0.000
REMARK  Name = 2537
REMARK  3 active torsions:
REMARK  status: ('A' for Active; 'I' for Inactive)
REMARK    1  A    between atoms: C_2  and  C_9
REMARK    2  A    between atoms: C_2  and  C_10
REMARK    3  A    between atoms: C_3  and  C_11
REMARK                            x       y       z     vdW  Elec       q    Type
REMARK                         _______ _______ _______ _____ _____    ______ ____
ROOT
ATOM      1  O   UNL     1       2.940   5.037 -23.335  0.00  0.00    +0.000 OA
ATOM      2  C   UNL     1       1.535   3.807 -20.380  0.00  0.00    +0.000 C 
ATOM      3  C   UNL     1       1.158   4.347 -21.787  0.00  0.00    +0.000 C 
ATOM      4  C   UNL     1       2.088   5.185 -19.924  0.00  0.00    +0.000 C 
ATOM      5  C   UNL     1       0.274   5.580 -21.486  0.00  0.00    +0.000 C 
ATOM      6  C   UNL     1       0.899   6.144 -20.191  0.00  0.00    +0.000 C 
ATOM      7  C   UNL     1       3.186   5.518 -20.965  0.00  0.00    +0.000 C 
ATOM      8  C   UNL     1       2.497   4.969 -22.198  0.00  0.00    +0.000 C 
ATOM      9  H   UNL     1       2.451   5.230 -18.895  0.00  0.00    +0.000 HD
ATOM     10  H   UNL     1      -0.775   5.309 -21.326  0.00  0.00    +0.000 HD
ATOM     11  H   UNL     1       0.308   6.323 -22.291  0.00  0.00    +0.000 HD
ATOM     12  H   UNL     1       1.220   7.184 -20.315  0.00  0.00    +0.000 HD
ATOM     13  H   UNL     1       0.176   6.121 -19.369  0.00  0.00    +0.000 HD
ATOM     14  H   UNL     1       4.117   4.978 -20.775  0.00  0.00    +0.000 HD
ATOM     15  H   UNL     1       3.370   6.590 -21.060  0.00  0.00    +0.000 HD
ENDROOT
BRANCH   2  16
ATOM     16  C   UNL     1       0.346   3.305 -19.536  0.00  0.00    +0.000 C 
ATOM     17  H   UNL     1       0.310   2.220 -19.410  0.00  0.00    +0.000 HD
ATOM     18  H   UNL     1      -0.601   3.605 -19.998  0.00  0.00    +0.000 HD
ATOM     19  H   UNL     1       0.378   3.734 -18.529  0.00  0.00    +0.000 HD
ENDBRANCH   2  16
BRANCH   2  20
ATOM     20  C   UNL     1       2.580   2.672 -20.385  0.00  0.00    +0.000 C 
ATOM     21  H   UNL     1       2.758   2.313 -19.365  0.00  0.00    +0.000 HD
ATOM     22  H   UNL     1       3.548   2.959 -20.804  0.00  0.00    +0.000 HD
ATOM     23  H   UNL     1       2.226   1.822 -20.981  0.00  0.00    +0.000 HD
ENDBRANCH   2  20
BRANCH   3  24
ATOM     24  C   UNL     1       0.581   3.374 -22.786  0.00  0.00    +0.000 C 
ATOM     25  H   UNL     1      -0.431   3.664 -23.087  0.00  0.00    +0.000 HD
ATOM     26  H   UNL     1       1.199   3.332 -23.691  0.00  0.00    +0.000 HD
ATOM     27  H   UNL     1       0.539   2.359 -22.378  0.00  0.00    +0.000 HD
ENDBRANCH   3  24
TORSDOF 3
ENDMDL
