MODEL 1
REMARK VINA RESULT:    -5.357      0.000      0.000
REMARK INTER + INTRA:          -6.103
REMARK INTER:                  -5.984
REMARK INTRA:                  -0.119
REMARK UNBOUND:                -0.119
REMARK  Name = 637511
REMARK  2 active torsions:
REMARK  status: ('A' for Active; 'I' for Inactive)
REMARK    1  A    between atoms: C_2  and  C_7
REMARK    2  A    between atoms: C_9  and  C_10
REMARK                            x       y       z     vdW  Elec       q    Type
REMARK                         _______ _______ _______ _____ _____    ______ ____
ROOT
ATOM      1  C   UNL     1      -7.488 -14.486   4.020  0.00  0.00    +0.000 A 
ATOM      2  C   UNL     1      -7.533 -13.250   4.666  0.00  0.00    +0.000 A 
ATOM      3  C   UNL     1      -7.711 -15.658   4.741  0.00  0.00    +0.000 A 
ATOM      4  C   UNL     1      -7.801 -13.187   6.033  0.00  0.00    +0.000 A 
ATOM      5  C   UNL     1      -7.980 -15.596   6.109  0.00  0.00    +0.000 A 
ATOM      6  C   UNL     1      -8.025 -14.360   6.755  0.00  0.00    +0.000 A 
ATOM      7  H   UNL     1      -7.347 -12.314   4.149  0.00  0.00    +0.000 HD
ATOM      8  H   UNL     1      -7.683 -16.631   4.255  0.00  0.00    +0.000 HD
ATOM      9  H   UNL     1      -7.832 -12.226   6.538  0.00  0.00    +0.000 HD
ATOM     10  H   UNL     1      -8.155 -16.509   6.670  0.00  0.00    +0.000 HD
ATOM     11  H   UNL     1      -8.234 -14.312   7.820  0.00  0.00    +0.000 HD
ENDROOT
BRANCH   1  12
ATOM     12  C   UNL     1      -7.208 -14.551   2.593  0.00  0.00    +0.000 C 
ATOM     13  C   UNL     1      -7.380 -13.539   1.716  0.00  0.00    +0.000 C 
ATOM     14  H   UNL     1      -6.845 -15.510   2.231  0.00  0.00    +0.000 HD
ATOM     15  H   UNL     1      -7.758 -12.561   1.984  0.00  0.00    +0.000 HD
BRANCH  13  17
ATOM     16  O   UNL     1      -7.165 -12.860  -0.539  0.00  0.00    +0.000 OA
ATOM     17  C   UNL     1      -7.062 -13.756   0.290  0.00  0.00    +0.000 C 
ATOM     18  H   UNL     1      -6.726 -14.768   0.012  0.00  0.00    +0.000 HD
ENDBRANCH  13  17
ENDBRANCH   1  12
TORSDOF 2
ENDMDL
MODEL 2
REMARK VINA RESULT:    -5.074     28.645     29.511
REMARK INTER + INTRA:          -5.786
REMARK INTER:                  -5.677
REMARK INTRA:                  -0.109
REMARK UNBOUND:                -0.119
REMARK  Name = 637511
REMARK  2 active torsions:
REMARK  status: ('A' for Active; 'I' for Inactive)
REMARK    1  A    between atoms: C_2  and  C_7
REMARK    2  A    between atoms: C_9  and  C_10
REMARK                            x       y       z     vdW  Elec       q    Type
REMARK                         _______ _______ _______ _____ _____    ______ ____
ROOT
ATOM      1  C   UNL     1      -3.399   5.186  25.098  0.00  0.00    +0.000 A 
ATOM      2  C   UNL     1      -4.628   4.815  24.551  0.00  0.00    +0.000 A 
ATOM      3  C   UNL     1      -3.236   5.221  26.483  0.00  0.00    +0.000 A 
ATOM      4  C   UNL     1      -5.692   4.481  25.388  0.00  0.00    +0.000 A 
ATOM      5  C   UNL     1      -4.300   4.886  27.320  0.00  0.00    +0.000 A 
ATOM      6  C   UNL     1      -5.528   4.516  26.773  0.00  0.00    +0.000 A 
ATOM      7  H   UNL     1      -4.806   4.791  23.480  0.00  0.00    +0.000 HD
ATOM      8  H   UNL     1      -2.285   5.505  26.928  0.00  0.00    +0.000 HD
ATOM      9  H   UNL     1      -6.650   4.197  24.963  0.00  0.00    +0.000 HD
ATOM     10  H   UNL     1      -4.172   4.914  28.398  0.00  0.00    +0.000 HD
ATOM     11  H   UNL     1      -6.357   4.256  27.425  0.00  0.00    +0.000 HD
ENDROOT
BRANCH   1  12
ATOM     12  C   UNL     1      -2.289   5.534  24.225  0.00  0.00    +0.000 C 
ATOM     13  C   UNL     1      -1.861   6.788  23.968  0.00  0.00    +0.000 C 
ATOM     14  H   UNL     1      -1.790   4.695  23.745  0.00  0.00    +0.000 HD
ATOM     15  H   UNL     1      -2.311   7.681  24.383  0.00  0.00    +0.000 HD
BRANCH  13  17
ATOM     16  O   UNL     1       0.370   7.378  23.447  0.00  0.00    +0.000 OA
ATOM     17  C   UNL     1      -0.722   6.990  23.049  0.00  0.00    +0.000 C 
ATOM     18  H   UNL     1      -0.908   6.771  21.985  0.00  0.00    +0.000 HD
ENDBRANCH  13  17
ENDBRANCH   1  12
TORSDOF 2
ENDMDL
MODEL 3
REMARK VINA RESULT:    -4.965      2.619      4.821
REMARK INTER + INTRA:          -5.665
REMARK INTER:                  -5.543
REMARK INTRA:                  -0.122
REMARK UNBOUND:                -0.119
REMARK  Name = 637511
REMARK  2 active torsions:
REMARK  status: ('A' for Active; 'I' for Inactive)
REMARK    1  A    between atoms: C_2  and  C_7
REMARK    2  A    between atoms: C_9  and  C_10
REMARK                            x       y       z     vdW  Elec       q    Type
REMARK                         _______ _______ _______ _____ _____    ______ ____
ROOT
ATOM      1  C   UNL     1      -7.319 -14.506   2.757  0.00  0.00    +0.000 A 
ATOM      2  C   UNL     1      -7.165 -13.355   1.985  0.00  0.00    +0.000 A 
ATOM      3  C   UNL     1      -7.384 -15.756   2.141  0.00  0.00    +0.000 A 
ATOM      4  C   UNL     1      -7.078 -13.453   0.596  0.00  0.00    +0.000 A 
ATOM      5  C   UNL     1      -7.296 -15.855   0.753  0.00  0.00    +0.000 A 
ATOM      6  C   UNL     1      -7.142 -14.704  -0.020  0.00  0.00    +0.000 A 
ATOM      7  H   UNL     1      -7.129 -12.360   2.419  0.00  0.00    +0.000 HD
ATOM      8  H   UNL     1      -7.501 -16.665   2.727  0.00  0.00    +0.000 HD
ATOM      9  H   UNL     1      -6.963 -12.557  -0.007  0.00  0.00    +0.000 HD
ATOM     10  H   UNL     1      -7.346 -16.828   0.273  0.00  0.00    +0.000 HD
ATOM     11  H   UNL     1      -7.074 -14.781  -1.101  0.00  0.00    +0.000 HD
ENDROOT
BRANCH   1  12
ATOM     12  C   UNL     1      -7.410 -14.403   4.206  0.00  0.00    +0.000 C 
ATOM     13  C   UNL     1      -7.862 -13.328   4.886  0.00  0.00    +0.000 C 
ATOM     14  H   UNL     1      -7.068 -15.275   4.760  0.00  0.00    +0.000 HD
ATOM     15  H   UNL     1      -8.199 -12.412   4.419  0.00  0.00    +0.000 HD
BRANCH  13  17
ATOM     16  O   UNL     1      -7.995 -14.416   6.982  0.00  0.00    +0.000 OA
ATOM     17  C   UNL     1      -7.887 -13.365   6.363  0.00  0.00    +0.000 C 
ATOM     18  H   UNL     1      -7.803 -12.394   6.877  0.00  0.00    +0.000 HD
ENDBRANCH  13  17
ENDBRANCH   1  12
TORSDOF 2
ENDMDL
MODEL 4
REMARK VINA RESULT:    -4.853      6.662      7.421
REMARK INTER + INTRA:          -5.540
REMARK INTER:                  -5.417
REMARK INTRA:                  -0.123
REMARK UNBOUND:                -0.119
REMARK  Name = 637511
REMARK  2 active torsions:
REMARK  status: ('A' for Active; 'I' for Inactive)
REMARK    1  A    between atoms: C_2  and  C_7
REMARK    2  A    between atoms: C_9  and  C_10
REMARK                            x       y       z     vdW  Elec       q    Type
REMARK                         _______ _______ _______ _____ _____    ______ ____
ROOT
ATOM      1  C   UNL     1      -1.732 -15.920   0.261  0.00  0.00    +0.000 A 
ATOM      2  C   UNL     1      -1.093 -17.148   0.434  0.00  0.00    +0.000 A 
ATOM      3  C   UNL     1      -1.784 -15.007   1.314  0.00  0.00    +0.000 A 
ATOM      4  C   UNL     1      -0.506 -17.463   1.660  0.00  0.00    +0.000 A 
ATOM      5  C   UNL     1      -1.196 -15.320   2.540  0.00  0.00    +0.000 A 
ATOM      6  C   UNL     1      -0.557 -16.548   2.713  0.00  0.00    +0.000 A 
ATOM      7  H   UNL     1      -1.045 -17.897  -0.350  0.00  0.00    +0.000 HD
ATOM      8  H   UNL     1      -2.275 -14.043   1.197  0.00  0.00    +0.000 HD
ATOM      9  H   UNL     1      -0.013 -18.420   1.797  0.00  0.00    +0.000 HD
ATOM     10  H   UNL     1      -1.236 -14.609   3.359  0.00  0.00    +0.000 HD
ATOM     11  H   UNL     1      -0.101 -16.792   3.667  0.00  0.00    +0.000 HD
ENDROOT
BRANCH   1  12
ATOM     12  C   UNL     1      -2.344 -15.593  -1.017  0.00  0.00    +0.000 C 
ATOM     13  C   UNL     1      -2.309 -16.368  -2.122  0.00  0.00    +0.000 C 
ATOM     14  H   UNL     1      -2.854 -14.633  -1.060  0.00  0.00    +0.000 HD
ATOM     15  H   UNL     1      -1.805 -17.324  -2.177  0.00  0.00    +0.000 HD
BRANCH  13  17
ATOM     16  O   UNL     1      -2.869 -14.740  -3.745  0.00  0.00    +0.000 OA
ATOM     17  C   UNL     1      -2.969 -15.898  -3.357  0.00  0.00    +0.000 C 
ATOM     18  H   UNL     1      -3.557 -16.647  -3.913  0.00  0.00    +0.000 HD
ENDBRANCH  13  17
ENDBRANCH   1  12
TORSDOF 2
ENDMDL
MODEL 5
REMARK VINA RESULT:    -4.771     40.048     41.351
REMARK INTER + INTRA:          -5.448
REMARK INTER:                  -5.331
REMARK INTRA:                  -0.117
REMARK UNBOUND:                -0.119
REMARK  Name = 637511
REMARK  2 active torsions:
REMARK  status: ('A' for Active; 'I' for Inactive)
REMARK    1  A    between atoms: C_2  and  C_7
REMARK    2  A    between atoms: C_9  and  C_10
REMARK                            x       y       z     vdW  Elec       q    Type
REMARK                         _______ _______ _______ _____ _____    ______ ____
ROOT
ATOM      1  C   UNL     1      12.822  18.551 -11.600  0.00  0.00    +0.000 A 
ATOM      2  C   UNL     1      12.219  17.294 -11.642  0.00  0.00    +0.000 A 
ATOM      3  C   UNL     1      14.134  18.710 -12.044  0.00  0.00    +0.000 A 
ATOM      4  C   UNL     1      12.929  16.195 -12.127  0.00  0.00    +0.000 A 
ATOM      5  C   UNL     1      14.845  17.612 -12.531  0.00  0.00    +0.000 A 
ATOM      6  C   UNL     1      14.242  16.355 -12.573  0.00  0.00    +0.000 A 
ATOM      7  H   UNL     1      11.207  17.119 -11.289  0.00  0.00    +0.000 HD
ATOM      8  H   UNL     1      14.621  19.683 -12.022  0.00  0.00    +0.000 HD
ATOM      9  H   UNL     1      12.462  15.215 -12.156  0.00  0.00    +0.000 HD
ATOM     10  H   UNL     1      15.866  17.736 -12.877  0.00  0.00    +0.000 HD
ATOM     11  H   UNL     1      14.795  15.500 -12.950  0.00  0.00    +0.000 HD
ENDROOT
BRANCH   1  12
ATOM     12  C   UNL     1      12.082  19.696 -11.094  0.00  0.00    +0.000 C 
ATOM     13  C   UNL     1      11.168  19.659 -10.101  0.00  0.00    +0.000 C 
ATOM     14  H   UNL     1      12.294  20.644 -11.583  0.00  0.00    +0.000 HD
ATOM     15  H   UNL     1      10.878  18.758  -9.576  0.00  0.00    +0.000 HD
BRANCH  13  17
ATOM     16  O   UNL     1       9.383  20.897  -9.163  0.00  0.00    +0.000 OA
ATOM     17  C   UNL     1      10.485  20.906  -9.698  0.00  0.00    +0.000 C 
ATOM     18  H   UNL     1      11.023  21.846  -9.903  0.00  0.00    +0.000 HD
ENDBRANCH  13  17
ENDBRANCH   1  12
TORSDOF 2
ENDMDL
MODEL 6
REMARK VINA RESULT:    -4.699      3.727      5.462
REMARK INTER + INTRA:          -5.368
REMARK INTER:                  -5.248
REMARK INTRA:                  -0.119
REMARK UNBOUND:                -0.119
REMARK  Name = 637511
REMARK  2 active torsions:
REMARK  status: ('A' for Active; 'I' for Inactive)
REMARK    1  A    between atoms: C_2  and  C_7
REMARK    2  A    between atoms: C_9  and  C_10
REMARK                            x       y       z     vdW  Elec       q    Type
REMARK                         _______ _______ _______ _____ _____    ______ ____
ROOT
ATOM      1  C   UNL     1      -8.156 -15.026   5.832  0.00  0.00    +0.000 A 
ATOM      2  C   UNL     1      -8.122 -13.633   5.895  0.00  0.00    +0.000 A 
ATOM      3  C   UNL     1      -7.796 -15.680   4.654  0.00  0.00    +0.000 A 
ATOM      4  C   UNL     1      -7.728 -12.894   4.779  0.00  0.00    +0.000 A 
ATOM      5  C   UNL     1      -7.402 -14.941   3.539  0.00  0.00    +0.000 A 
ATOM      6  C   UNL     1      -7.367 -13.548   3.601  0.00  0.00    +0.000 A 
ATOM      7  H   UNL     1      -8.411 -13.081   6.784  0.00  0.00    +0.000 HD
ATOM      8  H   UNL     1      -7.814 -16.765   4.587  0.00  0.00    +0.000 HD
ATOM      9  H   UNL     1      -7.705 -11.809   4.826  0.00  0.00    +0.000 HD
ATOM     10  H   UNL     1      -7.121 -15.451   2.622  0.00  0.00    +0.000 HD
ATOM     11  H   UNL     1      -7.061 -12.973   2.732  0.00  0.00    +0.000 HD
ENDROOT
BRANCH   1  12
ATOM     12  C   UNL     1      -8.567 -15.796   6.996  0.00  0.00    +0.000 C 
ATOM     13  C   UNL     1      -8.300 -17.104   7.201  0.00  0.00    +0.000 C 
ATOM     14  H   UNL     1      -9.144 -15.251   7.739  0.00  0.00    +0.000 HD
ATOM     15  H   UNL     1      -7.754 -17.728   6.506  0.00  0.00    +0.000 HD
BRANCH  13  17
ATOM     16  O   UNL     1      -9.380 -18.834   8.401  0.00  0.00    +0.000 OA
ATOM     17  C   UNL     1      -8.792 -17.759   8.431  0.00  0.00    +0.000 C 
ATOM     18  H   UNL     1      -8.600 -17.228   9.377  0.00  0.00    +0.000 HD
ENDBRANCH  13  17
ENDBRANCH   1  12
TORSDOF 2
ENDMDL
MODEL 7
REMARK VINA RESULT:    -4.693     27.344     28.526
REMARK INTER + INTRA:          -5.361
REMARK INTER:                  -5.249
REMARK INTRA:                  -0.112
REMARK UNBOUND:                -0.119
REMARK  Name = 637511
REMARK  2 active torsions:
REMARK  status: ('A' for Active; 'I' for Inactive)
REMARK    1  A    between atoms: C_2  and  C_7
REMARK    2  A    between atoms: C_9  and  C_10
REMARK                            x       y       z     vdW  Elec       q    Type
REMARK                         _______ _______ _______ _____ _____    ______ ____
ROOT
ATOM      1  C   UNL     1      -9.433  10.998  17.240  0.00  0.00    +0.000 A 
ATOM      2  C   UNL     1      -9.744  12.317  17.570  0.00  0.00    +0.000 A 
ATOM      3  C   UNL     1     -10.328   9.974  17.547  0.00  0.00    +0.000 A 
ATOM      4  C   UNL     1     -10.949  12.612  18.207  0.00  0.00    +0.000 A 
ATOM      5  C   UNL     1     -11.534  10.268  18.183  0.00  0.00    +0.000 A 
ATOM      6  C   UNL     1     -11.845  11.587  18.513  0.00  0.00    +0.000 A 
ATOM      7  H   UNL     1      -9.069  13.144  17.368  0.00  0.00    +0.000 HD
ATOM      8  H   UNL     1     -10.105   8.939  17.295  0.00  0.00    +0.000 HD
ATOM      9  H   UNL     1     -11.190  13.638  18.469  0.00  0.00    +0.000 HD
ATOM     10  H   UNL     1     -12.231   9.470  18.421  0.00  0.00    +0.000 HD
ATOM     11  H   UNL     1     -12.784  11.815  19.009  0.00  0.00    +0.000 HD
ENDROOT
BRANCH   1  12
ATOM     12  C   UNL     1      -8.176  10.691  16.576  0.00  0.00    +0.000 C 
ATOM     13  C   UNL     1      -7.768  11.209  15.397  0.00  0.00    +0.000 C 
ATOM     14  H   UNL     1      -7.538   9.974  17.088  0.00  0.00    +0.000 HD
ATOM     15  H   UNL     1      -8.346  11.910  14.810  0.00  0.00    +0.000 HD
BRANCH  13  17
ATOM     16  O   UNL     1      -6.285   9.674  14.377  0.00  0.00    +0.000 OA
ATOM     17  C   UNL     1      -6.465  10.795  14.837  0.00  0.00    +0.000 C 
ATOM     18  H   UNL     1      -5.663  11.551  14.854  0.00  0.00    +0.000 HD
ENDBRANCH  13  17
ENDBRANCH   1  12
TORSDOF 2
ENDMDL
MODEL 8
REMARK VINA RESULT:    -4.683     29.181     30.154
REMARK INTER + INTRA:          -5.350
REMARK INTER:                  -5.227
REMARK INTRA:                  -0.123
REMARK UNBOUND:                -0.119
REMARK  Name = 637511
REMARK  2 active torsions:
REMARK  status: ('A' for Active; 'I' for Inactive)
REMARK    1  A    between atoms: C_2  and  C_7
REMARK    2  A    between atoms: C_9  and  C_10
REMARK                            x       y       z     vdW  Elec       q    Type
REMARK                         _______ _______ _______ _____ _____    ______ ____
ROOT
ATOM      1  C   UNL     1      14.804   5.218  -0.866  0.00  0.00    +0.000 A 
ATOM      2  C   UNL     1      13.465   5.260  -0.477  0.00  0.00    +0.000 A 
ATOM      3  C   UNL     1      15.591   4.116  -0.534  0.00  0.00    +0.000 A 
ATOM      4  C   UNL     1      12.913   4.200   0.243  0.00  0.00    +0.000 A 
ATOM      5  C   UNL     1      15.041   3.055   0.185  0.00  0.00    +0.000 A 
ATOM      6  C   UNL     1      13.702   3.097   0.573  0.00  0.00    +0.000 A 
ATOM      7  H   UNL     1      12.819   6.105  -0.696  0.00  0.00    +0.000 HD
ATOM      8  H   UNL     1      16.637   4.064  -0.830  0.00  0.00    +0.000 HD
ATOM      9  H   UNL     1      11.872   4.234   0.549  0.00  0.00    +0.000 HD
ATOM     10  H   UNL     1      15.654   2.197   0.442  0.00  0.00    +0.000 HD
ATOM     11  H   UNL     1      13.273   2.272   1.134  0.00  0.00    +0.000 HD
ENDROOT
BRANCH   1  12
ATOM     12  C   UNL     1      15.378   6.324  -1.617  0.00  0.00    +0.000 C 
ATOM     13  C   UNL     1      14.689   7.169  -2.413  0.00  0.00    +0.000 C 
ATOM     14  H   UNL     1      16.454   6.448  -1.518  0.00  0.00    +0.000 HD
ATOM     15  H   UNL     1      13.623   7.105  -2.588  0.00  0.00    +0.000 HD
BRANCH  13  17
ATOM     16  O   UNL     1      16.635   8.319  -3.112  0.00  0.00    +0.000 OA
ATOM     17  C   UNL     1      15.412   8.244  -3.124  0.00  0.00    +0.000 C 
ATOM     18  H   UNL     1      14.791   8.974  -3.668  0.00  0.00    +0.000 HD
ENDBRANCH  13  17
ENDBRANCH   1  12
TORSDOF 2
ENDMDL
MODEL 9
REMARK VINA RESULT:    -4.660      7.055      8.946
REMARK INTER + INTRA:          -5.325
REMARK INTER:                  -5.200
REMARK INTRA:                  -0.125
REMARK UNBOUND:                -0.119
REMARK  Name = 637511
REMARK  2 active torsions:
REMARK  status: ('A' for Active; 'I' for Inactive)
REMARK    1  A    between atoms: C_2  and  C_7
REMARK    2  A    between atoms: C_9  and  C_10
REMARK                            x       y       z     vdW  Elec       q    Type
REMARK                         _______ _______ _______ _____ _____    ______ ____
ROOT
ATOM      1  C   UNL     1      -1.742 -16.613  -0.752  0.00  0.00    +0.000 A 
ATOM      2  C   UNL     1      -1.354 -17.659  -1.589  0.00  0.00    +0.000 A 
ATOM      3  C   UNL     1      -2.516 -15.568  -1.257  0.00  0.00    +0.000 A 
ATOM      4  C   UNL     1      -1.738 -17.660  -2.930  0.00  0.00    +0.000 A 
ATOM      5  C   UNL     1      -2.902 -15.569  -2.597  0.00  0.00    +0.000 A 
ATOM      6  C   UNL     1      -2.514 -16.615  -3.433  0.00  0.00    +0.000 A 
ATOM      7  H   UNL     1      -0.736 -18.483  -1.245  0.00  0.00    +0.000 HD
ATOM      8  H   UNL     1      -2.831 -14.744  -0.619  0.00  0.00    +0.000 HD
ATOM      9  H   UNL     1      -1.433 -18.472  -3.583  0.00  0.00    +0.000 HD
ATOM     10  H   UNL     1      -3.505 -14.755  -2.989  0.00  0.00    +0.000 HD
ATOM     11  H   UNL     1      -2.813 -16.615  -4.477  0.00  0.00    +0.000 HD
ENDROOT
BRANCH   1  12
ATOM     12  C   UNL     1      -1.341 -16.612   0.646  0.00  0.00    +0.000 C 
ATOM     13  C   UNL     1      -1.549 -15.602   1.518  0.00  0.00    +0.000 C 
ATOM     14  H   UNL     1      -0.822 -17.505   0.985  0.00  0.00    +0.000 HD
ATOM     15  H   UNL     1      -2.035 -14.669   1.262  0.00  0.00    +0.000 HD
BRANCH  13  17
ATOM     16  O   UNL     1      -0.402 -16.696   3.274  0.00  0.00    +0.000 OA
ATOM     17  C   UNL     1      -1.075 -15.739   2.911  0.00  0.00    +0.000 C 
ATOM     18  H   UNL     1      -1.359 -14.933   3.606  0.00  0.00    +0.000 HD
ENDBRANCH  13  17
ENDBRANCH   1  12
TORSDOF 2
ENDMDL
MODEL 10
REMARK VINA RESULT:    -4.619     29.338     30.322
REMARK INTER + INTRA:          -5.279
REMARK INTER:                  -5.160
REMARK INTRA:                  -0.119
REMARK UNBOUND:                -0.119
REMARK  Name = 637511
REMARK  2 active torsions:
REMARK  status: ('A' for Active; 'I' for Inactive)
REMARK    1  A    between atoms: C_2  and  C_7
REMARK    2  A    between atoms: C_9  and  C_10
REMARK                            x       y       z     vdW  Elec       q    Type
REMARK                         _______ _______ _______ _____ _____    ______ ____
ROOT
ATOM      1  C   UNL     1      -2.501   5.725  25.713  0.00  0.00    +0.000 A 
ATOM      2  C   UNL     1      -1.499   6.451  26.356  0.00  0.00    +0.000 A 
ATOM      3  C   UNL     1      -2.545   5.680  24.320  0.00  0.00    +0.000 A 
ATOM      4  C   UNL     1      -0.540   7.132  25.606  0.00  0.00    +0.000 A 
ATOM      5  C   UNL     1      -1.587   6.360  23.569  0.00  0.00    +0.000 A 
ATOM      6  C   UNL     1      -0.584   7.086  24.212  0.00  0.00    +0.000 A 
ATOM      7  H   UNL     1      -1.436   6.530  27.437  0.00  0.00    +0.000 HD
ATOM      8  H   UNL     1      -3.318   5.117  23.801  0.00  0.00    +0.000 HD
ATOM      9  H   UNL     1       0.238   7.701  26.105  0.00  0.00    +0.000 HD
ATOM     10  H   UNL     1      -1.621   6.325  22.484  0.00  0.00    +0.000 HD
ATOM     11  H   UNL     1       0.162   7.617  23.627  0.00  0.00    +0.000 HD
ENDROOT
BRANCH   1  12
ATOM     12  C   UNL     1      -3.501   5.014  26.496  0.00  0.00    +0.000 C 
ATOM     13  C   UNL     1      -4.817   4.944  26.204  0.00  0.00    +0.000 C 
ATOM     14  H   UNL     1      -3.130   4.519  27.391  0.00  0.00    +0.000 HD
ATOM     15  H   UNL     1      -5.276   5.425  25.350  0.00  0.00    +0.000 HD
BRANCH  13  17
ATOM     16  O   UNL     1      -5.294   3.356  27.892  0.00  0.00    +0.000 OA
ATOM     17  C   UNL     1      -5.718   4.191  27.101  0.00  0.00    +0.000 C 
ATOM     18  H   UNL     1      -6.792   4.421  27.021  0.00  0.00    +0.000 HD
ENDBRANCH  13  17
ENDBRANCH   1  12
TORSDOF 2
ENDMDL
