MODEL 1
REMARK VINA RESULT:    -5.118      0.000      0.000
REMARK INTER + INTRA:          -6.979
REMARK INTER:                  -6.460
REMARK INTRA:                  -0.520
REMARK UNBOUND:                -0.216
REMARK  Name = 638011
REMARK  7 active torsions:
REMARK  status: ('A' for Active; 'I' for Inactive)
REMARK    1  A    between atoms: C_2  and  C_3
REMARK    2  A    between atoms: C_2  and  C_4
REMARK    3  A    between atoms: C_3  and  C_5
REMARK    4  A    between atoms: C_4  and  C_7
REMARK    5  A    between atoms: C_6  and  C_9
REMARK    6  A    between atoms: C_6  and  C_10
REMARK    7  A    between atoms: C_8  and  C_11
REMARK                            x       y       z     vdW  Elec       q    Type
REMARK                         _______ _______ _______ _____ _____    ______ ____
ROOT
ATOM      1  C   UNL     1      -7.470 -13.431   6.248  0.00  0.00    +0.000 C 
ATOM      2  H   UNL     1      -6.389 -13.570   6.160  0.00  0.00    +0.000 HD
ATOM      3  H   UNL     1      -7.609 -12.610   6.963  0.00  0.00    +0.000 HD
ENDROOT
BRANCH   1   4
ATOM      4  C   UNL     1      -8.041 -12.988   4.893  0.00  0.00    +0.000 C 
ATOM      5  H   UNL     1      -8.273 -11.917   4.933  0.00  0.00    +0.000 HD
ATOM      6  H   UNL     1      -8.997 -13.499   4.724  0.00  0.00    +0.000 HD
BRANCH   4   7
ATOM      7  C   UNL     1      -7.111 -13.248   3.724  0.00  0.00    +0.000 C 
ATOM      8  C   UNL     1      -7.423 -13.925   2.605  0.00  0.00    +0.000 C 
ATOM      9  H   UNL     1      -8.430 -14.310   2.473  0.00  0.00    +0.000 HD
BRANCH   7  10
ATOM     10  C   UNL     1      -5.736 -12.642   3.863  0.00  0.00    +0.000 C 
ATOM     11  H   UNL     1      -5.596 -12.095   4.800  0.00  0.00    +0.000 HD
ATOM     12  H   UNL     1      -5.526 -11.971   3.026  0.00  0.00    +0.000 HD
ATOM     13  H   UNL     1      -4.973 -13.428   3.868  0.00  0.00    +0.000 HD
ENDBRANCH   7  10
BRANCH   8  15
ATOM     14  O   UNL     1      -6.728 -13.632   0.364  0.00  0.00    +0.000 OA
ATOM     15  C   UNL     1      -6.512 -14.137   1.460  0.00  0.00    +0.000 C 
ATOM     16  H   UNL     1      -5.616 -14.750   1.649  0.00  0.00    +0.000 HD
ENDBRANCH   8  15
ENDBRANCH   4   7
ENDBRANCH   1   4
BRANCH   1  17
ATOM     17  C   UNL     1      -8.167 -14.644   6.802  0.00  0.00    +0.000 C 
ATOM     18  C   UNL     1      -7.759 -15.926   6.765  0.00  0.00    +0.000 C 
ATOM     19  H   UNL     1      -9.105 -14.422   7.311  0.00  0.00    +0.000 HD
BRANCH  18  20
ATOM     20  C   UNL     1      -8.598 -17.009   7.389  0.00  0.00    +0.000 C 
ATOM     21  H   UNL     1      -9.310 -17.405   6.658  0.00  0.00    +0.000 HD
ATOM     22  H   UNL     1      -9.160 -16.610   8.240  0.00  0.00    +0.000 HD
ATOM     23  H   UNL     1      -7.995 -17.847   7.755  0.00  0.00    +0.000 HD
ENDBRANCH  18  20
BRANCH  18  24
ATOM     24  C   UNL     1      -6.494 -16.417   6.119  0.00  0.00    +0.000 C 
ATOM     25  H   UNL     1      -5.698 -16.495   6.867  0.00  0.00    +0.000 HD
ATOM     26  H   UNL     1      -6.125 -15.774   5.319  0.00  0.00    +0.000 HD
ATOM     27  H   UNL     1      -6.658 -17.412   5.688  0.00  0.00    +0.000 HD
ENDBRANCH  18  24
ENDBRANCH   1  17
TORSDOF 7
ENDMDL
MODEL 2
REMARK VINA RESULT:    -4.884     24.913     26.908
REMARK INTER + INTRA:          -6.670
REMARK INTER:                  -6.126
REMARK INTRA:                  -0.543
REMARK UNBOUND:                -0.216
REMARK  Name = 638011
REMARK  7 active torsions:
REMARK  status: ('A' for Active; 'I' for Inactive)
REMARK    1  A    between atoms: C_2  and  C_3
REMARK    2  A    between atoms: C_2  and  C_4
REMARK    3  A    between atoms: C_3  and  C_5
REMARK    4  A    between atoms: C_4  and  C_7
REMARK    5  A    between atoms: C_6  and  C_9
REMARK    6  A    between atoms: C_6  and  C_10
REMARK    7  A    between atoms: C_8  and  C_11
REMARK                            x       y       z     vdW  Elec       q    Type
REMARK                         _______ _______ _______ _____ _____    ______ ____
ROOT
ATOM      1  C   UNL     1      15.455  -6.354  -2.401  0.00  0.00    +0.000 C 
ATOM      2  H   UNL     1      14.587  -6.538  -3.039  0.00  0.00    +0.000 HD
ATOM      3  H   UNL     1      16.244  -7.023  -2.768  0.00  0.00    +0.000 HD
ENDROOT
BRANCH   1   4
ATOM      4  C   UNL     1      15.930  -4.906  -2.590  0.00  0.00    +0.000 C 
ATOM      5  H   UNL     1      15.897  -4.387  -1.625  0.00  0.00    +0.000 HD
ATOM      6  H   UNL     1      15.221  -4.379  -3.241  0.00  0.00    +0.000 HD
BRANCH   4   7
ATOM      7  C   UNL     1      17.328  -4.792  -3.164  0.00  0.00    +0.000 C 
ATOM      8  C   UNL     1      18.225  -3.833  -2.870  0.00  0.00    +0.000 C 
ATOM      9  H   UNL     1      17.975  -3.071  -2.137  0.00  0.00    +0.000 HD
BRANCH   7  10
ATOM     10  C   UNL     1      17.712  -5.895  -4.118  0.00  0.00    +0.000 C 
ATOM     11  H   UNL     1      18.792  -5.977  -4.276  0.00  0.00    +0.000 HD
ATOM     12  H   UNL     1      17.223  -5.754  -5.086  0.00  0.00    +0.000 HD
ATOM     13  H   UNL     1      17.402  -6.868  -3.720  0.00  0.00    +0.000 HD
ENDBRANCH   7  10
BRANCH   8  15
ATOM     14  O   UNL     1      20.578  -3.702  -2.680  0.00  0.00    +0.000 OA
ATOM     15  C   UNL     1      19.598  -3.760  -3.413  0.00  0.00    +0.000 C 
ATOM     16  H   UNL     1      19.696  -3.785  -4.511  0.00  0.00    +0.000 HD
ENDBRANCH   8  15
ENDBRANCH   4   7
ENDBRANCH   1   4
BRANCH   1  17
ATOM     17  C   UNL     1      15.199  -6.697  -0.959  0.00  0.00    +0.000 C 
ATOM     18  C   UNL     1      16.096  -7.031  -0.013  0.00  0.00    +0.000 C 
ATOM     19  H   UNL     1      14.151  -6.636  -0.668  0.00  0.00    +0.000 HD
BRANCH  18  20
ATOM     20  C   UNL     1      15.644  -7.333   1.391  0.00  0.00    +0.000 C 
ATOM     21  H   UNL     1      15.037  -6.508   1.779  0.00  0.00    +0.000 HD
ATOM     22  H   UNL     1      16.510  -7.467   2.048  0.00  0.00    +0.000 HD
ATOM     23  H   UNL     1      15.040  -8.245   1.449  0.00  0.00    +0.000 HD
ENDBRANCH  18  20
BRANCH  18  24
ATOM     24  C   UNL     1      17.579  -7.156  -0.226  0.00  0.00    +0.000 C 
ATOM     25  H   UNL     1      17.831  -8.185  -0.502  0.00  0.00    +0.000 HD
ATOM     26  H   UNL     1      18.177  -6.901   0.650  0.00  0.00    +0.000 HD
ATOM     27  H   UNL     1      17.896  -6.495  -1.040  0.00  0.00    +0.000 HD
ENDBRANCH  18  24
ENDBRANCH   1  17
TORSDOF 7
ENDMDL
MODEL 3
REMARK VINA RESULT:    -4.549      2.755      5.036
REMARK INTER + INTRA:          -6.227
REMARK INTER:                  -5.767
REMARK INTRA:                  -0.460
REMARK UNBOUND:                -0.216
REMARK  Name = 638011
REMARK  7 active torsions:
REMARK  status: ('A' for Active; 'I' for Inactive)
REMARK    1  A    between atoms: C_2  and  C_3
REMARK    2  A    between atoms: C_2  and  C_4
REMARK    3  A    between atoms: C_3  and  C_5
REMARK    4  A    between atoms: C_4  and  C_7
REMARK    5  A    between atoms: C_6  and  C_9
REMARK    6  A    between atoms: C_6  and  C_10
REMARK    7  A    between atoms: C_8  and  C_11
REMARK                            x       y       z     vdW  Elec       q    Type
REMARK                         _______ _______ _______ _____ _____    ______ ____
ROOT
ATOM      1  C   UNL     1      -7.011 -13.003   4.275  0.00  0.00    +0.000 C 
ATOM      2  H   UNL     1      -6.802 -11.934   4.358  0.00  0.00    +0.000 HD
ATOM      3  H   UNL     1      -6.074 -13.513   4.534  0.00  0.00    +0.000 HD
ENDROOT
BRANCH   1   4
ATOM      4  C   UNL     1      -8.073 -13.399   5.310  0.00  0.00    +0.000 C 
ATOM      5  H   UNL     1      -9.070 -13.271   4.871  0.00  0.00    +0.000 HD
ATOM      6  H   UNL     1      -8.025 -12.702   6.157  0.00  0.00    +0.000 HD
BRANCH   4   7
ATOM      7  C   UNL     1      -7.935 -14.822   5.814  0.00  0.00    +0.000 C 
ATOM      8  C   UNL     1      -8.940 -15.607   6.243  0.00  0.00    +0.000 C 
ATOM      9  H   UNL     1      -9.960 -15.237   6.213  0.00  0.00    +0.000 HD
BRANCH   7  10
ATOM     10  C   UNL     1      -6.531 -15.371   5.778  0.00  0.00    +0.000 C 
ATOM     11  H   UNL     1      -6.483 -16.422   5.476  0.00  0.00    +0.000 HD
ATOM     12  H   UNL     1      -6.051 -15.262   6.755  0.00  0.00    +0.000 HD
ATOM     13  H   UNL     1      -5.928 -14.829   5.042  0.00  0.00    +0.000 HD
ENDBRANCH   7  10
BRANCH   8  15
ATOM     14  O   UNL     1      -8.738 -17.295   7.886  0.00  0.00    +0.000 OA
ATOM     15  C   UNL     1      -8.789 -17.006   6.697  0.00  0.00    +0.000 C 
ATOM     16  H   UNL     1      -8.750 -17.778   5.911  0.00  0.00    +0.000 HD
ENDBRANCH   8  15
ENDBRANCH   4   7
ENDBRANCH   1   4
BRANCH   1  17
ATOM     17  C   UNL     1      -7.383 -13.414   2.876  0.00  0.00    +0.000 C 
ATOM     18  C   UNL     1      -6.616 -14.036   1.961  0.00  0.00    +0.000 C 
ATOM     19  H   UNL     1      -8.414 -13.187   2.607  0.00  0.00    +0.000 HD
BRANCH  18  20
ATOM     20  C   UNL     1      -7.175 -14.376   0.606  0.00  0.00    +0.000 C 
ATOM     21  H   UNL     1      -7.667 -13.501   0.169  0.00  0.00    +0.000 HD
ATOM     22  H   UNL     1      -7.911 -15.182   0.691  0.00  0.00    +0.000 HD
ATOM     23  H   UNL     1      -6.401 -14.707  -0.096  0.00  0.00    +0.000 HD
ENDBRANCH  18  20
BRANCH  18  24
ATOM     24  C   UNL     1      -5.180 -14.433   2.156  0.00  0.00    +0.000 C 
ATOM     25  H   UNL     1      -5.122 -15.473   2.493  0.00  0.00    +0.000 HD
ATOM     26  H   UNL     1      -4.646 -13.826   2.889  0.00  0.00    +0.000 HD
ATOM     27  H   UNL     1      -4.637 -14.349   1.208  0.00  0.00    +0.000 HD
ENDBRANCH  18  24
ENDBRANCH   1  17
TORSDOF 7
ENDMDL
MODEL 4
REMARK VINA RESULT:    -4.530      1.365      2.202
REMARK INTER + INTRA:          -6.203
REMARK INTER:                  -5.815
REMARK INTRA:                  -0.388
REMARK UNBOUND:                -0.216
REMARK  Name = 638011
REMARK  7 active torsions:
REMARK  status: ('A' for Active; 'I' for Inactive)
REMARK    1  A    between atoms: C_2  and  C_3
REMARK    2  A    between atoms: C_2  and  C_4
REMARK    3  A    between atoms: C_3  and  C_5
REMARK    4  A    between atoms: C_4  and  C_7
REMARK    5  A    between atoms: C_6  and  C_9
REMARK    6  A    between atoms: C_6  and  C_10
REMARK    7  A    between atoms: C_8  and  C_11
REMARK                            x       y       z     vdW  Elec       q    Type
REMARK                         _______ _______ _______ _____ _____    ______ ____
ROOT
ATOM      1  C   UNL     1      -5.541 -13.985   4.796  0.00  0.00    +0.000 C 
ATOM      2  H   UNL     1      -4.631 -14.534   4.537  0.00  0.00    +0.000 HD
ATOM      3  H   UNL     1      -5.288 -13.385   5.679  0.00  0.00    +0.000 HD
ENDROOT
BRANCH   1   4
ATOM      4  C   UNL     1      -5.901 -13.025   3.653  0.00  0.00    +0.000 C 
ATOM      5  H   UNL     1      -5.135 -12.243   3.585  0.00  0.00    +0.000 HD
ATOM      6  H   UNL     1      -6.838 -12.510   3.900  0.00  0.00    +0.000 HD
BRANCH   4   7
ATOM      7  C   UNL     1      -6.034 -13.704   2.304  0.00  0.00    +0.000 C 
ATOM      8  C   UNL     1      -7.051 -13.544   1.438  0.00  0.00    +0.000 C 
ATOM      9  H   UNL     1      -7.854 -12.851   1.675  0.00  0.00    +0.000 HD
BRANCH   7  10
ATOM     10  C   UNL     1      -4.881 -14.602   1.932  0.00  0.00    +0.000 C 
ATOM     11  H   UNL     1      -5.036 -15.648   2.217  0.00  0.00    +0.000 HD
ATOM     12  H   UNL     1      -3.953 -14.244   2.388  0.00  0.00    +0.000 HD
ATOM     13  H   UNL     1      -4.743 -14.614   0.845  0.00  0.00    +0.000 HD
ENDBRANCH   7  10
BRANCH   8  15
ATOM     14  O   UNL     1      -7.546 -15.338  -0.020  0.00  0.00    +0.000 OA
ATOM     15  C   UNL     1      -7.145 -14.188   0.111  0.00  0.00    +0.000 C 
ATOM     16  H   UNL     1      -6.859 -13.572  -0.757  0.00  0.00    +0.000 HD
ENDBRANCH   8  15
ENDBRANCH   4   7
ENDBRANCH   1   4
BRANCH   1  17
ATOM     17  C   UNL     1      -6.679 -14.894   5.170  0.00  0.00    +0.000 C 
ATOM     18  C   UNL     1      -7.694 -14.648   6.020  0.00  0.00    +0.000 C 
ATOM     19  H   UNL     1      -6.667 -15.856   4.658  0.00  0.00    +0.000 HD
BRANCH  18  20
ATOM     20  C   UNL     1      -8.754 -15.689   6.260  0.00  0.00    +0.000 C 
ATOM     21  H   UNL     1      -8.584 -16.558   5.615  0.00  0.00    +0.000 HD
ATOM     22  H   UNL     1      -9.745 -15.280   6.037  0.00  0.00    +0.000 HD
ATOM     23  H   UNL     1      -8.767 -16.043   7.297  0.00  0.00    +0.000 HD
ENDBRANCH  18  20
BRANCH  18  24
ATOM     24  C   UNL     1      -7.881 -13.381   6.807  0.00  0.00    +0.000 C 
ATOM     25  H   UNL     1      -7.715 -13.575   7.871  0.00  0.00    +0.000 HD
ATOM     26  H   UNL     1      -8.874 -12.941   6.710  0.00  0.00    +0.000 HD
ATOM     27  H   UNL     1      -7.157 -12.627   6.478  0.00  0.00    +0.000 HD
ENDBRANCH  18  24
ENDBRANCH   1  17
TORSDOF 7
ENDMDL
MODEL 5
REMARK VINA RESULT:    -4.486      7.498      8.792
REMARK INTER + INTRA:          -6.144
REMARK INTER:                  -5.602
REMARK INTRA:                  -0.542
REMARK UNBOUND:                -0.216
REMARK  Name = 638011
REMARK  7 active torsions:
REMARK  status: ('A' for Active; 'I' for Inactive)
REMARK    1  A    between atoms: C_2  and  C_3
REMARK    2  A    between atoms: C_2  and  C_4
REMARK    3  A    between atoms: C_3  and  C_5
REMARK    4  A    between atoms: C_4  and  C_7
REMARK    5  A    between atoms: C_6  and  C_9
REMARK    6  A    between atoms: C_6  and  C_10
REMARK    7  A    between atoms: C_8  and  C_11
REMARK                            x       y       z     vdW  Elec       q    Type
REMARK                         _______ _______ _______ _____ _____    ______ ____
ROOT
ATOM      1  C   UNL     1     -16.073 -16.356   2.410  0.00  0.00    +0.000 C 
ATOM      2  H   UNL     1     -15.775 -17.360   2.724  0.00  0.00    +0.000 HD
ATOM      3  H   UNL     1     -17.146 -16.419   2.186  0.00  0.00    +0.000 HD
ENDROOT
BRANCH   1   4
ATOM      4  C   UNL     1     -15.886 -15.378   3.579  0.00  0.00    +0.000 C 
ATOM      5  H   UNL     1     -16.778 -15.403   4.217  0.00  0.00    +0.000 HD
ATOM      6  H   UNL     1     -15.824 -14.356   3.184  0.00  0.00    +0.000 HD
BRANCH   4   7
ATOM      7  C   UNL     1     -14.665 -15.669   4.429  0.00  0.00    +0.000 C 
ATOM      8  C   UNL     1     -14.098 -16.876   4.608  0.00  0.00    +0.000 C 
ATOM      9  H   UNL     1     -14.502 -17.741   4.090  0.00  0.00    +0.000 HD
BRANCH   7  10
ATOM     10  C   UNL     1     -14.048 -14.458   5.084  0.00  0.00    +0.000 C 
ATOM     11  H   UNL     1     -13.843 -13.643   4.383  0.00  0.00    +0.000 HD
ATOM     12  H   UNL     1     -13.118 -14.729   5.593  0.00  0.00    +0.000 HD
ATOM     13  H   UNL     1     -14.732 -14.038   5.829  0.00  0.00    +0.000 HD
ENDBRANCH   7  10
BRANCH   8  15
ATOM     14  O   UNL     1     -12.852 -18.014   6.264  0.00  0.00    +0.000 OA
ATOM     15  C   UNL     1     -12.885 -17.133   5.413  0.00  0.00    +0.000 C 
ATOM     16  H   UNL     1     -12.005 -16.508   5.192  0.00  0.00    +0.000 HD
ENDBRANCH   8  15
ENDBRANCH   4   7
ENDBRANCH   1   4
BRANCH   1  17
ATOM     17  C   UNL     1     -15.369 -15.907   1.159  0.00  0.00    +0.000 C 
ATOM     18  C   UNL     1     -14.258 -16.422   0.601  0.00  0.00    +0.000 C 
ATOM     19  H   UNL     1     -15.854 -15.073   0.653  0.00  0.00    +0.000 HD
BRANCH  18  20
ATOM     20  C   UNL     1     -13.704 -15.835  -0.670  0.00  0.00    +0.000 C 
ATOM     21  H   UNL     1     -12.885 -15.145  -0.443  0.00  0.00    +0.000 HD
ATOM     22  H   UNL     1     -14.485 -15.284  -1.204  0.00  0.00    +0.000 HD
ATOM     23  H   UNL     1     -13.315 -16.601  -1.350  0.00  0.00    +0.000 HD
ENDBRANCH  18  20
BRANCH  18  24
ATOM     24  C   UNL     1     -13.462 -17.572   1.150  0.00  0.00    +0.000 C 
ATOM     25  H   UNL     1     -12.961 -17.272   2.076  0.00  0.00    +0.000 HD
ATOM     26  H   UNL     1     -12.692 -17.944   0.472  0.00  0.00    +0.000 HD
ATOM     27  H   UNL     1     -14.128 -18.412   1.377  0.00  0.00    +0.000 HD
ENDBRANCH  18  24
ENDBRANCH   1  17
TORSDOF 7
ENDMDL
MODEL 6
REMARK VINA RESULT:    -4.462      1.961      2.258
REMARK INTER + INTRA:          -6.113
REMARK INTER:                  -5.591
REMARK INTRA:                  -0.522
REMARK UNBOUND:                -0.216
REMARK  Name = 638011
REMARK  7 active torsions:
REMARK  status: ('A' for Active; 'I' for Inactive)
REMARK    1  A    between atoms: C_2  and  C_3
REMARK    2  A    between atoms: C_2  and  C_4
REMARK    3  A    between atoms: C_3  and  C_5
REMARK    4  A    between atoms: C_4  and  C_7
REMARK    5  A    between atoms: C_6  and  C_9
REMARK    6  A    between atoms: C_6  and  C_10
REMARK    7  A    between atoms: C_8  and  C_11
REMARK                            x       y       z     vdW  Elec       q    Type
REMARK                         _______ _______ _______ _____ _____    ______ ____
ROOT
ATOM      1  C   UNL     1      -8.325 -13.658   5.779  0.00  0.00    +0.000 C 
ATOM      2  H   UNL     1      -8.870 -12.836   6.250  0.00  0.00    +0.000 HD
ATOM      3  H   UNL     1      -8.948 -13.987   4.937  0.00  0.00    +0.000 HD
ENDROOT
BRANCH   1   4
ATOM      4  C   UNL     1      -6.997 -13.133   5.214  0.00  0.00    +0.000 C 
ATOM      5  H   UNL     1      -6.249 -13.109   6.016  0.00  0.00    +0.000 HD
ATOM      6  H   UNL     1      -7.131 -12.092   4.894  0.00  0.00    +0.000 HD
BRANCH   4   7
ATOM      7  C   UNL     1      -6.457 -13.954   4.060  0.00  0.00    +0.000 C 
ATOM      8  C   UNL     1      -5.304 -14.646   4.056  0.00  0.00    +0.000 C 
ATOM      9  H   UNL     1      -4.690 -14.670   4.952  0.00  0.00    +0.000 HD
BRANCH   7  10
ATOM     10  C   UNL     1      -7.346 -13.994   2.842  0.00  0.00    +0.000 C 
ATOM     11  H   UNL     1      -8.148 -14.735   2.914  0.00  0.00    +0.000 HD
ATOM     12  H   UNL     1      -6.757 -14.196   1.943  0.00  0.00    +0.000 HD
ATOM     13  H   UNL     1      -7.851 -13.031   2.707  0.00  0.00    +0.000 HD
ENDBRANCH   7  10
BRANCH   8  15
ATOM     14  O   UNL     1      -4.330 -16.583   3.112  0.00  0.00    +0.000 OA
ATOM     15  C   UNL     1      -4.812 -15.471   2.932  0.00  0.00    +0.000 C 
ATOM     16  H   UNL     1      -4.923 -15.045   1.922  0.00  0.00    +0.000 HD
ENDBRANCH   8  15
ENDBRANCH   4   7
ENDBRANCH   1   4
BRANCH   1  17
ATOM     17  C   UNL     1      -8.139 -14.833   6.699  0.00  0.00    +0.000 C 
ATOM     18  C   UNL     1      -8.691 -16.058   6.604  0.00  0.00    +0.000 C 
ATOM     19  H   UNL     1      -7.450 -14.648   7.522  0.00  0.00    +0.000 HD
BRANCH  18  20
ATOM     20  C   UNL     1      -8.374 -17.115   7.627  0.00  0.00    +0.000 C 
ATOM     21  H   UNL     1      -8.453 -16.701   8.637  0.00  0.00    +0.000 HD
ATOM     22  H   UNL     1      -7.354 -17.487   7.483  0.00  0.00    +0.000 HD
ATOM     23  H   UNL     1      -9.051 -17.974   7.566  0.00  0.00    +0.000 HD
ENDBRANCH  18  20
BRANCH  18  24
ATOM     24  C   UNL     1      -9.653 -16.497   5.537  0.00  0.00    +0.000 C 
ATOM     25  H   UNL     1      -9.670 -15.764   4.724  0.00  0.00    +0.000 HD
ATOM     26  H   UNL     1     -10.680 -16.616   5.885  0.00  0.00    +0.000 HD
ATOM     27  H   UNL     1      -9.337 -17.461   5.123  0.00  0.00    +0.000 HD
ENDBRANCH  18  24
ENDBRANCH   1  17
TORSDOF 7
ENDMDL
MODEL 7
REMARK VINA RESULT:    -4.434      1.642      2.976
REMARK INTER + INTRA:          -6.076
REMARK INTER:                  -5.750
REMARK INTRA:                  -0.326
REMARK UNBOUND:                -0.216
REMARK  Name = 638011
REMARK  7 active torsions:
REMARK  status: ('A' for Active; 'I' for Inactive)
REMARK    1  A    between atoms: C_2  and  C_3
REMARK    2  A    between atoms: C_2  and  C_4
REMARK    3  A    between atoms: C_3  and  C_5
REMARK    4  A    between atoms: C_4  and  C_7
REMARK    5  A    between atoms: C_6  and  C_9
REMARK    6  A    between atoms: C_6  and  C_10
REMARK    7  A    between atoms: C_8  and  C_11
REMARK                            x       y       z     vdW  Elec       q    Type
REMARK                         _______ _______ _______ _____ _____    ______ ____
ROOT
ATOM      1  C   UNL     1      -6.434 -13.122   3.361  0.00  0.00    +0.000 C 
ATOM      2  H   UNL     1      -5.560 -13.777   3.376  0.00  0.00    +0.000 HD
ATOM      3  H   UNL     1      -6.069 -12.143   3.026  0.00  0.00    +0.000 HD
ENDROOT
BRANCH   1   4
ATOM      4  C   UNL     1      -7.441 -13.637   2.322  0.00  0.00    +0.000 C 
ATOM      5  H   UNL     1      -8.122 -12.823   2.046  0.00  0.00    +0.000 HD
ATOM      6  H   UNL     1      -8.067 -14.411   2.784  0.00  0.00    +0.000 HD
BRANCH   4   7
ATOM      7  C   UNL     1      -6.795 -14.188   1.066  0.00  0.00    +0.000 C 
ATOM      8  C   UNL     1      -6.018 -15.283   0.995  0.00  0.00    +0.000 C 
ATOM      9  H   UNL     1      -5.836 -15.871   1.889  0.00  0.00    +0.000 HD
BRANCH   7  10
ATOM     10  C   UNL     1      -7.113 -13.423  -0.195  0.00  0.00    +0.000 C 
ATOM     11  H   UNL     1      -6.476 -12.546  -0.343  0.00  0.00    +0.000 HD
ATOM     12  H   UNL     1      -8.160 -13.105  -0.197  0.00  0.00    +0.000 HD
ATOM     13  H   UNL     1      -6.948 -14.055  -1.075  0.00  0.00    +0.000 HD
ENDBRANCH   7  10
BRANCH   8  15
ATOM     14  O   UNL     1      -4.237 -15.685  -0.508  0.00  0.00    +0.000 OA
ATOM     15  C   UNL     1      -5.427 -15.824  -0.247  0.00  0.00    +0.000 C 
ATOM     16  H   UNL     1      -6.105 -16.381  -0.914  0.00  0.00    +0.000 HD
ENDBRANCH   8  15
ENDBRANCH   4   7
ENDBRANCH   1   4
BRANCH   1  17
ATOM     17  C   UNL     1      -7.047 -12.940   4.722  0.00  0.00    +0.000 C 
ATOM     18  C   UNL     1      -7.227 -13.866   5.683  0.00  0.00    +0.000 C 
ATOM     19  H   UNL     1      -7.353 -11.916   4.938  0.00  0.00    +0.000 HD
BRANCH  18  20
ATOM     20  C   UNL     1      -7.856 -13.486   6.996  0.00  0.00    +0.000 C 
ATOM     21  H   UNL     1      -7.422 -12.551   7.367  0.00  0.00    +0.000 HD
ATOM     22  H   UNL     1      -7.681 -14.269   7.741  0.00  0.00    +0.000 HD
ATOM     23  H   UNL     1      -8.939 -13.341   6.916  0.00  0.00    +0.000 HD
ENDBRANCH  18  20
BRANCH  18  24
ATOM     24  C   UNL     1      -6.860 -15.318   5.569  0.00  0.00    +0.000 C 
ATOM     25  H   UNL     1      -7.277 -15.876   6.414  0.00  0.00    +0.000 HD
ATOM     26  H   UNL     1      -5.785 -15.506   5.557  0.00  0.00    +0.000 HD
ATOM     27  H   UNL     1      -7.274 -15.737   4.645  0.00  0.00    +0.000 HD
ENDBRANCH  18  24
ENDBRANCH   1  17
TORSDOF 7
ENDMDL
MODEL 8
REMARK VINA RESULT:    -4.432     40.882     42.103
REMARK INTER + INTRA:          -6.072
REMARK INTER:                  -5.617
REMARK INTRA:                  -0.455
REMARK UNBOUND:                -0.216
REMARK  Name = 638011
REMARK  7 active torsions:
REMARK  status: ('A' for Active; 'I' for Inactive)
REMARK    1  A    between atoms: C_2  and  C_3
REMARK    2  A    between atoms: C_2  and  C_4
REMARK    3  A    between atoms: C_3  and  C_5
REMARK    4  A    between atoms: C_4  and  C_7
REMARK    5  A    between atoms: C_6  and  C_9
REMARK    6  A    between atoms: C_6  and  C_10
REMARK    7  A    between atoms: C_8  and  C_11
REMARK                            x       y       z     vdW  Elec       q    Type
REMARK                         _______ _______ _______ _____ _____    ______ ____
ROOT
ATOM      1  C   UNL     1      12.908  17.457 -10.821  0.00  0.00    +0.000 C 
ATOM      2  H   UNL     1      13.008  18.152  -9.983  0.00  0.00    +0.000 HD
ATOM      3  H   UNL     1      12.603  16.499 -10.382  0.00  0.00    +0.000 HD
ENDROOT
BRANCH   1   4
ATOM      4  C   UNL     1      11.784  17.936 -11.751  0.00  0.00    +0.000 C 
ATOM      5  H   UNL     1      11.010  17.161 -11.810  0.00  0.00    +0.000 HD
ATOM      6  H   UNL     1      12.183  18.044 -12.768  0.00  0.00    +0.000 HD
BRANCH   4   7
ATOM      7  C   UNL     1      11.145  19.240 -11.316  0.00  0.00    +0.000 C 
ATOM      8  C   UNL     1      11.056  19.690 -10.052  0.00  0.00    +0.000 C 
ATOM      9  H   UNL     1      11.497  19.113  -9.244  0.00  0.00    +0.000 HD
BRANCH   7  10
ATOM     10  C   UNL     1      10.605  20.086 -12.442  0.00  0.00    +0.000 C 
ATOM     11  H   UNL     1      11.388  20.551 -13.049  0.00  0.00    +0.000 HD
ATOM     12  H   UNL     1       9.948  20.869 -12.052  0.00  0.00    +0.000 HD
ATOM     13  H   UNL     1      10.024  19.470 -13.137  0.00  0.00    +0.000 HD
ENDBRANCH   7  10
BRANCH   8  15
ATOM     14  O   UNL     1       9.298  21.065  -9.272  0.00  0.00    +0.000 OA
ATOM     15  C   UNL     1      10.460  20.983  -9.651  0.00  0.00    +0.000 C 
ATOM     16  H   UNL     1      11.122  21.863  -9.687  0.00  0.00    +0.000 HD
ENDBRANCH   8  15
ENDBRANCH   4   7
ENDBRANCH   1   4
BRANCH   1  17
ATOM     17  C   UNL     1      14.207  17.235 -11.548  0.00  0.00    +0.000 C 
ATOM     18  C   UNL     1      15.248  18.081 -11.665  0.00  0.00    +0.000 C 
ATOM     19  H   UNL     1      14.296  16.251 -12.006  0.00  0.00    +0.000 HD
BRANCH  18  20
ATOM     20  C   UNL     1      16.477  17.670 -12.432  0.00  0.00    +0.000 C 
ATOM     21  H   UNL     1      16.371  16.643 -12.795  0.00  0.00    +0.000 HD
ATOM     22  H   UNL     1      17.360  17.721 -11.787  0.00  0.00    +0.000 HD
ATOM     23  H   UNL     1      16.663  18.312 -13.300  0.00  0.00    +0.000 HD
ENDBRANCH  18  20
BRANCH  18  24
ATOM     24  C   UNL     1      15.308  19.470 -11.095  0.00  0.00    +0.000 C 
ATOM     25  H   UNL     1      14.489  19.618 -10.385  0.00  0.00    +0.000 HD
ATOM     26  H   UNL     1      15.234  20.261 -11.843  0.00  0.00    +0.000 HD
ATOM     27  H   UNL     1      16.255  19.613 -10.562  0.00  0.00    +0.000 HD
ENDBRANCH  18  24
ENDBRANCH   1  17
TORSDOF 7
ENDMDL
MODEL 9
REMARK VINA RESULT:    -4.371     32.417     33.877
REMARK INTER + INTRA:          -5.992
REMARK INTER:                  -5.442
REMARK INTRA:                  -0.550
REMARK UNBOUND:                -0.216
REMARK  Name = 638011
REMARK  7 active torsions:
REMARK  status: ('A' for Active; 'I' for Inactive)
REMARK    1  A    between atoms: C_2  and  C_3
REMARK    2  A    between atoms: C_2  and  C_4
REMARK    3  A    between atoms: C_3  and  C_5
REMARK    4  A    between atoms: C_4  and  C_7
REMARK    5  A    between atoms: C_6  and  C_9
REMARK    6  A    between atoms: C_6  and  C_10
REMARK    7  A    between atoms: C_8  and  C_11
REMARK                            x       y       z     vdW  Elec       q    Type
REMARK                         _______ _______ _______ _____ _____    ______ ____
ROOT
ATOM      1  C   UNL     1       7.343   3.506 -18.398  0.00  0.00    +0.000 C 
ATOM      2  H   UNL     1       7.400   2.583 -17.816  0.00  0.00    +0.000 HD
ATOM      3  H   UNL     1       6.813   3.245 -19.323  0.00  0.00    +0.000 HD
ENDROOT
BRANCH   1   4
ATOM      4  C   UNL     1       6.499   4.539 -17.638  0.00  0.00    +0.000 C 
ATOM      5  H   UNL     1       7.159   5.314 -17.228  0.00  0.00    +0.000 HD
ATOM      6  H   UNL     1       6.031   4.052 -16.773  0.00  0.00    +0.000 HD
BRANCH   4   7
ATOM      7  C   UNL     1       5.432   5.201 -18.488  0.00  0.00    +0.000 C 
ATOM      8  C   UNL     1       4.899   4.698 -19.616  0.00  0.00    +0.000 C 
ATOM      9  H   UNL     1       5.210   3.718 -19.967  0.00  0.00    +0.000 HD
BRANCH   7  10
ATOM     10  C   UNL     1       4.933   6.523 -17.960  0.00  0.00    +0.000 C 
ATOM     11  H   UNL     1       5.333   7.385 -18.503  0.00  0.00    +0.000 HD
ATOM     12  H   UNL     1       5.176   6.628 -16.899  0.00  0.00    +0.000 HD
ATOM     13  H   UNL     1       3.845   6.589 -18.068  0.00  0.00    +0.000 HD
ENDBRANCH   7  10
BRANCH   8  15
ATOM     14  O   UNL     1       2.662   4.988 -20.327  0.00  0.00    +0.000 OA
ATOM     15  C   UNL     1       3.832   5.342 -20.411  0.00  0.00    +0.000 C 
ATOM     16  H   UNL     1       4.139   6.175 -21.065  0.00  0.00    +0.000 HD
ENDBRANCH   8  15
ENDBRANCH   4   7
ENDBRANCH   1   4
BRANCH   1  17
ATOM     17  C   UNL     1       8.698   4.035 -18.782  0.00  0.00    +0.000 C 
ATOM     18  C   UNL     1       9.110   4.467 -19.988  0.00  0.00    +0.000 C 
ATOM     19  H   UNL     1       9.407   4.083 -17.955  0.00  0.00    +0.000 HD
BRANCH  18  20
ATOM     20  C   UNL     1      10.516   4.973 -20.175  0.00  0.00    +0.000 C 
ATOM     21  H   UNL     1      10.530   6.068 -20.151  0.00  0.00    +0.000 HD
ATOM     22  H   UNL     1      10.913   4.642 -21.140  0.00  0.00    +0.000 HD
ATOM     23  H   UNL     1      11.197   4.615 -19.396  0.00  0.00    +0.000 HD
ENDBRANCH  18  20
BRANCH  18  24
ATOM     24  C   UNL     1       8.275   4.485 -21.237  0.00  0.00    +0.000 C 
ATOM     25  H   UNL     1       7.231   4.700 -20.986  0.00  0.00    +0.000 HD
ATOM     26  H   UNL     1       8.286   3.545 -21.792  0.00  0.00    +0.000 HD
ATOM     27  H   UNL     1       8.633   5.267 -21.915  0.00  0.00    +0.000 HD
ENDBRANCH  18  24
ENDBRANCH   1  17
TORSDOF 7
ENDMDL
MODEL 10
REMARK VINA RESULT:    -4.353     28.498     29.841
REMARK INTER + INTRA:          -5.969
REMARK INTER:                  -5.753
REMARK INTRA:                  -0.216
REMARK UNBOUND:                -0.216
REMARK  Name = 638011
REMARK  7 active torsions:
REMARK  status: ('A' for Active; 'I' for Inactive)
REMARK    1  A    between atoms: C_2  and  C_3
REMARK    2  A    between atoms: C_2  and  C_4
REMARK    3  A    between atoms: C_3  and  C_5
REMARK    4  A    between atoms: C_4  and  C_7
REMARK    5  A    between atoms: C_6  and  C_9
REMARK    6  A    between atoms: C_6  and  C_10
REMARK    7  A    between atoms: C_8  and  C_11
REMARK                            x       y       z     vdW  Elec       q    Type
REMARK                         _______ _______ _______ _____ _____    ______ ____
ROOT
ATOM      1  C   UNL     1      -2.378   5.843  24.258  0.00  0.00    +0.000 C 
ATOM      2  H   UNL     1      -3.141   6.244  23.585  0.00  0.00    +0.000 HD
ATOM      3  H   UNL     1      -1.851   5.068  23.686  0.00  0.00    +0.000 HD
ENDROOT
BRANCH   1   4
ATOM      4  C   UNL     1      -1.371   6.949  24.605  0.00  0.00    +0.000 C 
ATOM      5  H   UNL     1      -0.353   6.556  24.497  0.00  0.00    +0.000 HD
ATOM      6  H   UNL     1      -1.482   7.214  25.664  0.00  0.00    +0.000 HD
BRANCH   4   7
ATOM      7  C   UNL     1      -1.512   8.194  23.752  0.00  0.00    +0.000 C 
ATOM      8  C   UNL     1      -1.587   9.457  24.207  0.00  0.00    +0.000 C 
ATOM      9  H   UNL     1      -1.513   9.649  25.274  0.00  0.00    +0.000 HD
BRANCH   7  10
ATOM     10  C   UNL     1      -1.530   7.942  22.265  0.00  0.00    +0.000 C 
ATOM     11  H   UNL     1      -0.712   8.435  21.731  0.00  0.00    +0.000 HD
ATOM     12  H   UNL     1      -2.481   8.266  21.832  0.00  0.00    +0.000 HD
ATOM     13  H   UNL     1      -1.410   6.872  22.058  0.00  0.00    +0.000 HD
ENDBRANCH   7  10
BRANCH   8  15
ATOM     14  O   UNL     1      -1.114  11.705  23.645  0.00  0.00    +0.000 OA
ATOM     15  C   UNL     1      -1.688  10.662  23.356  0.00  0.00    +0.000 C 
ATOM     16  H   UNL     1      -2.286  10.566  22.435  0.00  0.00    +0.000 HD
ENDBRANCH   8  15
ENDBRANCH   4   7
ENDBRANCH   1   4
BRANCH   1  17
ATOM     17  C   UNL     1      -2.967   5.191  25.479  0.00  0.00    +0.000 C 
ATOM     18  C   UNL     1      -4.200   4.671  25.630  0.00  0.00    +0.000 C 
ATOM     19  H   UNL     1      -2.280   5.125  26.322  0.00  0.00    +0.000 HD
BRANCH  18  20
ATOM     20  C   UNL     1      -4.606   4.046  26.938  0.00  0.00    +0.000 C 
ATOM     21  H   UNL     1      -4.368   2.977  26.936  0.00  0.00    +0.000 HD
ATOM     22  H   UNL     1      -5.683   4.162  27.095  0.00  0.00    +0.000 HD
ATOM     23  H   UNL     1      -4.095   4.499  27.795  0.00  0.00    +0.000 HD
ENDBRANCH  18  20
BRANCH  18  24
ATOM     24  C   UNL     1      -5.275   4.663  24.580  0.00  0.00    +0.000 C 
ATOM     25  H   UNL     1      -4.881   5.063  23.639  0.00  0.00    +0.000 HD
ATOM     26  H   UNL     1      -6.154   5.255  24.839  0.00  0.00    +0.000 HD
ATOM     27  H   UNL     1      -5.614   3.637  24.401  0.00  0.00    +0.000 HD
ENDBRANCH  18  24
ENDBRANCH   1  17
TORSDOF 7
ENDMDL
