MODEL 1
REMARK VINA RESULT:    -4.098      0.000      0.000
REMARK INTER + INTRA:          -4.098
REMARK INTER:                  -4.098
REMARK INTRA:                   0.000
REMARK UNBOUND:                 0.000
REMARK  Name = 7967
REMARK  0 active torsions:
REMARK  status: ('A' for Active; 'I' for Inactive)
REMARK                            x       y       z     vdW  Elec       q    Type
REMARK                         _______ _______ _______ _____ _____    ______ ____
ROOT
ATOM      1  O   UNL     1      17.808  -4.074  -0.389  0.00  0.00    +0.000 OA
ATOM      2  C   UNL     1      15.294  -6.412  -2.632  0.00  0.00    +0.000 C 
ATOM      3  C   UNL     1      16.583  -5.831  -3.208  0.00  0.00    +0.000 C 
ATOM      4  C   UNL     1      15.391  -6.556  -1.114  0.00  0.00    +0.000 C 
ATOM      5  C   UNL     1      16.926  -4.487  -2.581  0.00  0.00    +0.000 C 
ATOM      6  C   UNL     1      15.706  -5.227  -0.441  0.00  0.00    +0.000 C 
ATOM      7  C   UNL     1      16.921  -4.585  -1.072  0.00  0.00    +0.000 C 
ATOM      8  H   UNL     1      14.447  -5.764  -2.890  0.00  0.00    +0.000 HD
ATOM      9  H   UNL     1      15.100  -7.392  -3.081  0.00  0.00    +0.000 HD
ATOM     10  H   UNL     1      16.485  -5.717  -4.293  0.00  0.00    +0.000 HD
ATOM     11  H   UNL     1      17.405  -6.537  -3.032  0.00  0.00    +0.000 HD
ATOM     12  H   UNL     1      16.174  -7.283  -0.872  0.00  0.00    +0.000 HD
ATOM     13  H   UNL     1      14.449  -6.954  -0.719  0.00  0.00    +0.000 HD
ATOM     14  H   UNL     1      16.199  -3.722  -2.873  0.00  0.00    +0.000 HD
ATOM     15  H   UNL     1      17.917  -4.162  -2.916  0.00  0.00    +0.000 HD
ATOM     16  H   UNL     1      15.898  -5.387   0.625  0.00  0.00    +0.000 HD
ATOM     17  H   UNL     1      14.866  -4.531  -0.537  0.00  0.00    +0.000 HD
ENDROOT
TORSDOF 0
ENDMDL
MODEL 2
REMARK VINA RESULT:    -4.085      2.145      3.100
REMARK INTER + INTRA:          -4.085
REMARK INTER:                  -4.085
REMARK INTRA:                   0.000
REMARK UNBOUND:                 0.000
REMARK  Name = 7967
REMARK  0 active torsions:
REMARK  status: ('A' for Active; 'I' for Inactive)
REMARK                            x       y       z     vdW  Elec       q    Type
REMARK                         _______ _______ _______ _____ _____    ______ ____
ROOT
ATOM      1  O   UNL     1      19.726  -3.516  -3.636  0.00  0.00    +0.000 OA
ATOM      2  C   UNL     1      16.583  -6.123  -3.261  0.00  0.00    +0.000 C 
ATOM      3  C   UNL     1      16.490  -4.675  -2.786  0.00  0.00    +0.000 C 
ATOM      4  C   UNL     1      17.625  -6.269  -4.368  0.00  0.00    +0.000 C 
ATOM      5  C   UNL     1      17.837  -4.153  -2.303  0.00  0.00    +0.000 C 
ATOM      6  C   UNL     1      18.996  -5.783  -3.920  0.00  0.00    +0.000 C 
ATOM      7  C   UNL     1      18.905  -4.386  -3.347  0.00  0.00    +0.000 C 
ATOM      8  H   UNL     1      16.844  -6.774  -2.417  0.00  0.00    +0.000 HD
ATOM      9  H   UNL     1      15.605  -6.451  -3.631  0.00  0.00    +0.000 HD
ATOM     10  H   UNL     1      15.754  -4.596  -1.979  0.00  0.00    +0.000 HD
ATOM     11  H   UNL     1      16.131  -4.049  -3.612  0.00  0.00    +0.000 HD
ATOM     12  H   UNL     1      17.301  -5.693  -5.243  0.00  0.00    +0.000 HD
ATOM     13  H   UNL     1      17.690  -7.318  -4.680  0.00  0.00    +0.000 HD
ATOM     14  H   UNL     1      18.145  -4.659  -1.382  0.00  0.00    +0.000 HD
ATOM     15  H   UNL     1      17.766  -3.079  -2.095  0.00  0.00    +0.000 HD
ATOM     16  H   UNL     1      19.685  -5.778  -4.770  0.00  0.00    +0.000 HD
ATOM     17  H   UNL     1      19.410  -6.440  -3.148  0.00  0.00    +0.000 HD
ENDROOT
TORSDOF 0
ENDMDL
MODEL 3
REMARK VINA RESULT:    -3.963      1.673      2.319
REMARK INTER + INTRA:          -3.963
REMARK INTER:                  -3.963
REMARK INTRA:                   0.000
REMARK UNBOUND:                 0.000
REMARK  Name = 7967
REMARK  0 active torsions:
REMARK  status: ('A' for Active; 'I' for Inactive)
REMARK                            x       y       z     vdW  Elec       q    Type
REMARK                         _______ _______ _______ _____ _____    ______ ____
ROOT
ATOM      1  O   UNL     1      18.113  -3.447  -1.356  0.00  0.00    +0.000 OA
ATOM      2  C   UNL     1      17.702  -6.215  -4.354  0.00  0.00    +0.000 C 
ATOM      3  C   UNL     1      19.071  -5.705  -3.910  0.00  0.00    +0.000 C 
ATOM      4  C   UNL     1      16.681  -6.089  -3.226  0.00  0.00    +0.000 C 
ATOM      5  C   UNL     1      19.006  -4.262  -3.428  0.00  0.00    +0.000 C 
ATOM      6  C   UNL     1      16.562  -4.655  -2.730  0.00  0.00    +0.000 C 
ATOM      7  C   UNL     1      17.924  -4.096  -2.384  0.00  0.00    +0.000 C 
ATOM      8  H   UNL     1      17.361  -5.648  -5.229  0.00  0.00    +0.000 HD
ATOM      9  H   UNL     1      17.784  -7.264  -4.661  0.00  0.00    +0.000 HD
ATOM     10  H   UNL     1      19.783  -5.784  -4.738  0.00  0.00    +0.000 HD
ATOM     11  H   UNL     1      19.447  -6.343  -3.101  0.00  0.00    +0.000 HD
ATOM     12  H   UNL     1      16.981  -6.739  -2.396  0.00  0.00    +0.000 HD
ATOM     13  H   UNL     1      15.702  -6.442  -3.572  0.00  0.00    +0.000 HD
ATOM     14  H   UNL     1      18.785  -3.582  -4.257  0.00  0.00    +0.000 HD
ATOM     15  H   UNL     1      19.970  -3.970  -2.995  0.00  0.00    +0.000 HD
ATOM     16  H   UNL     1      15.925  -4.621  -1.840  0.00  0.00    +0.000 HD
ATOM     17  H   UNL     1      16.116  -4.012  -3.496  0.00  0.00    +0.000 HD
ENDROOT
TORSDOF 0
ENDMDL
MODEL 4
REMARK VINA RESULT:    -3.930     35.771     36.933
REMARK INTER + INTRA:          -3.930
REMARK INTER:                  -3.930
REMARK INTRA:                   0.000
REMARK UNBOUND:                 0.000
REMARK  Name = 7967
REMARK  0 active torsions:
REMARK  status: ('A' for Active; 'I' for Inactive)
REMARK                            x       y       z     vdW  Elec       q    Type
REMARK                         _______ _______ _______ _____ _____    ______ ____
ROOT
ATOM      1  O   UNL     1      -6.690   4.021  28.237  0.00  0.00    +0.000 OA
ATOM      2  C   UNL     1      -3.924   4.712  25.290  0.00  0.00    +0.000 C 
ATOM      3  C   UNL     1      -3.582   3.913  26.545  0.00  0.00    +0.000 C 
ATOM      4  C   UNL     1      -5.421   4.648  24.993  0.00  0.00    +0.000 C 
ATOM      5  C   UNL     1      -4.371   4.397  27.754  0.00  0.00    +0.000 C 
ATOM      6  C   UNL     1      -6.250   5.149  26.167  0.00  0.00    +0.000 C 
ATOM      7  C   UNL     1      -5.851   4.442  27.442  0.00  0.00    +0.000 C 
ATOM      8  H   UNL     1      -3.615   5.756  25.419  0.00  0.00    +0.000 HD
ATOM      9  H   UNL     1      -3.363   4.313  24.437  0.00  0.00    +0.000 HD
ATOM     10  H   UNL     1      -2.509   3.989  26.752  0.00  0.00    +0.000 HD
ATOM     11  H   UNL     1      -3.801   2.853  26.367  0.00  0.00    +0.000 HD
ATOM     12  H   UNL     1      -5.697   3.611  24.766  0.00  0.00    +0.000 HD
ATOM     13  H   UNL     1      -5.647   5.244  24.101  0.00  0.00    +0.000 HD
ATOM     14  H   UNL     1      -4.056   5.403  28.050  0.00  0.00    +0.000 HD
ATOM     15  H   UNL     1      -4.203   3.723  28.602  0.00  0.00    +0.000 HD
ATOM     16  H   UNL     1      -7.313   4.969  25.975  0.00  0.00    +0.000 HD
ATOM     17  H   UNL     1      -6.107   6.224  26.316  0.00  0.00    +0.000 HD
ENDROOT
TORSDOF 0
ENDMDL
MODEL 5
REMARK VINA RESULT:    -3.899     26.095     26.845
REMARK INTER + INTRA:          -3.899
REMARK INTER:                  -3.899
REMARK INTRA:                   0.000
REMARK UNBOUND:                 0.000
REMARK  Name = 7967
REMARK  0 active torsions:
REMARK  status: ('A' for Active; 'I' for Inactive)
REMARK                            x       y       z     vdW  Elec       q    Type
REMARK                         _______ _______ _______ _____ _____    ______ ____
ROOT
ATOM      1  O   UNL     1      -7.682 -16.218   3.549  0.00  0.00    +0.000 OA
ATOM      2  C   UNL     1      -7.814 -13.460   6.581  0.00  0.00    +0.000 C 
ATOM      3  C   UNL     1      -8.121 -13.083   5.134  0.00  0.00    +0.000 C 
ATOM      4  C   UNL     1      -8.084 -14.944   6.827  0.00  0.00    +0.000 C 
ATOM      5  C   UNL     1      -7.320 -13.924   4.150  0.00  0.00    +0.000 C 
ATOM      6  C   UNL     1      -7.281 -15.826   5.881  0.00  0.00    +0.000 C 
ATOM      7  C   UNL     1      -7.490 -15.398   4.446  0.00  0.00    +0.000 C 
ATOM      8  H   UNL     1      -6.767 -13.229   6.811  0.00  0.00    +0.000 HD
ATOM      9  H   UNL     1      -8.434 -12.859   7.256  0.00  0.00    +0.000 HD
ATOM     10  H   UNL     1      -7.902 -12.022   4.974  0.00  0.00    +0.000 HD
ATOM     11  H   UNL     1      -9.193 -13.222   4.946  0.00  0.00    +0.000 HD
ATOM     12  H   UNL     1      -9.154 -15.141   6.692  0.00  0.00    +0.000 HD
ATOM     13  H   UNL     1      -7.838 -15.197   7.865  0.00  0.00    +0.000 HD
ATOM     14  H   UNL     1      -6.253 -13.687   4.210  0.00  0.00    +0.000 HD
ATOM     15  H   UNL     1      -7.658 -13.722   3.127  0.00  0.00    +0.000 HD
ATOM     16  H   UNL     1      -7.592 -16.870   5.993  0.00  0.00    +0.000 HD
ATOM     17  H   UNL     1      -6.210 -15.763   6.102  0.00  0.00    +0.000 HD
ENDROOT
TORSDOF 0
ENDMDL
MODEL 6
REMARK VINA RESULT:    -3.895     35.363     36.553
REMARK INTER + INTRA:          -3.895
REMARK INTER:                  -3.895
REMARK INTRA:                   0.000
REMARK UNBOUND:                 0.000
REMARK  Name = 7967
REMARK  0 active torsions:
REMARK  status: ('A' for Active; 'I' for Inactive)
REMARK                            x       y       z     vdW  Elec       q    Type
REMARK                         _______ _______ _______ _____ _____    ______ ____
ROOT
ATOM      1  O   UNL     1      -6.730   5.621  27.353  0.00  0.00    +0.000 OA
ATOM      2  C   UNL     1      -3.457   4.545  25.129  0.00  0.00    +0.000 C 
ATOM      3  C   UNL     1      -4.803   4.864  24.482  0.00  0.00    +0.000 C 
ATOM      4  C   UNL     1      -3.321   5.248  26.478  0.00  0.00    +0.000 C 
ATOM      5  C   UNL     1      -5.968   4.482  25.385  0.00  0.00    +0.000 C 
ATOM      6  C   UNL     1      -4.452   4.874  27.425  0.00  0.00    +0.000 C 
ATOM      7  C   UNL     1      -5.795   5.084  26.761  0.00  0.00    +0.000 C 
ATOM      8  H   UNL     1      -3.357   3.461  25.263  0.00  0.00    +0.000 HD
ATOM      9  H   UNL     1      -2.646   4.865  24.465  0.00  0.00    +0.000 HD
ATOM     10  H   UNL     1      -4.889   4.335  23.527  0.00  0.00    +0.000 HD
ATOM     11  H   UNL     1      -4.849   5.937  24.259  0.00  0.00    +0.000 HD
ATOM     12  H   UNL     1      -3.321   6.333  26.319  0.00  0.00    +0.000 HD
ATOM     13  H   UNL     1      -2.358   4.990  26.934  0.00  0.00    +0.000 HD
ATOM     14  H   UNL     1      -6.037   3.395  25.495  0.00  0.00    +0.000 HD
ATOM     15  H   UNL     1      -6.908   4.842  24.951  0.00  0.00    +0.000 HD
ATOM     16  H   UNL     1      -4.399   5.490  28.329  0.00  0.00    +0.000 HD
ATOM     17  H   UNL     1      -4.381   3.823  27.723  0.00  0.00    +0.000 HD
ENDROOT
TORSDOF 0
ENDMDL
MODEL 7
REMARK VINA RESULT:    -3.827      1.909      2.663
REMARK INTER + INTRA:          -3.827
REMARK INTER:                  -3.827
REMARK INTRA:                   0.000
REMARK UNBOUND:                 0.000
REMARK  Name = 7967
REMARK  0 active torsions:
REMARK  status: ('A' for Active; 'I' for Inactive)
REMARK                            x       y       z     vdW  Elec       q    Type
REMARK                         _______ _______ _______ _____ _____    ______ ____
ROOT
ATOM      1  O   UNL     1      19.746  -5.479  -3.344  0.00  0.00    +0.000 OA
ATOM      2  C   UNL     1      15.816  -4.886  -2.337  0.00  0.00    +0.000 C 
ATOM      3  C   UNL     1      16.299  -6.191  -2.966  0.00  0.00    +0.000 C 
ATOM      4  C   UNL     1      16.953  -4.182  -1.600  0.00  0.00    +0.000 C 
ATOM      5  C   UNL     1      17.467  -5.961  -3.915  0.00  0.00    +0.000 C 
ATOM      6  C   UNL     1      18.135  -3.906  -2.519  0.00  0.00    +0.000 C 
ATOM      7  C   UNL     1      18.561  -5.169  -3.233  0.00  0.00    +0.000 C 
ATOM      8  H   UNL     1      15.412  -4.227  -3.115  0.00  0.00    +0.000 HD
ATOM      9  H   UNL     1      15.000  -5.097  -1.637  0.00  0.00    +0.000 HD
ATOM     10  H   UNL     1      15.475  -6.669  -3.506  0.00  0.00    +0.000 HD
ATOM     11  H   UNL     1      16.605  -6.881  -2.170  0.00  0.00    +0.000 HD
ATOM     12  H   UNL     1      17.280  -4.808  -0.762  0.00  0.00    +0.000 HD
ATOM     13  H   UNL     1      16.590  -3.239  -1.174  0.00  0.00    +0.000 HD
ATOM     14  H   UNL     1      17.147  -5.403  -4.802  0.00  0.00    +0.000 HD
ATOM     15  H   UNL     1      17.874  -6.924  -4.245  0.00  0.00    +0.000 HD
ATOM     16  H   UNL     1      18.978  -3.522  -1.936  0.00  0.00    +0.000 HD
ATOM     17  H   UNL     1      17.875  -3.159  -3.277  0.00  0.00    +0.000 HD
ENDROOT
TORSDOF 0
ENDMDL
MODEL 8
REMARK VINA RESULT:    -3.811     26.093     26.931
REMARK INTER + INTRA:          -3.811
REMARK INTER:                  -3.811
REMARK INTRA:                   0.000
REMARK UNBOUND:                 0.000
REMARK  Name = 7967
REMARK  0 active torsions:
REMARK  status: ('A' for Active; 'I' for Inactive)
REMARK                            x       y       z     vdW  Elec       q    Type
REMARK                         _______ _______ _______ _____ _____    ______ ____
ROOT
ATOM      1  O   UNL     1      -6.937 -16.897   5.649  0.00  0.00    +0.000 OA
ATOM      2  C   UNL     1      -8.130 -12.998   5.213  0.00  0.00    +0.000 C 
ATOM      3  C   UNL     1      -7.806 -13.594   6.581  0.00  0.00    +0.000 C 
ATOM      4  C   UNL     1      -7.391 -13.745   4.104  0.00  0.00    +0.000 C 
ATOM      5  C   UNL     1      -8.143 -15.078   6.643  0.00  0.00    +0.000 C 
ATOM      6  C   UNL     1      -7.719 -15.231   4.111  0.00  0.00    +0.000 C 
ATOM      7  C   UNL     1      -7.506 -15.818   5.488  0.00  0.00    +0.000 C 
ATOM      8  H   UNL     1      -9.211 -13.042   5.035  0.00  0.00    +0.000 HD
ATOM      9  H   UNL     1      -7.842 -11.940   5.197  0.00  0.00    +0.000 HD
ATOM     10  H   UNL     1      -8.361 -13.058   7.359  0.00  0.00    +0.000 HD
ATOM     11  H   UNL     1      -6.739 -13.453   6.792  0.00  0.00    +0.000 HD
ATOM     12  H   UNL     1      -6.311 -13.608   4.237  0.00  0.00    +0.000 HD
ATOM     13  H   UNL     1      -7.653 -13.314   3.130  0.00  0.00    +0.000 HD
ATOM     14  H   UNL     1      -9.225 -15.236   6.593  0.00  0.00    +0.000 HD
ATOM     15  H   UNL     1      -7.779 -15.503   7.586  0.00  0.00    +0.000 HD
ATOM     16  H   UNL     1      -7.080 -15.757   3.395  0.00  0.00    +0.000 HD
ATOM     17  H   UNL     1      -8.763 -15.403   3.827  0.00  0.00    +0.000 HD
ENDROOT
TORSDOF 0
ENDMDL
MODEL 9
REMARK VINA RESULT:    -3.725     25.477     26.167
REMARK INTER + INTRA:          -3.725
REMARK INTER:                  -3.725
REMARK INTRA:                   0.000
REMARK UNBOUND:                 0.000
REMARK  Name = 7967
REMARK  0 active torsions:
REMARK  status: ('A' for Active; 'I' for Inactive)
REMARK                            x       y       z     vdW  Elec       q    Type
REMARK                         _______ _______ _______ _____ _____    ______ ____
ROOT
ATOM      1  O   UNL     1       2.053   1.996 -22.946  0.00  0.00    +0.000 OA
ATOM      2  C   UNL     1       0.085   3.314 -19.598  0.00  0.00    +0.000 C 
ATOM      3  C   UNL     1       1.491   3.795 -19.949  0.00  0.00    +0.000 C 
ATOM      4  C   UNL     1      -0.665   2.862 -20.850  0.00  0.00    +0.000 C 
ATOM      5  C   UNL     1       2.291   2.720 -20.672  0.00  0.00    +0.000 C 
ATOM      6  C   UNL     1       0.087   1.765 -21.592  0.00  0.00    +0.000 C 
ATOM      7  C   UNL     1       1.516   2.183 -21.855  0.00  0.00    +0.000 C 
ATOM      8  H   UNL     1       0.144   2.487 -18.881  0.00  0.00    +0.000 HD
ATOM      9  H   UNL     1      -0.469   4.124 -19.112  0.00  0.00    +0.000 HD
ATOM     10  H   UNL     1       2.018   4.095 -19.037  0.00  0.00    +0.000 HD
ATOM     11  H   UNL     1       1.417   4.686 -20.586  0.00  0.00    +0.000 HD
ATOM     12  H   UNL     1      -0.806   3.722 -21.514  0.00  0.00    +0.000 HD
ATOM     13  H   UNL     1      -1.663   2.502 -20.574  0.00  0.00    +0.000 HD
ATOM     14  H   UNL     1       2.514   1.882 -20.003  0.00  0.00    +0.000 HD
ATOM     15  H   UNL     1       3.241   3.138 -21.024  0.00  0.00    +0.000 HD
ATOM     16  H   UNL     1      -0.407   1.556 -22.546  0.00  0.00    +0.000 HD
ATOM     17  H   UNL     1       0.106   0.840 -21.007  0.00  0.00    +0.000 HD
ENDROOT
TORSDOF 0
ENDMDL
MODEL 10
REMARK VINA RESULT:    -3.673     34.948     36.114
REMARK INTER + INTRA:          -3.673
REMARK INTER:                  -3.673
REMARK INTRA:                   0.000
REMARK UNBOUND:                 0.000
REMARK  Name = 7967
REMARK  0 active torsions:
REMARK  status: ('A' for Active; 'I' for Inactive)
REMARK                            x       y       z     vdW  Elec       q    Type
REMARK                         _______ _______ _______ _____ _____    ______ ____
ROOT
ATOM      1  O   UNL     1      -2.953   3.830  27.839  0.00  0.00    +0.000 OA
ATOM      2  C   UNL     1      -5.537   4.980  24.870  0.00  0.00    +0.000 C 
ATOM      3  C   UNL     1      -4.130   4.473  24.563  0.00  0.00    +0.000 C 
ATOM      4  C   UNL     1      -6.035   4.431  26.206  0.00  0.00    +0.000 C 
ATOM      5  C   UNL     1      -3.147   4.832  25.669  0.00  0.00    +0.000 C 
ATOM      6  C   UNL     1      -5.095   4.790  27.348  0.00  0.00    +0.000 C 
ATOM      7  C   UNL     1      -3.675   4.391  27.016  0.00  0.00    +0.000 C 
ATOM      8  H   UNL     1      -5.540   6.076  24.894  0.00  0.00    +0.000 HD
ATOM      9  H   UNL     1      -6.220   4.673  24.070  0.00  0.00    +0.000 HD
ATOM     10  H   UNL     1      -3.785   4.894  23.612  0.00  0.00    +0.000 HD
ATOM     11  H   UNL     1      -4.160   3.383  24.440  0.00  0.00    +0.000 HD
ATOM     12  H   UNL     1      -6.124   3.341  26.135  0.00  0.00    +0.000 HD
ATOM     13  H   UNL     1      -7.037   4.823  26.417  0.00  0.00    +0.000 HD
ATOM     14  H   UNL     1      -2.980   5.914  25.708  0.00  0.00    +0.000 HD
ATOM     15  H   UNL     1      -2.184   4.344  25.483  0.00  0.00    +0.000 HD
ATOM     16  H   UNL     1      -5.407   4.276  28.263  0.00  0.00    +0.000 HD
ATOM     17  H   UNL     1      -5.107   5.868  27.541  0.00  0.00    +0.000 HD
ENDROOT
TORSDOF 0
ENDMDL
