MODEL 1
REMARK VINA RESULT:    -4.198      0.000      0.000
REMARK INTER + INTRA:          -6.982
REMARK INTER:                  -6.201
REMARK INTRA:                  -0.781
REMARK UNBOUND:                -0.697
REMARK  Name = 8175
REMARK  9 active torsions:
REMARK  status: ('A' for Active; 'I' for Inactive)
REMARK    1  A    between atoms: C_2  and  C_3
REMARK    2  A    between atoms: C_2  and  C_4
REMARK    3  A    between atoms: C_3  and  C_5
REMARK    4  A    between atoms: C_4  and  C_6
REMARK    5  A    between atoms: C_5  and  C_7
REMARK    6  A    between atoms: C_6  and  C_8
REMARK    7  A    between atoms: C_7  and  C_9
REMARK    8  A    between atoms: C_8  and  C_10
REMARK    9  A    between atoms: C_9  and  C_11
REMARK                            x       y       z     vdW  Elec       q    Type
REMARK                         _______ _______ _______ _____ _____    ______ ____
ROOT
ATOM      1  C   UNL     1      -7.898 -13.029   4.894  0.00  0.00    +0.000 C 
ATOM      2  H   UNL     1      -8.433 -12.078   4.997  0.00  0.00    +0.000 HD
ATOM      3  H   UNL     1      -8.426 -13.619   4.136  0.00  0.00    +0.000 HD
ENDROOT
BRANCH   1   4
ATOM      4  C   UNL     1      -7.913 -13.777   6.231  0.00  0.00    +0.000 C 
ATOM      5  H   UNL     1      -8.440 -13.180   6.984  0.00  0.00    +0.000 HD
ATOM      6  H   UNL     1      -6.885 -13.915   6.588  0.00  0.00    +0.000 HD
BRANCH   4   7
ATOM      7  C   UNL     1      -8.591 -15.143   6.093  0.00  0.00    +0.000 C 
ATOM      8  H   UNL     1      -8.951 -15.470   7.075  0.00  0.00    +0.000 HD
ATOM      9  H   UNL     1      -9.473 -15.043   5.448  0.00  0.00    +0.000 HD
BRANCH   7  10
ATOM     10  C   UNL     1      -7.671 -16.220   5.512  0.00  0.00    +0.000 C 
ATOM     11  H   UNL     1      -8.208 -17.177   5.488  0.00  0.00    +0.000 HD
ATOM     12  H   UNL     1      -7.439 -15.971   4.470  0.00  0.00    +0.000 HD
BRANCH  10  13
ATOM     13  C   UNL     1      -6.373 -16.394   6.296  0.00  0.00    +0.000 C 
ATOM     14  H   UNL     1      -6.324 -15.676   7.120  0.00  0.00    +0.000 HD
ATOM     15  H   UNL     1      -6.316 -17.404   6.717  0.00  0.00    +0.000 HD
BRANCH  13  17
ATOM     16  O   UNL     1      -4.097 -16.812   5.555  0.00  0.00    +0.000 OA
ATOM     17  C   UNL     1      -5.147 -16.189   5.437  0.00  0.00    +0.000 C 
ATOM     18  H   UNL     1      -5.253 -15.417   4.655  0.00  0.00    +0.000 HD
ENDBRANCH  13  17
ENDBRANCH  10  13
ENDBRANCH   7  10
ENDBRANCH   4   7
ENDBRANCH   1   4
BRANCH   1  19
ATOM     19  C   UNL     1      -6.465 -12.764   4.425  0.00  0.00    +0.000 C 
ATOM     20  H   UNL     1      -5.760 -13.116   5.188  0.00  0.00    +0.000 HD
ATOM     21  H   UNL     1      -6.314 -11.682   4.330  0.00  0.00    +0.000 HD
BRANCH  19  22
ATOM     22  C   UNL     1      -6.128 -13.437   3.091  0.00  0.00    +0.000 C 
ATOM     23  H   UNL     1      -5.471 -12.778   2.511  0.00  0.00    +0.000 HD
ATOM     24  H   UNL     1      -5.561 -14.354   3.290  0.00  0.00    +0.000 HD
BRANCH  22  25
ATOM     25  C   UNL     1      -7.363 -13.783   2.256  0.00  0.00    +0.000 C 
ATOM     26  H   UNL     1      -8.223 -13.201   2.607  0.00  0.00    +0.000 HD
ATOM     27  H   UNL     1      -7.613 -14.843   2.385  0.00  0.00    +0.000 HD
BRANCH  25  28
ATOM     28  C   UNL     1      -7.129 -13.502   0.780  0.00  0.00    +0.000 C 
ATOM     29  H   UNL     1      -6.098 -13.749   0.506  0.00  0.00    +0.000 HD
ATOM     30  H   UNL     1      -7.799 -14.102   0.156  0.00  0.00    +0.000 HD
ATOM     31  H   UNL     1      -7.297 -12.445   0.549  0.00  0.00    +0.000 HD
ENDBRANCH  25  28
ENDBRANCH  22  25
ENDBRANCH  19  22
ENDBRANCH   1  19
TORSDOF 9
ENDMDL
MODEL 2
REMARK VINA RESULT:    -4.045      1.407      1.982
REMARK INTER + INTRA:          -6.752
REMARK INTER:                  -6.264
REMARK INTRA:                  -0.488
REMARK UNBOUND:                -0.697
REMARK  Name = 8175
REMARK  9 active torsions:
REMARK  status: ('A' for Active; 'I' for Inactive)
REMARK    1  A    between atoms: C_2  and  C_3
REMARK    2  A    between atoms: C_2  and  C_4
REMARK    3  A    between atoms: C_3  and  C_5
REMARK    4  A    between atoms: C_4  and  C_6
REMARK    5  A    between atoms: C_5  and  C_7
REMARK    6  A    between atoms: C_6  and  C_8
REMARK    7  A    between atoms: C_7  and  C_9
REMARK    8  A    between atoms: C_8  and  C_10
REMARK    9  A    between atoms: C_9  and  C_11
REMARK                            x       y       z     vdW  Elec       q    Type
REMARK                         _______ _______ _______ _____ _____    ______ ____
ROOT
ATOM      1  C   UNL     1      -6.532 -12.766   4.384  0.00  0.00    +0.000 C 
ATOM      2  H   UNL     1      -5.775 -12.978   5.148  0.00  0.00    +0.000 HD
ATOM      3  H   UNL     1      -6.469 -11.695   4.153  0.00  0.00    +0.000 HD
ENDROOT
BRANCH   1   4
ATOM      4  C   UNL     1      -7.925 -13.093   4.932  0.00  0.00    +0.000 C 
ATOM      5  H   UNL     1      -8.369 -13.910   4.350  0.00  0.00    +0.000 HD
ATOM      6  H   UNL     1      -8.579 -12.221   4.817  0.00  0.00    +0.000 HD
BRANCH   4   7
ATOM      7  C   UNL     1      -7.859 -13.490   6.408  0.00  0.00    +0.000 C 
ATOM      8  H   UNL     1      -6.862 -13.260   6.802  0.00  0.00    +0.000 HD
ATOM      9  H   UNL     1      -8.573 -12.882   6.977  0.00  0.00    +0.000 HD
BRANCH   7  10
ATOM     10  C   UNL     1      -8.163 -14.971   6.652  0.00  0.00    +0.000 C 
ATOM     11  H   UNL     1      -8.403 -15.120   7.713  0.00  0.00    +0.000 HD
ATOM     12  H   UNL     1      -9.063 -15.250   6.090  0.00  0.00    +0.000 HD
BRANCH  10  13
ATOM     13  C   UNL     1      -7.013 -15.897   6.265  0.00  0.00    +0.000 C 
ATOM     14  H   UNL     1      -6.207 -15.328   5.790  0.00  0.00    +0.000 HD
ATOM     15  H   UNL     1      -6.606 -16.390   7.154  0.00  0.00    +0.000 HD
BRANCH  13  17
ATOM     16  O   UNL     1      -7.811 -18.100   5.625  0.00  0.00    +0.000 OA
ATOM     17  C   UNL     1      -7.440 -16.978   5.300  0.00  0.00    +0.000 C 
ATOM     18  H   UNL     1      -7.407 -16.688   4.235  0.00  0.00    +0.000 HD
ENDBRANCH  13  17
ENDBRANCH  10  13
ENDBRANCH   7  10
ENDBRANCH   4   7
ENDBRANCH   1   4
BRANCH   1  19
ATOM     19  C   UNL     1      -6.229 -13.576   3.122  0.00  0.00    +0.000 C 
ATOM     20  H   UNL     1      -5.881 -14.577   3.405  0.00  0.00    +0.000 HD
ATOM     21  H   UNL     1      -5.405 -13.098   2.578  0.00  0.00    +0.000 HD
BRANCH  19  22
ATOM     22  C   UNL     1      -7.433 -13.717   2.186  0.00  0.00    +0.000 C 
ATOM     23  H   UNL     1      -7.936 -14.671   2.386  0.00  0.00    +0.000 HD
ATOM     24  H   UNL     1      -8.156 -12.924   2.417  0.00  0.00    +0.000 HD
BRANCH  22  25
ATOM     25  C   UNL     1      -7.063 -13.639   0.704  0.00  0.00    +0.000 C 
ATOM     26  H   UNL     1      -6.500 -12.719   0.510  0.00  0.00    +0.000 HD
ATOM     27  H   UNL     1      -7.974 -13.597   0.095  0.00  0.00    +0.000 HD
BRANCH  25  28
ATOM     28  C   UNL     1      -6.234 -14.841   0.277  0.00  0.00    +0.000 C 
ATOM     29  H   UNL     1      -5.166 -14.618   0.376  0.00  0.00    +0.000 HD
ATOM     30  H   UNL     1      -6.458 -15.713   0.899  0.00  0.00    +0.000 HD
ATOM     31  H   UNL     1      -6.430 -15.103  -0.768  0.00  0.00    +0.000 HD
ENDBRANCH  25  28
ENDBRANCH  22  25
ENDBRANCH  19  22
ENDBRANCH   1  19
TORSDOF 9
ENDMDL
MODEL 3
REMARK VINA RESULT:    -4.001     26.622     28.131
REMARK INTER + INTRA:          -6.687
REMARK INTER:                  -6.195
REMARK INTRA:                  -0.492
REMARK UNBOUND:                -0.697
REMARK  Name = 8175
REMARK  9 active torsions:
REMARK  status: ('A' for Active; 'I' for Inactive)
REMARK    1  A    between atoms: C_2  and  C_3
REMARK    2  A    between atoms: C_2  and  C_4
REMARK    3  A    between atoms: C_3  and  C_5
REMARK    4  A    between atoms: C_4  and  C_6
REMARK    5  A    between atoms: C_5  and  C_7
REMARK    6  A    between atoms: C_6  and  C_8
REMARK    7  A    between atoms: C_7  and  C_9
REMARK    8  A    between atoms: C_8  and  C_10
REMARK    9  A    between atoms: C_9  and  C_11
REMARK                            x       y       z     vdW  Elec       q    Type
REMARK                         _______ _______ _______ _____ _____    ______ ____
ROOT
ATOM      1  C   UNL     1      16.919  -6.155  -4.022  0.00  0.00    +0.000 C 
ATOM      2  H   UNL     1      16.559  -7.013  -3.443  0.00  0.00    +0.000 HD
ATOM      3  H   UNL     1      16.247  -6.037  -4.881  0.00  0.00    +0.000 HD
ENDROOT
BRANCH   1   4
ATOM      4  C   UNL     1      18.343  -6.429  -4.517  0.00  0.00    +0.000 C 
ATOM      5  H   UNL     1      18.684  -5.596  -5.143  0.00  0.00    +0.000 HD
ATOM      6  H   UNL     1      18.348  -7.329  -5.143  0.00  0.00    +0.000 HD
BRANCH   4   7
ATOM      7  C   UNL     1      19.309  -6.618  -3.345  0.00  0.00    +0.000 C 
ATOM      8  H   UNL     1      19.188  -5.789  -2.637  0.00  0.00    +0.000 HD
ATOM      9  H   UNL     1      19.045  -7.537  -2.806  0.00  0.00    +0.000 HD
BRANCH   7  10
ATOM     10  C   UNL     1      20.776  -6.698  -3.775  0.00  0.00    +0.000 C 
ATOM     11  H   UNL     1      21.355  -7.200  -2.989  0.00  0.00    +0.000 HD
ATOM     12  H   UNL     1      20.855  -7.330  -4.667  0.00  0.00    +0.000 HD
BRANCH  10  13
ATOM     13  C   UNL     1      21.398  -5.333  -4.061  0.00  0.00    +0.000 C 
ATOM     14  H   UNL     1      22.351  -5.450  -4.586  0.00  0.00    +0.000 HD
ATOM     15  H   UNL     1      20.730  -4.736  -4.690  0.00  0.00    +0.000 HD
BRANCH  13  17
ATOM     16  O   UNL     1      20.954  -3.637  -2.379  0.00  0.00    +0.000 OA
ATOM     17  C   UNL     1      21.664  -4.543  -2.801  0.00  0.00    +0.000 C 
ATOM     18  H   UNL     1      22.572  -4.844  -2.248  0.00  0.00    +0.000 HD
ENDBRANCH  13  17
ENDBRANCH  10  13
ENDBRANCH   7  10
ENDBRANCH   4   7
ENDBRANCH   1   4
BRANCH   1  19
ATOM     19  C   UNL     1      16.867  -4.893  -3.158  0.00  0.00    +0.000 C 
ATOM     20  H   UNL     1      16.637  -4.027  -3.790  0.00  0.00    +0.000 HD
ATOM     21  H   UNL     1      17.858  -4.714  -2.725  0.00  0.00    +0.000 HD
BRANCH  19  22
ATOM     22  C   UNL     1      15.833  -4.971  -2.030  0.00  0.00    +0.000 C 
ATOM     23  H   UNL     1      16.261  -4.537  -1.118  0.00  0.00    +0.000 HD
ATOM     24  H   UNL     1      14.968  -4.353  -2.299  0.00  0.00    +0.000 HD
BRANCH  22  25
ATOM     25  C   UNL     1      15.359  -6.396  -1.739  0.00  0.00    +0.000 C 
ATOM     26  H   UNL     1      15.941  -7.110  -2.333  0.00  0.00    +0.000 HD
ATOM     27  H   UNL     1      14.309  -6.506  -2.035  0.00  0.00    +0.000 HD
BRANCH  25  28
ATOM     28  C   UNL     1      15.497  -6.734  -0.262  0.00  0.00    +0.000 C 
ATOM     29  H   UNL     1      14.814  -6.118   0.333  0.00  0.00    +0.000 HD
ATOM     30  H   UNL     1      15.256  -7.785  -0.076  0.00  0.00    +0.000 HD
ATOM     31  H   UNL     1      16.517  -6.547   0.090  0.00  0.00    +0.000 HD
ENDBRANCH  25  28
ENDBRANCH  22  25
ENDBRANCH  19  22
ENDBRANCH   1  19
TORSDOF 9
ENDMDL
MODEL 4
REMARK VINA RESULT:    -3.990     31.314     32.655
REMARK INTER + INTRA:          -6.670
REMARK INTER:                  -6.159
REMARK INTRA:                  -0.511
REMARK UNBOUND:                -0.697
REMARK  Name = 8175
REMARK  9 active torsions:
REMARK  status: ('A' for Active; 'I' for Inactive)
REMARK    1  A    between atoms: C_2  and  C_3
REMARK    2  A    between atoms: C_2  and  C_4
REMARK    3  A    between atoms: C_3  and  C_5
REMARK    4  A    between atoms: C_4  and  C_6
REMARK    5  A    between atoms: C_5  and  C_7
REMARK    6  A    between atoms: C_6  and  C_8
REMARK    7  A    between atoms: C_7  and  C_9
REMARK    8  A    between atoms: C_8  and  C_10
REMARK    9  A    between atoms: C_9  and  C_11
REMARK                            x       y       z     vdW  Elec       q    Type
REMARK                         _______ _______ _______ _____ _____    ______ ____
ROOT
ATOM      1  C   UNL     1       4.546   4.039 -19.984  0.00  0.00    +0.000 C 
ATOM      2  H   UNL     1       5.241   3.920 -20.823  0.00  0.00    +0.000 HD
ATOM      3  H   UNL     1       4.754   3.231 -19.272  0.00  0.00    +0.000 HD
ENDROOT
BRANCH   1   4
ATOM      4  C   UNL     1       3.104   3.921 -20.488  0.00  0.00    +0.000 C 
ATOM      5  H   UNL     1       2.638   3.020 -20.072  0.00  0.00    +0.000 HD
ATOM      6  H   UNL     1       3.103   3.813 -21.580  0.00  0.00    +0.000 HD
BRANCH   4   7
ATOM      7  C   UNL     1       2.280   5.151 -20.098  0.00  0.00    +0.000 C 
ATOM      8  H   UNL     1       2.784   5.682 -19.281  0.00  0.00    +0.000 HD
ATOM      9  H   UNL     1       2.240   5.842 -20.949  0.00  0.00    +0.000 HD
BRANCH   7  10
ATOM     10  C   UNL     1       0.851   4.811 -19.666  0.00  0.00    +0.000 C 
ATOM     11  H   UNL     1       0.671   5.217 -18.662  0.00  0.00    +0.000 HD
ATOM     12  H   UNL     1       0.144   5.318 -20.334  0.00  0.00    +0.000 HD
BRANCH  10  13
ATOM     13  C   UNL     1       0.560   3.312 -19.660  0.00  0.00    +0.000 C 
ATOM     14  H   UNL     1       1.461   2.747 -19.920  0.00  0.00    +0.000 HD
ATOM     15  H   UNL     1       0.230   2.994 -18.666  0.00  0.00    +0.000 HD
BRANCH  13  17
ATOM     16  O   UNL     1      -0.455   3.097 -21.857  0.00  0.00    +0.000 OA
ATOM     17  C   UNL     1      -0.520   2.928 -20.644  0.00  0.00    +0.000 C 
ATOM     18  H   UNL     1      -1.411   2.457 -20.193  0.00  0.00    +0.000 HD
ENDBRANCH  13  17
ENDBRANCH  10  13
ENDBRANCH   7  10
ENDBRANCH   4   7
ENDBRANCH   1   4
BRANCH   1  19
ATOM     19  C   UNL     1       4.786   5.389 -19.306  0.00  0.00    +0.000 C 
ATOM     20  H   UNL     1       3.843   5.760 -18.886  0.00  0.00    +0.000 HD
ATOM     21  H   UNL     1       5.104   6.118 -20.062  0.00  0.00    +0.000 HD
BRANCH  19  22
ATOM     22  C   UNL     1       5.837   5.332 -18.193  0.00  0.00    +0.000 C 
ATOM     23  H   UNL     1       6.536   6.167 -18.313  0.00  0.00    +0.000 HD
ATOM     24  H   UNL     1       5.337   5.475 -17.227  0.00  0.00    +0.000 HD
BRANCH  22  25
ATOM     25  C   UNL     1       6.618   4.017 -18.162  0.00  0.00    +0.000 C 
ATOM     26  H   UNL     1       6.211   3.327 -18.910  0.00  0.00    +0.000 HD
ATOM     27  H   UNL     1       6.503   3.539 -17.182  0.00  0.00    +0.000 HD
BRANCH  25  28
ATOM     28  C   UNL     1       8.097   4.246 -18.435  0.00  0.00    +0.000 C 
ATOM     29  H   UNL     1       8.370   3.836 -19.413  0.00  0.00    +0.000 HD
ATOM     30  H   UNL     1       8.335   5.314 -18.435  0.00  0.00    +0.000 HD
ATOM     31  H   UNL     1       8.717   3.755 -17.677  0.00  0.00    +0.000 HD
ENDBRANCH  25  28
ENDBRANCH  22  25
ENDBRANCH  19  22
ENDBRANCH   1  19
TORSDOF 9
ENDMDL
MODEL 5
REMARK VINA RESULT:    -3.980     26.264     27.768
REMARK INTER + INTRA:          -6.654
REMARK INTER:                  -6.103
REMARK INTRA:                  -0.552
REMARK UNBOUND:                -0.697
REMARK  Name = 8175
REMARK  9 active torsions:
REMARK  status: ('A' for Active; 'I' for Inactive)
REMARK    1  A    between atoms: C_2  and  C_3
REMARK    2  A    between atoms: C_2  and  C_4
REMARK    3  A    between atoms: C_3  and  C_5
REMARK    4  A    between atoms: C_4  and  C_6
REMARK    5  A    between atoms: C_5  and  C_7
REMARK    6  A    between atoms: C_6  and  C_8
REMARK    7  A    between atoms: C_7  and  C_9
REMARK    8  A    between atoms: C_8  and  C_10
REMARK    9  A    between atoms: C_9  and  C_11
REMARK                            x       y       z     vdW  Elec       q    Type
REMARK                         _______ _______ _______ _____ _____    ______ ____
ROOT
ATOM      1  C   UNL     1      16.730  -4.913  -3.107  0.00  0.00    +0.000 C 
ATOM      2  H   UNL     1      16.348  -4.167  -3.813  0.00  0.00    +0.000 HD
ATOM      3  H   UNL     1      17.738  -4.596  -2.813  0.00  0.00    +0.000 HD
ENDROOT
BRANCH   1   4
ATOM      4  C   UNL     1      16.799  -6.282  -3.789  0.00  0.00    +0.000 C 
ATOM      5  H   UNL     1      15.937  -6.408  -4.456  0.00  0.00    +0.000 HD
ATOM      6  H   UNL     1      16.740  -7.074  -3.032  0.00  0.00    +0.000 HD
BRANCH   4   7
ATOM      7  C   UNL     1      18.094  -6.437  -4.589  0.00  0.00    +0.000 C 
ATOM      8  H   UNL     1      18.383  -7.495  -4.611  0.00  0.00    +0.000 HD
ATOM      9  H   UNL     1      17.913  -6.135  -5.629  0.00  0.00    +0.000 HD
BRANCH   7  10
ATOM     10  C   UNL     1      19.256  -5.613  -4.028  0.00  0.00    +0.000 C 
ATOM     11  H   UNL     1      19.459  -4.770  -4.701  0.00  0.00    +0.000 HD
ATOM     12  H   UNL     1      18.955  -5.175  -3.068  0.00  0.00    +0.000 HD
BRANCH  10  13
ATOM     13  C   UNL     1      20.536  -6.423  -3.839  0.00  0.00    +0.000 C 
ATOM     14  H   UNL     1      20.666  -6.693  -2.786  0.00  0.00    +0.000 HD
ATOM     15  H   UNL     1      20.492  -7.346  -4.427  0.00  0.00    +0.000 HD
BRANCH  13  17
ATOM     16  O   UNL     1      22.541  -6.028  -5.152  0.00  0.00    +0.000 OA
ATOM     17  C   UNL     1      21.769  -5.665  -4.272  0.00  0.00    +0.000 C 
ATOM     18  H   UNL     1      21.943  -4.716  -3.734  0.00  0.00    +0.000 HD
ENDBRANCH  13  17
ENDBRANCH  10  13
ENDBRANCH   7  10
ENDBRANCH   4   7
ENDBRANCH   1   4
BRANCH   1  19
ATOM     19  C   UNL     1      15.830  -4.956  -1.869  0.00  0.00    +0.000 C 
ATOM     20  H   UNL     1      14.974  -4.285  -2.016  0.00  0.00    +0.000 HD
ATOM     21  H   UNL     1      16.389  -4.571  -1.007  0.00  0.00    +0.000 HD
BRANCH  19  22
ATOM     22  C   UNL     1      15.310  -6.359  -1.544  0.00  0.00    +0.000 C 
ATOM     23  H   UNL     1      14.215  -6.361  -1.605  0.00  0.00    +0.000 HD
ATOM     24  H   UNL     1      15.671  -7.057  -2.310  0.00  0.00    +0.000 HD
BRANCH  22  25
ATOM     25  C   UNL     1      15.742  -6.863  -0.166  0.00  0.00    +0.000 C 
ATOM     26  H   UNL     1      15.181  -7.770   0.089  0.00  0.00    +0.000 HD
ATOM     27  H   UNL     1      15.506  -6.109   0.595  0.00  0.00    +0.000 HD
BRANCH  25  28
ATOM     28  C   UNL     1      17.233  -7.160  -0.127  0.00  0.00    +0.000 C 
ATOM     29  H   UNL     1      17.666  -6.802   0.813  0.00  0.00    +0.000 HD
ATOM     30  H   UNL     1      17.420  -8.236  -0.200  0.00  0.00    +0.000 HD
ATOM     31  H   UNL     1      17.754  -6.663  -0.951  0.00  0.00    +0.000 HD
ENDBRANCH  25  28
ENDBRANCH  22  25
ENDBRANCH  19  22
ENDBRANCH   1  19
TORSDOF 9
ENDMDL
MODEL 6
REMARK VINA RESULT:    -3.973     26.723     28.278
REMARK INTER + INTRA:          -6.645
REMARK INTER:                  -5.893
REMARK INTRA:                  -0.752
REMARK UNBOUND:                -0.697
REMARK  Name = 8175
REMARK  9 active torsions:
REMARK  status: ('A' for Active; 'I' for Inactive)
REMARK    1  A    between atoms: C_2  and  C_3
REMARK    2  A    between atoms: C_2  and  C_4
REMARK    3  A    between atoms: C_3  and  C_5
REMARK    4  A    between atoms: C_4  and  C_6
REMARK    5  A    between atoms: C_5  and  C_7
REMARK    6  A    between atoms: C_6  and  C_8
REMARK    7  A    between atoms: C_7  and  C_9
REMARK    8  A    between atoms: C_8  and  C_10
REMARK    9  A    between atoms: C_9  and  C_11
REMARK                            x       y       z     vdW  Elec       q    Type
REMARK                         _______ _______ _______ _____ _____    ______ ____
ROOT
ATOM      1  C   UNL     1      19.119  -6.301  -3.692  0.00  0.00    +0.000 C 
ATOM      2  H   UNL     1      19.083  -6.320  -2.597  0.00  0.00    +0.000 HD
ATOM      3  H   UNL     1      19.472  -7.286  -4.023  0.00  0.00    +0.000 HD
ENDROOT
BRANCH   1   4
ATOM      4  C   UNL     1      20.098  -5.220  -4.159  0.00  0.00    +0.000 C 
ATOM      5  H   UNL     1      20.162  -5.225  -5.254  0.00  0.00    +0.000 HD
ATOM      6  H   UNL     1      21.101  -5.441  -3.775  0.00  0.00    +0.000 HD
BRANCH   4   7
ATOM      7  C   UNL     1      19.663  -3.834  -3.677  0.00  0.00    +0.000 C 
ATOM      8  H   UNL     1      20.146  -3.067  -4.294  0.00  0.00    +0.000 HD
ATOM      9  H   UNL     1      18.581  -3.725  -3.825  0.00  0.00    +0.000 HD
BRANCH   7  10
ATOM     10  C   UNL     1      19.991  -3.573  -2.205  0.00  0.00    +0.000 C 
ATOM     11  H   UNL     1      20.325  -4.509  -1.738  0.00  0.00    +0.000 HD
ATOM     12  H   UNL     1      20.839  -2.879  -2.144  0.00  0.00    +0.000 HD
BRANCH  10  13
ATOM     13  C   UNL     1      18.814  -3.010  -1.413  0.00  0.00    +0.000 C 
ATOM     14  H   UNL     1      18.394  -2.136  -1.920  0.00  0.00    +0.000 HD
ATOM     15  H   UNL     1      18.025  -3.763  -1.318  0.00  0.00    +0.000 HD
BRANCH  13  17
ATOM     16  O   UNL     1      18.784  -3.092   1.015  0.00  0.00    +0.000 OA
ATOM     17  C   UNL     1      19.207  -2.584  -0.017  0.00  0.00    +0.000 C 
ATOM     18  H   UNL     1      19.935  -1.755   0.026  0.00  0.00    +0.000 HD
ENDBRANCH  13  17
ENDBRANCH  10  13
ENDBRANCH   7  10
ENDBRANCH   4   7
ENDBRANCH   1   4
BRANCH   1  19
ATOM     19  C   UNL     1      17.715  -6.053  -4.248  0.00  0.00    +0.000 C 
ATOM     20  H   UNL     1      17.527  -6.737  -5.085  0.00  0.00    +0.000 HD
ATOM     21  H   UNL     1      17.665  -5.035  -4.654  0.00  0.00    +0.000 HD
BRANCH  19  22
ATOM     22  C   UNL     1      16.608  -6.231  -3.204  0.00  0.00    +0.000 C 
ATOM     23  H   UNL     1      15.802  -6.838  -3.633  0.00  0.00    +0.000 HD
ATOM     24  H   UNL     1      17.010  -6.794  -2.354  0.00  0.00    +0.000 HD
BRANCH  22  25
ATOM     25  C   UNL     1      16.031  -4.907  -2.700  0.00  0.00    +0.000 C 
ATOM     26  H   UNL     1      15.124  -4.659  -3.263  0.00  0.00    +0.000 HD
ATOM     27  H   UNL     1      16.752  -4.098  -2.871  0.00  0.00    +0.000 HD
BRANCH  25  28
ATOM     28  C   UNL     1      15.703  -4.976  -1.216  0.00  0.00    +0.000 C 
ATOM     29  H   UNL     1      16.501  -4.506  -0.630  0.00  0.00    +0.000 HD
ATOM     30  H   UNL     1      14.767  -4.453  -0.996  0.00  0.00    +0.000 HD
ATOM     31  H   UNL     1      15.605  -6.014  -0.883  0.00  0.00    +0.000 HD
ENDBRANCH  25  28
ENDBRANCH  22  25
ENDBRANCH  19  22
ENDBRANCH   1  19
TORSDOF 9
ENDMDL
MODEL 7
REMARK VINA RESULT:    -3.956      1.828      4.329
REMARK INTER + INTRA:          -6.619
REMARK INTER:                  -6.180
REMARK INTRA:                  -0.438
REMARK UNBOUND:                -0.697
REMARK  Name = 8175
REMARK  9 active torsions:
REMARK  status: ('A' for Active; 'I' for Inactive)
REMARK    1  A    between atoms: C_2  and  C_3
REMARK    2  A    between atoms: C_2  and  C_4
REMARK    3  A    between atoms: C_3  and  C_5
REMARK    4  A    between atoms: C_4  and  C_6
REMARK    5  A    between atoms: C_5  and  C_7
REMARK    6  A    between atoms: C_6  and  C_8
REMARK    7  A    between atoms: C_7  and  C_9
REMARK    8  A    between atoms: C_8  and  C_10
REMARK    9  A    between atoms: C_9  and  C_11
REMARK                            x       y       z     vdW  Elec       q    Type
REMARK                         _______ _______ _______ _____ _____    ______ ____
ROOT
ATOM      1  C   UNL     1      -7.428 -14.113   3.249  0.00  0.00    +0.000 C 
ATOM      2  H   UNL     1      -6.753 -14.960   3.420  0.00  0.00    +0.000 HD
ATOM      3  H   UNL     1      -8.452 -14.483   3.378  0.00  0.00    +0.000 HD
ENDROOT
BRANCH   1   4
ATOM      4  C   UNL     1      -7.246 -13.587   1.822  0.00  0.00    +0.000 C 
ATOM      5  H   UNL     1      -6.334 -12.981   1.764  0.00  0.00    +0.000 HD
ATOM      6  H   UNL     1      -8.087 -12.933   1.561  0.00  0.00    +0.000 HD
BRANCH   4   7
ATOM      7  C   UNL     1      -7.162 -14.737   0.815  0.00  0.00    +0.000 C 
ATOM      8  H   UNL     1      -7.495 -15.665   1.295  0.00  0.00    +0.000 HD
ATOM      9  H   UNL     1      -7.856 -14.541  -0.013  0.00  0.00    +0.000 HD
BRANCH   7  10
ATOM     10  C   UNL     1      -5.756 -14.944   0.247  0.00  0.00    +0.000 C 
ATOM     11  H   UNL     1      -5.834 -15.385  -0.755  0.00  0.00    +0.000 HD
ATOM     12  H   UNL     1      -5.273 -13.968   0.117  0.00  0.00    +0.000 HD
BRANCH  10  13
ATOM     13  C   UNL     1      -4.876 -15.836   1.119  0.00  0.00    +0.000 C 
ATOM     14  H   UNL     1      -5.494 -16.484   1.749  0.00  0.00    +0.000 HD
ATOM     15  H   UNL     1      -4.241 -16.472   0.493  0.00  0.00    +0.000 HD
BRANCH  13  17
ATOM     16  O   UNL     1      -3.902 -15.181   3.246  0.00  0.00    +0.000 OA
ATOM     17  C   UNL     1      -3.969 -15.042   2.030  0.00  0.00    +0.000 C 
ATOM     18  H   UNL     1      -3.333 -14.299   1.517  0.00  0.00    +0.000 HD
ENDBRANCH  13  17
ENDBRANCH  10  13
ENDBRANCH   7  10
ENDBRANCH   4   7
ENDBRANCH   1   4
BRANCH   1  19
ATOM     19  C   UNL     1      -7.149 -13.019   4.282  0.00  0.00    +0.000 C 
ATOM     20  H   UNL     1      -7.410 -12.042   3.858  0.00  0.00    +0.000 HD
ATOM     21  H   UNL     1      -6.073 -12.994   4.496  0.00  0.00    +0.000 HD
BRANCH  19  22
ATOM     22  C   UNL     1      -7.916 -13.212   5.594  0.00  0.00    +0.000 C 
ATOM     23  H   UNL     1      -7.238 -13.035   6.437  0.00  0.00    +0.000 HD
ATOM     24  H   UNL     1      -8.705 -12.452   5.658  0.00  0.00    +0.000 HD
BRANCH  22  25
ATOM     25  C   UNL     1      -8.546 -14.599   5.731  0.00  0.00    +0.000 C 
ATOM     26  H   UNL     1      -8.253 -15.225   4.880  0.00  0.00    +0.000 HD
ATOM     27  H   UNL     1      -9.639 -14.514   5.712  0.00  0.00    +0.000 HD
BRANCH  25  28
ATOM     28  C   UNL     1      -8.121 -15.274   7.027  0.00  0.00    +0.000 C 
ATOM     29  H   UNL     1      -8.570 -14.761   7.885  0.00  0.00    +0.000 HD
ATOM     30  H   UNL     1      -8.445 -16.319   7.049  0.00  0.00    +0.000 HD
ATOM     31  H   UNL     1      -7.034 -15.247   7.146  0.00  0.00    +0.000 HD
ENDBRANCH  25  28
ENDBRANCH  22  25
ENDBRANCH  19  22
ENDBRANCH   1  19
TORSDOF 9
ENDMDL
MODEL 8
REMARK VINA RESULT:    -3.924      1.095      1.802
REMARK INTER + INTRA:          -6.571
REMARK INTER:                  -5.760
REMARK INTRA:                  -0.811
REMARK UNBOUND:                -0.697
REMARK  Name = 8175
REMARK  9 active torsions:
REMARK  status: ('A' for Active; 'I' for Inactive)
REMARK    1  A    between atoms: C_2  and  C_3
REMARK    2  A    between atoms: C_2  and  C_4
REMARK    3  A    between atoms: C_3  and  C_5
REMARK    4  A    between atoms: C_4  and  C_6
REMARK    5  A    between atoms: C_5  and  C_7
REMARK    6  A    between atoms: C_6  and  C_8
REMARK    7  A    between atoms: C_7  and  C_9
REMARK    8  A    between atoms: C_8  and  C_10
REMARK    9  A    between atoms: C_9  and  C_11
REMARK                            x       y       z     vdW  Elec       q    Type
REMARK                         _______ _______ _______ _____ _____    ______ ____
ROOT
ATOM      1  C   UNL     1      -7.875 -14.105   6.619  0.00  0.00    +0.000 C 
ATOM      2  H   UNL     1      -6.788 -14.235   6.668  0.00  0.00    +0.000 HD
ATOM      3  H   UNL     1      -8.197 -13.690   7.581  0.00  0.00    +0.000 HD
ENDROOT
BRANCH   1   4
ATOM      4  C   UNL     1      -8.547 -15.463   6.393  0.00  0.00    +0.000 C 
ATOM      5  H   UNL     1      -9.360 -15.359   5.664  0.00  0.00    +0.000 HD
ATOM      6  H   UNL     1      -8.997 -15.812   7.331  0.00  0.00    +0.000 HD
BRANCH   4   7
ATOM      7  C   UNL     1      -7.541 -16.503   5.894  0.00  0.00    +0.000 C 
ATOM      8  H   UNL     1      -7.739 -17.464   6.383  0.00  0.00    +0.000 HD
ATOM      9  H   UNL     1      -7.687 -16.657   4.818  0.00  0.00    +0.000 HD
BRANCH   7  10
ATOM     10  C   UNL     1      -6.084 -16.105   6.146  0.00  0.00    +0.000 C 
ATOM     11  H   UNL     1      -5.821 -15.264   5.492  0.00  0.00    +0.000 HD
ATOM     12  H   UNL     1      -5.984 -15.739   7.174  0.00  0.00    +0.000 HD
BRANCH  10  13
ATOM     13  C   UNL     1      -5.096 -17.246   5.913  0.00  0.00    +0.000 C 
ATOM     14  H   UNL     1      -5.449 -18.162   6.399  0.00  0.00    +0.000 HD
ATOM     15  H   UNL     1      -4.992 -17.446   4.841  0.00  0.00    +0.000 HD
BRANCH  13  17
ATOM     16  O   UNL     1      -2.966 -16.084   6.010  0.00  0.00    +0.000 OA
ATOM     17  C   UNL     1      -3.720 -16.941   6.456  0.00  0.00    +0.000 C 
ATOM     18  H   UNL     1      -3.418 -17.554   7.324  0.00  0.00    +0.000 HD
ENDBRANCH  13  17
ENDBRANCH  10  13
ENDBRANCH   7  10
ENDBRANCH   4   7
ENDBRANCH   1   4
BRANCH   1  19
ATOM     19  C   UNL     1      -8.225 -13.122   5.499  0.00  0.00    +0.000 C 
ATOM     20  H   UNL     1      -8.450 -12.140   5.932  0.00  0.00    +0.000 HD
ATOM     21  H   UNL     1      -9.139 -13.463   4.996  0.00  0.00    +0.000 HD
BRANCH  19  22
ATOM     22  C   UNL     1      -7.111 -12.963   4.460  0.00  0.00    +0.000 C 
ATOM     23  H   UNL     1      -6.975 -11.897   4.238  0.00  0.00    +0.000 HD
ATOM     24  H   UNL     1      -6.168 -13.317   4.894  0.00  0.00    +0.000 HD
BRANCH  22  25
ATOM     25  C   UNL     1      -7.380 -13.721   3.159  0.00  0.00    +0.000 C 
ATOM     26  H   UNL     1      -7.607 -13.011   2.356  0.00  0.00    +0.000 HD
ATOM     27  H   UNL     1      -8.258 -14.367   3.281  0.00  0.00    +0.000 HD
BRANCH  25  28
ATOM     28  C   UNL     1      -6.186 -14.575   2.760  0.00  0.00    +0.000 C 
ATOM     29  H   UNL     1      -5.718 -14.171   1.856  0.00  0.00    +0.000 HD
ATOM     30  H   UNL     1      -5.434 -14.593   3.554  0.00  0.00    +0.000 HD
ATOM     31  H   UNL     1      -6.492 -15.605   2.551  0.00  0.00    +0.000 HD
ENDBRANCH  25  28
ENDBRANCH  22  25
ENDBRANCH  19  22
ENDBRANCH   1  19
TORSDOF 9
ENDMDL
MODEL 9
REMARK VINA RESULT:    -3.891     28.383     30.001
REMARK INTER + INTRA:          -6.523
REMARK INTER:                  -5.706
REMARK INTRA:                  -0.816
REMARK UNBOUND:                -0.697
REMARK  Name = 8175
REMARK  9 active torsions:
REMARK  status: ('A' for Active; 'I' for Inactive)
REMARK    1  A    between atoms: C_2  and  C_3
REMARK    2  A    between atoms: C_2  and  C_4
REMARK    3  A    between atoms: C_3  and  C_5
REMARK    4  A    between atoms: C_4  and  C_6
REMARK    5  A    between atoms: C_5  and  C_7
REMARK    6  A    between atoms: C_6  and  C_8
REMARK    7  A    between atoms: C_7  and  C_9
REMARK    8  A    between atoms: C_8  and  C_10
REMARK    9  A    between atoms: C_9  and  C_11
REMARK                            x       y       z     vdW  Elec       q    Type
REMARK                         _______ _______ _______ _____ _____    ______ ____
ROOT
ATOM      1  C   UNL     1      15.193   3.220  -0.099  0.00  0.00    +0.000 C 
ATOM      2  H   UNL     1      15.723   2.266  -0.202  0.00  0.00    +0.000 HD
ATOM      3  H   UNL     1      14.909   3.545  -1.108  0.00  0.00    +0.000 HD
ENDROOT
BRANCH   1   4
ATOM      4  C   UNL     1      16.122   4.261   0.534  0.00  0.00    +0.000 C 
ATOM      5  H   UNL     1      17.115   3.823   0.694  0.00  0.00    +0.000 HD
ATOM      6  H   UNL     1      15.734   4.551   1.518  0.00  0.00    +0.000 HD
BRANCH   4   7
ATOM      7  C   UNL     1      16.246   5.503  -0.351  0.00  0.00    +0.000 C 
ATOM      8  H   UNL     1      15.770   6.355   0.150  0.00  0.00    +0.000 HD
ATOM      9  H   UNL     1      17.307   5.757  -0.469  0.00  0.00    +0.000 HD
BRANCH   7  10
ATOM     10  C   UNL     1      15.621   5.325  -1.737  0.00  0.00    +0.000 C 
ATOM     11  H   UNL     1      16.418   5.296  -2.491  0.00  0.00    +0.000 HD
ATOM     12  H   UNL     1      15.118   4.352  -1.782  0.00  0.00    +0.000 HD
BRANCH  10  13
ATOM     13  C   UNL     1      14.629   6.428  -2.100  0.00  0.00    +0.000 C 
ATOM     14  H   UNL     1      13.791   6.016  -2.672  0.00  0.00    +0.000 HD
ATOM     15  H   UNL     1      14.228   6.892  -1.192  0.00  0.00    +0.000 HD
BRANCH  13  17
ATOM     16  O   UNL     1      14.635   8.327  -3.615  0.00  0.00    +0.000 OA
ATOM     17  C   UNL     1      15.257   7.521  -2.932  0.00  0.00    +0.000 C 
ATOM     18  H   UNL     1      16.360   7.564  -2.883  0.00  0.00    +0.000 HD
ENDBRANCH  13  17
ENDBRANCH  10  13
ENDBRANCH   7  10
ENDBRANCH   4   7
ENDBRANCH   1   4
BRANCH   1  19
ATOM     19  C   UNL     1      13.932   3.019   0.744  0.00  0.00    +0.000 C 
ATOM     20  H   UNL     1      14.176   3.156   1.804  0.00  0.00    +0.000 HD
ATOM     21  H   UNL     1      13.587   1.984   0.630  0.00  0.00    +0.000 HD
BRANCH  19  22
ATOM     22  C   UNL     1      12.792   3.971   0.369  0.00  0.00    +0.000 C 
ATOM     23  H   UNL     1      12.894   4.259  -0.684  0.00  0.00    +0.000 HD
ATOM     24  H   UNL     1      11.839   3.436   0.460  0.00  0.00    +0.000 HD
BRANCH  22  25
ATOM     25  C   UNL     1      12.743   5.230   1.237  0.00  0.00    +0.000 C 
ATOM     26  H   UNL     1      11.839   5.805   1.005  0.00  0.00    +0.000 HD
ATOM     27  H   UNL     1      13.604   5.871   1.010  0.00  0.00    +0.000 HD
BRANCH  25  28
ATOM     28  C   UNL     1      12.757   4.883   2.718  0.00  0.00    +0.000 C 
ATOM     29  H   UNL     1      12.300   3.901   2.881  0.00  0.00    +0.000 HD
ATOM     30  H   UNL     1      13.781   4.850   3.103  0.00  0.00    +0.000 HD
ATOM     31  H   UNL     1      12.194   5.620   3.300  0.00  0.00    +0.000 HD
ENDBRANCH  25  28
ENDBRANCH  22  25
ENDBRANCH  19  22
ENDBRANCH   1  19
TORSDOF 9
ENDMDL
MODEL 10
REMARK VINA RESULT:    -3.783      1.803      2.608
REMARK INTER + INTRA:          -6.360
REMARK INTER:                  -5.662
REMARK INTRA:                  -0.697
REMARK UNBOUND:                -0.697
REMARK  Name = 8175
REMARK  9 active torsions:
REMARK  status: ('A' for Active; 'I' for Inactive)
REMARK    1  A    between atoms: C_2  and  C_3
REMARK    2  A    between atoms: C_2  and  C_4
REMARK    3  A    between atoms: C_3  and  C_5
REMARK    4  A    between atoms: C_4  and  C_6
REMARK    5  A    between atoms: C_5  and  C_7
REMARK    6  A    between atoms: C_6  and  C_8
REMARK    7  A    between atoms: C_7  and  C_9
REMARK    8  A    between atoms: C_8  and  C_10
REMARK    9  A    between atoms: C_9  and  C_11
REMARK                            x       y       z     vdW  Elec       q    Type
REMARK                         _______ _______ _______ _____ _____    ______ ____
ROOT
ATOM      1  C   UNL     1      -8.171 -13.084   5.203  0.00  0.00    +0.000 C 
ATOM      2  H   UNL     1      -8.804 -12.190   5.258  0.00  0.00    +0.000 HD
ATOM      3  H   UNL     1      -8.759 -13.868   4.711  0.00  0.00    +0.000 HD
ENDROOT
BRANCH   1   4
ATOM      4  C   UNL     1      -7.791 -13.534   6.616  0.00  0.00    +0.000 C 
ATOM      5  H   UNL     1      -8.316 -12.918   7.356  0.00  0.00    +0.000 HD
ATOM      6  H   UNL     1      -6.716 -13.384   6.774  0.00  0.00    +0.000 HD
BRANCH   4   7
ATOM      7  C   UNL     1      -8.137 -15.008   6.839  0.00  0.00    +0.000 C 
ATOM      8  H   UNL     1      -7.258 -15.533   7.233  0.00  0.00    +0.000 HD
ATOM      9  H   UNL     1      -8.920 -15.083   7.604  0.00  0.00    +0.000 HD
BRANCH   7  10
ATOM     10  C   UNL     1      -8.614 -15.718   5.569  0.00  0.00    +0.000 C 
ATOM     11  H   UNL     1      -9.001 -14.971   4.863  0.00  0.00    +0.000 HD
ATOM     12  H   UNL     1      -7.756 -16.191   5.077  0.00  0.00    +0.000 HD
BRANCH  10  13
ATOM     13  C   UNL     1      -9.693 -16.766   5.830  0.00  0.00    +0.000 C 
ATOM     14  H   UNL     1     -10.338 -16.454   6.658  0.00  0.00    +0.000 HD
ATOM     15  H   UNL     1     -10.319 -16.897   4.940  0.00  0.00    +0.000 HD
BRANCH  13  17
ATOM     16  O   UNL     1      -7.951 -18.450   5.997  0.00  0.00    +0.000 OA
ATOM     17  C   UNL     1      -9.115 -18.116   6.184  0.00  0.00    +0.000 C 
ATOM     18  H   UNL     1      -9.829 -18.817   6.650  0.00  0.00    +0.000 HD
ENDBRANCH  13  17
ENDBRANCH  10  13
ENDBRANCH   7  10
ENDBRANCH   4   7
ENDBRANCH   1   4
BRANCH   1  19
ATOM     19  C   UNL     1      -6.927 -12.781   4.365  0.00  0.00    +0.000 C 
ATOM     20  H   UNL     1      -6.028 -12.978   4.962  0.00  0.00    +0.000 HD
ATOM     21  H   UNL     1      -6.914 -11.712   4.117  0.00  0.00    +0.000 HD
BRANCH  19  22
ATOM     22  C   UNL     1      -6.852 -13.597   3.071  0.00  0.00    +0.000 C 
ATOM     23  H   UNL     1      -7.700 -14.291   3.033  0.00  0.00    +0.000 HD
ATOM     24  H   UNL     1      -6.961 -12.918   2.217  0.00  0.00    +0.000 HD
BRANCH  22  25
ATOM     25  C   UNL     1      -5.547 -14.382   2.923  0.00  0.00    +0.000 C 
ATOM     26  H   UNL     1      -4.822 -13.790   2.352  0.00  0.00    +0.000 HD
ATOM     27  H   UNL     1      -5.731 -15.304   2.359  0.00  0.00    +0.000 HD
BRANCH  25  28
ATOM     28  C   UNL     1      -4.957 -14.736   4.279  0.00  0.00    +0.000 C 
ATOM     29  H   UNL     1      -4.440 -13.870   4.705  0.00  0.00    +0.000 HD
ATOM     30  H   UNL     1      -5.740 -15.044   4.979  0.00  0.00    +0.000 HD
ATOM     31  H   UNL     1      -4.233 -15.553   4.191  0.00  0.00    +0.000 HD
ENDBRANCH  25  28
ENDBRANCH  22  25
ENDBRANCH  19  22
ENDBRANCH   1  19
TORSDOF 9
ENDMDL
