MODEL 1
REMARK VINA RESULT:    -1.935      0.000      0.000
REMARK INTER + INTRA:          -2.161
REMARK INTER:                  -2.161
REMARK INTRA:                   0.000
REMARK UNBOUND:                 0.000
REMARK  Name = 12232
REMARK  3 active torsions:
REMARK  status: ('A' for Active; 'I' for Inactive)
REMARK    1  A    between atoms: S_1  and  S_2
REMARK    2  A    between atoms: S_1  and  C_3
REMARK    3  A    between atoms: S_2  and  C_4
REMARK                            x       y       z     vdW  Elec       q    Type
REMARK                         _______ _______ _______ _____ _____    ______ ____
ROOT
ATOM      1  S   UNL     1       3.275  -4.598 -12.470  0.00  0.00    +0.000 S 
ENDROOT
BRANCH   1   2
ATOM      2  C   UNL     1       5.002  -4.238 -12.073  0.00  0.00    +0.000 C 
ATOM      3  H   UNL     1       5.655  -4.508 -12.908  0.00  0.00    +0.000 HD
ATOM      4  H   UNL     1       5.298  -4.829 -11.202  0.00  0.00    +0.000 HD
ATOM      5  H   UNL     1       5.129  -3.180 -11.828  0.00  0.00    +0.000 HD
ENDBRANCH   1   2
BRANCH   1   6
ATOM      6  S   UNL     1       3.378  -4.972 -14.489  0.00  0.00    +0.000 S 
BRANCH   6   7
ATOM      7  C   UNL     1       1.791  -5.782 -14.796  0.00  0.00    +0.000 C 
ATOM      8  H   UNL     1       1.771  -6.777 -14.343  0.00  0.00    +0.000 HD
ATOM      9  H   UNL     1       1.650  -5.894 -15.875  0.00  0.00    +0.000 HD
ATOM     10  H   UNL     1       0.968  -5.179 -14.404  0.00  0.00    +0.000 HD
ENDBRANCH   6   7
ENDBRANCH   1   6
TORSDOF 3
ENDMDL
MODEL 2
REMARK VINA RESULT:    -1.852     11.946     12.625
REMARK INTER + INTRA:          -2.069
REMARK INTER:                  -2.069
REMARK INTRA:                   0.000
REMARK UNBOUND:                 0.000
REMARK  Name = 12232
REMARK  3 active torsions:
REMARK  status: ('A' for Active; 'I' for Inactive)
REMARK    1  A    between atoms: S_1  and  S_2
REMARK    2  A    between atoms: S_1  and  C_3
REMARK    3  A    between atoms: S_2  and  C_4
REMARK                            x       y       z     vdW  Elec       q    Type
REMARK                         _______ _______ _______ _____ _____    ______ ____
ROOT
ATOM      1  S   UNL     1      -0.391   1.844 -21.940  0.00  0.00    +0.000 S 
ENDROOT
BRANCH   1   2
ATOM      2  C   UNL     1      -0.390   2.917 -20.484  0.00  0.00    +0.000 C 
ATOM      3  H   UNL     1      -1.225   3.622 -20.523  0.00  0.00    +0.000 HD
ATOM      4  H   UNL     1       0.542   3.489 -20.464  0.00  0.00    +0.000 HD
ATOM      5  H   UNL     1      -0.447   2.323 -19.568  0.00  0.00    +0.000 HD
ENDBRANCH   1   2
BRANCH   1   6
ATOM      6  S   UNL     1      -0.795   3.183 -23.447  0.00  0.00    +0.000 S 
BRANCH   6   7
ATOM      7  C   UNL     1      -0.501   4.766 -22.622  0.00  0.00    +0.000 C 
ATOM      8  H   UNL     1      -0.353   4.621 -21.548  0.00  0.00    +0.000 HD
ATOM      9  H   UNL     1      -1.373   5.409 -22.763  0.00  0.00    +0.000 HD
ATOM     10  H   UNL     1       0.370   5.269 -23.052  0.00  0.00    +0.000 HD
ENDBRANCH   6   7
ENDBRANCH   1   6
TORSDOF 3
ENDMDL
MODEL 3
REMARK VINA RESULT:    -1.847     12.116     12.873
REMARK INTER + INTRA:          -2.062
REMARK INTER:                  -2.062
REMARK INTRA:                   0.000
REMARK UNBOUND:                 0.000
REMARK  Name = 12232
REMARK  3 active torsions:
REMARK  status: ('A' for Active; 'I' for Inactive)
REMARK    1  A    between atoms: S_1  and  S_2
REMARK    2  A    between atoms: S_1  and  C_3
REMARK    3  A    between atoms: S_2  and  C_4
REMARK                            x       y       z     vdW  Elec       q    Type
REMARK                         _______ _______ _______ _____ _____    ______ ____
ROOT
ATOM      1  S   UNL     1      -0.684   3.537 -23.405  0.00  0.00    +0.000 S 
ENDROOT
BRANCH   1   2
ATOM      2  C   UNL     1      -0.447   5.029 -22.412  0.00  0.00    +0.000 C 
ATOM      3  H   UNL     1      -0.780   4.865 -21.383  0.00  0.00    +0.000 HD
ATOM      4  H   UNL     1      -1.042   5.841 -22.839  0.00  0.00    +0.000 HD
ATOM      5  H   UNL     1       0.603   5.334 -22.419  0.00  0.00    +0.000 HD
ENDBRANCH   1   2
BRANCH   1   6
ATOM      6  S   UNL     1      -1.072   2.128 -21.959  0.00  0.00    +0.000 S 
BRANCH   6   7
ATOM      7  C   UNL     1      -0.403   2.925 -20.480  0.00  0.00    +0.000 C 
ATOM      8  H   UNL     1      -0.993   2.661 -19.598  0.00  0.00    +0.000 HD
ATOM      9  H   UNL     1      -0.447   4.010 -20.608  0.00  0.00    +0.000 HD
ATOM     10  H   UNL     1       0.641   2.639 -20.327  0.00  0.00    +0.000 HD
ENDBRANCH   6   7
ENDBRANCH   1   6
TORSDOF 3
ENDMDL
MODEL 4
REMARK VINA RESULT:    -1.822     12.040     12.634
REMARK INTER + INTRA:          -2.035
REMARK INTER:                  -2.035
REMARK INTRA:                   0.000
REMARK UNBOUND:                 0.000
REMARK  Name = 12232
REMARK  3 active torsions:
REMARK  status: ('A' for Active; 'I' for Inactive)
REMARK    1  A    between atoms: S_1  and  S_2
REMARK    2  A    between atoms: S_1  and  C_3
REMARK    3  A    between atoms: S_2  and  C_4
REMARK                            x       y       z     vdW  Elec       q    Type
REMARK                         _______ _______ _______ _____ _____    ______ ____
ROOT
ATOM      1  S   UNL     1      -0.300   1.864 -22.445  0.00  0.00    +0.000 S 
ENDROOT
BRANCH   1   2
ATOM      2  C   UNL     1      -0.848   3.103 -23.643  0.00  0.00    +0.000 C 
ATOM      3  H   UNL     1      -1.668   3.700 -23.234  0.00  0.00    +0.000 HD
ATOM      4  H   UNL     1      -1.209   2.595 -24.542  0.00  0.00    +0.000 HD
ATOM      5  H   UNL     1      -0.018   3.756 -23.929  0.00  0.00    +0.000 HD
ENDBRANCH   1   2
BRANCH   1   6
ATOM      6  S   UNL     1      -0.436   2.902 -20.676  0.00  0.00    +0.000 S 
BRANCH   6   7
ATOM      7  C   UNL     1       0.314   4.487 -21.121  0.00  0.00    +0.000 C 
ATOM      8  H   UNL     1       1.328   4.561 -20.720  0.00  0.00    +0.000 HD
ATOM      9  H   UNL     1      -0.283   5.297 -20.691  0.00  0.00    +0.000 HD
ATOM     10  H   UNL     1       0.333   4.613 -22.206  0.00  0.00    +0.000 HD
ENDBRANCH   6   7
ENDBRANCH   1   6
TORSDOF 3
ENDMDL
MODEL 5
REMARK VINA RESULT:    -1.818     11.608     11.971
REMARK INTER + INTRA:          -2.030
REMARK INTER:                  -2.030
REMARK INTRA:                   0.000
REMARK UNBOUND:                 0.000
REMARK  Name = 12232
REMARK  3 active torsions:
REMARK  status: ('A' for Active; 'I' for Inactive)
REMARK    1  A    between atoms: S_1  and  S_2
REMARK    2  A    between atoms: S_1  and  C_3
REMARK    3  A    between atoms: S_2  and  C_4
REMARK                            x       y       z     vdW  Elec       q    Type
REMARK                         _______ _______ _______ _____ _____    ______ ____
ROOT
ATOM      1  S   UNL     1       0.817   5.223 -20.613  0.00  0.00    +0.000 S 
ENDROOT
BRANCH   1   2
ATOM      2  C   UNL     1       0.723   6.303 -19.165  0.00  0.00    +0.000 C 
ATOM      3  H   UNL     1       0.398   5.742 -18.285  0.00  0.00    +0.000 HD
ATOM      4  H   UNL     1      -0.009   7.093 -19.357  0.00  0.00    +0.000 HD
ATOM      5  H   UNL     1       1.691   6.773 -18.971  0.00  0.00    +0.000 HD
ENDBRANCH   1   2
BRANCH   1   6
ATOM      6  S   UNL     1       0.393   3.386 -19.793  0.00  0.00    +0.000 S 
BRANCH   6   7
ATOM      7  C   UNL     1      -0.899   2.777 -20.902  0.00  0.00    +0.000 C 
ATOM      8  H   UNL     1      -1.297   1.823 -20.546  0.00  0.00    +0.000 HD
ATOM      9  H   UNL     1      -0.472   2.620 -21.896  0.00  0.00    +0.000 HD
ATOM     10  H   UNL     1      -1.709   3.508 -20.988  0.00  0.00    +0.000 HD
ENDBRANCH   6   7
ENDBRANCH   1   6
TORSDOF 3
ENDMDL
MODEL 6
REMARK VINA RESULT:    -1.802     16.721     17.101
REMARK INTER + INTRA:          -2.013
REMARK INTER:                  -2.013
REMARK INTRA:                   0.000
REMARK UNBOUND:                 0.000
REMARK  Name = 12232
REMARK  3 active torsions:
REMARK  status: ('A' for Active; 'I' for Inactive)
REMARK    1  A    between atoms: S_1  and  S_2
REMARK    2  A    between atoms: S_1  and  C_3
REMARK    3  A    between atoms: S_2  and  C_4
REMARK                            x       y       z     vdW  Elec       q    Type
REMARK                         _______ _______ _______ _____ _____    ______ ____
ROOT
ATOM      1  S   UNL     1      18.159  -5.916  -3.339  0.00  0.00    +0.000 S 
ENDROOT
BRANCH   1   2
ATOM      2  C   UNL     1      17.682  -6.611  -4.940  0.00  0.00    +0.000 C 
ATOM      3  H   UNL     1      16.618  -6.444  -5.132  0.00  0.00    +0.000 HD
ATOM      4  H   UNL     1      17.864  -7.689  -4.929  0.00  0.00    +0.000 HD
ATOM      5  H   UNL     1      18.279  -6.171  -5.744  0.00  0.00    +0.000 HD
ENDBRANCH   1   2
BRANCH   1   6
ATOM      6  S   UNL     1      16.438  -4.942  -2.777  0.00  0.00    +0.000 S 
BRANCH   6   7
ATOM      7  C   UNL     1      15.343  -6.326  -2.382  0.00  0.00    +0.000 C 
ATOM      8  H   UNL     1      14.329  -6.131  -2.740  0.00  0.00    +0.000 HD
ATOM      9  H   UNL     1      15.303  -6.451  -1.296  0.00  0.00    +0.000 HD
ATOM     10  H   UNL     1      15.721  -7.254  -2.820  0.00  0.00    +0.000 HD
ENDBRANCH   6   7
ENDBRANCH   1   6
TORSDOF 3
ENDMDL
MODEL 7
REMARK VINA RESULT:    -1.782     24.143     24.808
REMARK INTER + INTRA:          -1.990
REMARK INTER:                  -1.990
REMARK INTRA:                   0.000
REMARK UNBOUND:                 0.000
REMARK  Name = 12232
REMARK  3 active torsions:
REMARK  status: ('A' for Active; 'I' for Inactive)
REMARK    1  A    between atoms: S_1  and  S_2
REMARK    2  A    between atoms: S_1  and  C_3
REMARK    3  A    between atoms: S_2  and  C_4
REMARK                            x       y       z     vdW  Elec       q    Type
REMARK                         _______ _______ _______ _____ _____    ______ ____
ROOT
ATOM      1  S   UNL     1      14.982  17.393 -12.174  0.00  0.00    +0.000 S 
ENDROOT
BRANCH   1   2
ATOM      2  C   UNL     1      15.696  17.666 -10.534  0.00  0.00    +0.000 C 
ATOM      3  H   UNL     1      16.785  17.735 -10.594  0.00  0.00    +0.000 HD
ATOM      4  H   UNL     1      15.441  16.820  -9.889  0.00  0.00    +0.000 HD
ATOM      5  H   UNL     1      15.289  18.575 -10.083  0.00  0.00    +0.000 HD
ENDBRANCH   1   2
BRANCH   1   6
ATOM      6  S   UNL     1      13.181  16.519 -11.707  0.00  0.00    +0.000 S 
BRANCH   6   7
ATOM      7  C   UNL     1      12.075  17.950 -11.675  0.00  0.00    +0.000 C 
ATOM      8  H   UNL     1      11.078  17.676 -12.029  0.00  0.00    +0.000 HD
ATOM      9  H   UNL     1      12.473  18.723 -12.338  0.00  0.00    +0.000 HD
ATOM     10  H   UNL     1      12.010  18.364 -10.665  0.00  0.00    +0.000 HD
ENDBRANCH   6   7
ENDBRANCH   1   6
TORSDOF 3
ENDMDL
MODEL 8
REMARK VINA RESULT:    -1.754     19.535     20.123
REMARK INTER + INTRA:          -1.959
REMARK INTER:                  -1.959
REMARK INTRA:                   0.000
REMARK UNBOUND:                 0.000
REMARK  Name = 12232
REMARK  3 active torsions:
REMARK  status: ('A' for Active; 'I' for Inactive)
REMARK    1  A    between atoms: S_1  and  S_2
REMARK    2  A    between atoms: S_1  and  C_3
REMARK    3  A    between atoms: S_2  and  C_4
REMARK                            x       y       z     vdW  Elec       q    Type
REMARK                         _______ _______ _______ _____ _____    ______ ____
ROOT
ATOM      1  S   UNL     1      14.816   7.669  -3.145  0.00  0.00    +0.000 S 
ENDROOT
BRANCH   1   2
ATOM      2  C   UNL     1      16.415   8.478  -2.901  0.00  0.00    +0.000 C 
ATOM      3  H   UNL     1      16.578   9.248  -3.661  0.00  0.00    +0.000 HD
ATOM      4  H   UNL     1      17.210   7.733  -2.992  0.00  0.00    +0.000 HD
ATOM      5  H   UNL     1      16.474   8.922  -1.903  0.00  0.00    +0.000 HD
ENDBRANCH   1   2
BRANCH   1   6
ATOM      6  S   UNL     1      15.202   5.766  -2.469  0.00  0.00    +0.000 S 
BRANCH   6   7
ATOM      7  C   UNL     1      14.134   5.668  -1.014  0.00  0.00    +0.000 C 
ATOM      8  H   UNL     1      13.092   5.862  -1.284  0.00  0.00    +0.000 HD
ATOM      9  H   UNL     1      14.446   6.426  -0.290  0.00  0.00    +0.000 HD
ATOM     10  H   UNL     1      14.217   4.686  -0.539  0.00  0.00    +0.000 HD
ENDBRANCH   6   7
ENDBRANCH   1   6
TORSDOF 3
ENDMDL
MODEL 9
REMARK VINA RESULT:    -1.753     11.646     11.769
REMARK INTER + INTRA:          -1.958
REMARK INTER:                  -1.958
REMARK INTRA:                   0.000
REMARK UNBOUND:                 0.000
REMARK  Name = 12232
REMARK  3 active torsions:
REMARK  status: ('A' for Active; 'I' for Inactive)
REMARK    1  A    between atoms: S_1  and  S_2
REMARK    2  A    between atoms: S_1  and  C_3
REMARK    3  A    between atoms: S_2  and  C_4
REMARK                            x       y       z     vdW  Elec       q    Type
REMARK                         _______ _______ _______ _____ _____    ______ ____
ROOT
ATOM      1  S   UNL     1       0.903   4.101 -21.187  0.00  0.00    +0.000 S 
ENDROOT
BRANCH   1   2
ATOM      2  C   UNL     1       0.845   5.005 -19.621  0.00  0.00    +0.000 C 
ATOM      3  H   UNL     1       1.193   6.033 -19.756  0.00  0.00    +0.000 HD
ATOM      4  H   UNL     1       1.503   4.513 -18.900  0.00  0.00    +0.000 HD
ATOM      5  H   UNL     1      -0.170   5.006 -19.214  0.00  0.00    +0.000 HD
ENDBRANCH   1   2
BRANCH   1   6
ATOM      6  S   UNL     1      -0.756   2.896 -21.036  0.00  0.00    +0.000 S 
BRANCH   6   7
ATOM      7  C   UNL     1      -0.393   1.615 -22.260  0.00  0.00    +0.000 C 
ATOM      8  H   UNL     1      -0.513   0.619 -21.824  0.00  0.00    +0.000 HD
ATOM      9  H   UNL     1       0.644   1.720 -22.590  0.00  0.00    +0.000 HD
ATOM     10  H   UNL     1      -1.043   1.720 -23.133  0.00  0.00    +0.000 HD
ENDBRANCH   6   7
ENDBRANCH   1   6
TORSDOF 3
ENDMDL
MODEL 10
REMARK VINA RESULT:    -1.717     24.320     24.782
REMARK INTER + INTRA:          -1.918
REMARK INTER:                  -1.918
REMARK INTRA:                   0.000
REMARK UNBOUND:                 0.000
REMARK  Name = 12232
REMARK  3 active torsions:
REMARK  status: ('A' for Active; 'I' for Inactive)
REMARK    1  A    between atoms: S_1  and  S_2
REMARK    2  A    between atoms: S_1  and  C_3
REMARK    3  A    between atoms: S_2  and  C_4
REMARK                            x       y       z     vdW  Elec       q    Type
REMARK                         _______ _______ _______ _____ _____    ______ ____
ROOT
ATOM      1  S   UNL     1      12.960  16.781 -11.718  0.00  0.00    +0.000 S 
ENDROOT
BRANCH   1   2
ATOM      2  C   UNL     1      14.587  17.116 -12.432  0.00  0.00    +0.000 C 
ATOM      3  H   UNL     1      14.806  18.187 -12.407  0.00  0.00    +0.000 HD
ATOM      4  H   UNL     1      14.593  16.789 -13.475  0.00  0.00    +0.000 HD
ATOM      5  H   UNL     1      15.364  16.565 -11.895  0.00  0.00    +0.000 HD
ENDBRANCH   1   2
BRANCH   1   6
ATOM      6  S   UNL     1      12.482  18.602 -10.890  0.00  0.00    +0.000 S 
BRANCH   6   7
ATOM      7  C   UNL     1      10.911  18.976 -11.704  0.00  0.00    +0.000 C 
ATOM      8  H   UNL     1      10.990  19.893 -12.294  0.00  0.00    +0.000 HD
ATOM      9  H   UNL     1      10.141  19.125 -10.942  0.00  0.00    +0.000 HD
ATOM     10  H   UNL     1      10.602  18.146 -12.346  0.00  0.00    +0.000 HD
ENDBRANCH   6   7
ENDBRANCH   1   6
TORSDOF 3
ENDMDL
