MODEL 1
REMARK VINA RESULT:    -5.289      0.000      0.000
REMARK INTER + INTRA:          -6.598
REMARK INTER:                  -6.350
REMARK INTRA:                  -0.248
REMARK UNBOUND:                -0.228
REMARK  Name = 8815
REMARK  4 active torsions:
REMARK  status: ('A' for Active; 'I' for Inactive)
REMARK    1  A    between atoms: O_1  and  C_6
REMARK    2  A    between atoms: O_1  and  C_10
REMARK    3  A    between atoms: C_2  and  C_3
REMARK    4  A    between atoms: C_3  and  C_9
REMARK                            x       y       z     vdW  Elec       q    Type
REMARK                         _______ _______ _______ _____ _____    ______ ____
ROOT
ATOM      1  C   UNL     1      17.215  -4.979  -3.009  0.00  0.00    +0.000 A 
ATOM      2  C   UNL     1      17.566  -6.060  -3.819  0.00  0.00    +0.000 A 
ATOM      3  C   UNL     1      18.138  -3.962  -2.766  0.00  0.00    +0.000 A 
ATOM      4  C   UNL     1      19.762  -5.105  -4.141  0.00  0.00    +0.000 A 
ATOM      5  C   UNL     1      18.839  -6.122  -4.385  0.00  0.00    +0.000 A 
ATOM      6  C   UNL     1      19.411  -4.024  -3.332  0.00  0.00    +0.000 A 
ATOM      7  H   UNL     1      16.856  -6.858  -4.019  0.00  0.00    +0.000 HD
ATOM      8  H   UNL     1      17.876  -3.114  -2.138  0.00  0.00    +0.000 HD
ATOM      9  H   UNL     1      19.107  -6.966  -5.015  0.00  0.00    +0.000 HD
ATOM     10  H   UNL     1      20.077  -3.201  -3.102  0.00  0.00    +0.000 HD
ENDROOT
BRANCH   1  11
ATOM     11  C   UNL     1      15.854  -4.912  -2.404  0.00  0.00    +0.000 C 
ATOM     12  H   UNL     1      15.859  -4.217  -1.554  0.00  0.00    +0.000 HD
ATOM     13  H   UNL     1      15.152  -4.473  -3.126  0.00  0.00    +0.000 HD
BRANCH  11  14
ATOM     14  C   UNL     1      15.356  -6.249  -1.920  0.00  0.00    +0.000 C 
ATOM     15  C   UNL     1      15.434  -6.667  -0.651  0.00  0.00    +0.000 C 
ATOM     16  H   UNL     1      14.922  -6.918  -2.659  0.00  0.00    +0.000 HD
ATOM     17  H   UNL     1      15.063  -7.646  -0.372  0.00  0.00    +0.000 HD
ATOM     18  H   UNL     1      15.866  -6.043   0.125  0.00  0.00    +0.000 HD
ENDBRANCH  11  14
ENDBRANCH   1  11
BRANCH   4  19
ATOM     19  O   UNL     1      21.004  -5.166  -4.694  0.00  0.00    +0.000 OA
BRANCH  19  20
ATOM     20  C   UNL     1      21.867  -6.207  -4.238  0.00  0.00    +0.000 C 
ATOM     21  H   UNL     1      21.720  -6.414  -3.172  0.00  0.00    +0.000 HD
ATOM     22  H   UNL     1      22.913  -5.998  -4.481  0.00  0.00    +0.000 HD
ATOM     23  H   UNL     1      21.589  -7.118  -4.781  0.00  0.00    +0.000 HD
ENDBRANCH  19  20
ENDBRANCH   4  19
TORSDOF 4
ENDMDL
MODEL 2
REMARK VINA RESULT:    -5.041     27.351     28.911
REMARK INTER + INTRA:          -6.300
REMARK INTER:                  -6.089
REMARK INTRA:                  -0.211
REMARK UNBOUND:                -0.228
REMARK  Name = 8815
REMARK  4 active torsions:
REMARK  status: ('A' for Active; 'I' for Inactive)
REMARK    1  A    between atoms: O_1  and  C_6
REMARK    2  A    between atoms: O_1  and  C_10
REMARK    3  A    between atoms: C_2  and  C_3
REMARK    4  A    between atoms: C_3  and  C_9
REMARK                            x       y       z     vdW  Elec       q    Type
REMARK                         _______ _______ _______ _____ _____    ______ ____
ROOT
ATOM      1  C   UNL     1      -7.387 -13.805   3.889  0.00  0.00    +0.000 A 
ATOM      2  C   UNL     1      -7.602 -15.183   3.923  0.00  0.00    +0.000 A 
ATOM      3  C   UNL     1      -7.553 -13.045   5.046  0.00  0.00    +0.000 A 
ATOM      4  C   UNL     1      -8.150 -15.039   6.272  0.00  0.00    +0.000 A 
ATOM      5  C   UNL     1      -7.984 -15.799   5.114  0.00  0.00    +0.000 A 
ATOM      6  C   UNL     1      -7.934 -13.661   6.237  0.00  0.00    +0.000 A 
ATOM      7  H   UNL     1      -7.474 -15.788   3.029  0.00  0.00    +0.000 HD
ATOM      8  H   UNL     1      -7.386 -11.970   5.032  0.00  0.00    +0.000 HD
ATOM      9  H   UNL     1      -8.150 -16.873   5.135  0.00  0.00    +0.000 HD
ATOM     10  H   UNL     1      -8.045 -13.011   7.098  0.00  0.00    +0.000 HD
ENDROOT
BRANCH   1  11
ATOM     11  C   UNL     1      -6.978 -13.146   2.615  0.00  0.00    +0.000 C 
ATOM     12  H   UNL     1      -7.586 -12.246   2.451  0.00  0.00    +0.000 HD
ATOM     13  H   UNL     1      -5.947 -12.780   2.705  0.00  0.00    +0.000 HD
BRANCH  11  14
ATOM     14  C   UNL     1      -7.124 -14.043   1.413  0.00  0.00    +0.000 C 
ATOM     15  C   UNL     1      -7.091 -13.613   0.146  0.00  0.00    +0.000 C 
ATOM     16  H   UNL     1      -7.282 -15.103   1.597  0.00  0.00    +0.000 HD
ATOM     17  H   UNL     1      -7.211 -14.313  -0.674  0.00  0.00    +0.000 HD
ATOM     18  H   UNL     1      -6.945 -12.566  -0.094  0.00  0.00    +0.000 HD
ENDBRANCH  11  14
ENDBRANCH   1  11
BRANCH   4  19
ATOM     19  O   UNL     1      -8.522 -15.641   7.434  0.00  0.00    +0.000 OA
BRANCH  19  20
ATOM     20  C   UNL     1      -8.659 -17.061   7.414  0.00  0.00    +0.000 C 
ATOM     21  H   UNL     1      -9.036 -17.443   8.369  0.00  0.00    +0.000 HD
ATOM     22  H   UNL     1      -7.728 -17.550   7.109  0.00  0.00    +0.000 HD
ATOM     23  H   UNL     1      -9.411 -17.303   6.655  0.00  0.00    +0.000 HD
ENDBRANCH  19  20
ENDBRANCH   4  19
TORSDOF 4
ENDMDL
MODEL 3
REMARK VINA RESULT:    -4.947     23.946     25.002
REMARK INTER + INTRA:          -6.187
REMARK INTER:                  -5.947
REMARK INTRA:                  -0.241
REMARK UNBOUND:                -0.228
REMARK  Name = 8815
REMARK  4 active torsions:
REMARK  status: ('A' for Active; 'I' for Inactive)
REMARK    1  A    between atoms: O_1  and  C_6
REMARK    2  A    between atoms: O_1  and  C_10
REMARK    3  A    between atoms: C_2  and  C_3
REMARK    4  A    between atoms: C_3  and  C_9
REMARK                            x       y       z     vdW  Elec       q    Type
REMARK                         _______ _______ _______ _____ _____    ______ ____
ROOT
ATOM      1  C   UNL     1       3.695   3.986 -20.232  0.00  0.00    +0.000 A 
ATOM      2  C   UNL     1       3.321   2.643 -20.282  0.00  0.00    +0.000 A 
ATOM      3  C   UNL     1       2.720   4.977 -20.111  0.00  0.00    +0.000 A 
ATOM      4  C   UNL     1       0.999   3.282 -20.089  0.00  0.00    +0.000 A 
ATOM      5  C   UNL     1       1.973   2.292 -20.210  0.00  0.00    +0.000 A 
ATOM      6  C   UNL     1       1.373   4.626 -20.039  0.00  0.00    +0.000 A 
ATOM      7  H   UNL     1       4.070   1.861 -20.374  0.00  0.00    +0.000 HD
ATOM      8  H   UNL     1       2.999   6.027 -20.070  0.00  0.00    +0.000 HD
ATOM      9  H   UNL     1       1.688   1.244 -20.248  0.00  0.00    +0.000 HD
ATOM     10  H   UNL     1       0.669   5.445 -19.946  0.00  0.00    +0.000 HD
ENDROOT
BRANCH   1  11
ATOM     11  C   UNL     1       5.135   4.363 -20.309  0.00  0.00    +0.000 C 
ATOM     12  H   UNL     1       5.622   3.808 -21.122  0.00  0.00    +0.000 HD
ATOM     13  H   UNL     1       5.224   5.420 -20.593  0.00  0.00    +0.000 HD
BRANCH  11  14
ATOM     14  C   UNL     1       5.886   4.089 -19.031  0.00  0.00    +0.000 C 
ATOM     15  C   UNL     1       6.061   4.986 -18.054  0.00  0.00    +0.000 C 
ATOM     16  H   UNL     1       6.323   3.100 -18.911  0.00  0.00    +0.000 HD
ATOM     17  H   UNL     1       6.620   4.725 -17.162  0.00  0.00    +0.000 HD
ATOM     18  H   UNL     1       5.653   5.988 -18.126  0.00  0.00    +0.000 HD
ENDBRANCH  11  14
ENDBRANCH   1  11
BRANCH   4  19
ATOM     19  O   UNL     1      -0.316   2.938 -20.018  0.00  0.00    +0.000 OA
BRANCH  19  20
ATOM     20  C   UNL     1      -1.014   2.788 -21.254  0.00  0.00    +0.000 C 
ATOM     21  H   UNL     1      -0.576   3.408 -22.043  0.00  0.00    +0.000 HD
ATOM     22  H   UNL     1      -2.088   2.967 -21.133  0.00  0.00    +0.000 HD
ATOM     23  H   UNL     1      -0.897   1.744 -21.566  0.00  0.00    +0.000 HD
ENDBRANCH  19  20
ENDBRANCH   4  19
TORSDOF 4
ENDMDL
MODEL 4
REMARK VINA RESULT:    -4.829     25.068     26.807
REMARK INTER + INTRA:          -6.045
REMARK INTER:                  -5.780
REMARK INTRA:                  -0.265
REMARK UNBOUND:                -0.228
REMARK  Name = 8815
REMARK  4 active torsions:
REMARK  status: ('A' for Active; 'I' for Inactive)
REMARK    1  A    between atoms: O_1  and  C_6
REMARK    2  A    between atoms: O_1  and  C_10
REMARK    3  A    between atoms: C_2  and  C_3
REMARK    4  A    between atoms: C_3  and  C_9
REMARK                            x       y       z     vdW  Elec       q    Type
REMARK                         _______ _______ _______ _____ _____    ______ ____
ROOT
ATOM      1  C   UNL     1      -6.496 -13.469   3.346  0.00  0.00    +0.000 A 
ATOM      2  C   UNL     1      -5.229 -14.041   3.232  0.00  0.00    +0.000 A 
ATOM      3  C   UNL     1      -7.416 -13.599   2.307  0.00  0.00    +0.000 A 
ATOM      4  C   UNL     1      -5.803 -14.873   1.038  0.00  0.00    +0.000 A 
ATOM      5  C   UNL     1      -4.883 -14.743   2.078  0.00  0.00    +0.000 A 
ATOM      6  C   UNL     1      -7.071 -14.301   1.152  0.00  0.00    +0.000 A 
ATOM      7  H   UNL     1      -4.502 -13.950   4.035  0.00  0.00    +0.000 HD
ATOM      8  H   UNL     1      -8.407 -13.158   2.385  0.00  0.00    +0.000 HD
ATOM      9  H   UNL     1      -3.895 -15.187   1.994  0.00  0.00    +0.000 HD
ATOM     10  H   UNL     1      -7.833 -14.364   0.384  0.00  0.00    +0.000 HD
ENDROOT
BRANCH   1  11
ATOM     11  C   UNL     1      -6.866 -12.718   4.581  0.00  0.00    +0.000 C 
ATOM     12  H   UNL     1      -6.025 -12.726   5.287  0.00  0.00    +0.000 HD
ATOM     13  H   UNL     1      -7.020 -11.659   4.334  0.00  0.00    +0.000 HD
BRANCH  11  14
ATOM     14  C   UNL     1      -8.076 -13.286   5.276  0.00  0.00    +0.000 C 
ATOM     15  C   UNL     1      -8.024 -14.227   6.227  0.00  0.00    +0.000 C 
ATOM     16  H   UNL     1      -9.050 -12.913   4.969  0.00  0.00    +0.000 HD
ATOM     17  H   UNL     1      -8.936 -14.598   6.682  0.00  0.00    +0.000 HD
ATOM     18  H   UNL     1      -7.080 -14.639   6.565  0.00  0.00    +0.000 HD
ENDBRANCH  11  14
ENDBRANCH   1  11
BRANCH   4  19
ATOM     19  O   UNL     1      -5.465 -15.559  -0.088  0.00  0.00    +0.000 OA
BRANCH  19  20
ATOM     20  C   UNL     1      -4.085 -15.874  -0.266  0.00  0.00    +0.000 C 
ATOM     21  H   UNL     1      -3.514 -15.721   0.656  0.00  0.00    +0.000 HD
ATOM     22  H   UNL     1      -3.655 -15.333  -1.115  0.00  0.00    +0.000 HD
ATOM     23  H   UNL     1      -4.025 -16.942  -0.505  0.00  0.00    +0.000 HD
ENDBRANCH  19  20
ENDBRANCH   4  19
TORSDOF 4
ENDMDL
MODEL 5
REMARK VINA RESULT:    -4.792     27.177     28.850
REMARK INTER + INTRA:          -6.000
REMARK INTER:                  -5.788
REMARK INTRA:                  -0.212
REMARK UNBOUND:                -0.228
REMARK  Name = 8815
REMARK  4 active torsions:
REMARK  status: ('A' for Active; 'I' for Inactive)
REMARK    1  A    between atoms: O_1  and  C_6
REMARK    2  A    between atoms: O_1  and  C_10
REMARK    3  A    between atoms: C_2  and  C_3
REMARK    4  A    between atoms: C_3  and  C_9
REMARK                            x       y       z     vdW  Elec       q    Type
REMARK                         _______ _______ _______ _____ _____    ______ ____
ROOT
ATOM      1  C   UNL     1      -7.998 -14.810   5.711  0.00  0.00    +0.000 A 
ATOM      2  C   UNL     1      -7.802 -13.435   5.582  0.00  0.00    +0.000 A 
ATOM      3  C   UNL     1      -7.826 -15.645   4.608  0.00  0.00    +0.000 A 
ATOM      4  C   UNL     1      -7.262 -13.732   3.246  0.00  0.00    +0.000 A 
ATOM      5  C   UNL     1      -7.434 -12.896   4.349  0.00  0.00    +0.000 A 
ATOM      6  C   UNL     1      -7.458 -15.107   3.375  0.00  0.00    +0.000 A 
ATOM      7  H   UNL     1      -7.931 -12.772   6.434  0.00  0.00    +0.000 HD
ATOM      8  H   UNL     1      -7.974 -16.719   4.697  0.00  0.00    +0.000 HD
ATOM      9  H   UNL     1      -7.283 -11.824   4.255  0.00  0.00    +0.000 HD
ATOM     10  H   UNL     1      -7.341 -15.812   2.561  0.00  0.00    +0.000 HD
ENDROOT
BRANCH   1  11
ATOM     11  C   UNL     1      -8.391 -15.386   7.029  0.00  0.00    +0.000 C 
ATOM     12  H   UNL     1      -7.808 -14.913   7.830  0.00  0.00    +0.000 HD
ATOM     13  H   UNL     1      -9.436 -15.127   7.246  0.00  0.00    +0.000 HD
BRANCH  11  14
ATOM     14  C   UNL     1      -8.184 -16.877   7.107  0.00  0.00    +0.000 C 
ATOM     15  C   UNL     1      -8.801 -17.677   7.985  0.00  0.00    +0.000 C 
ATOM     16  H   UNL     1      -7.474 -17.319   6.413  0.00  0.00    +0.000 HD
ATOM     17  H   UNL     1      -8.599 -18.742   7.992  0.00  0.00    +0.000 HD
ATOM     18  H   UNL     1      -9.512 -17.287   8.705  0.00  0.00    +0.000 HD
ENDBRANCH  11  14
ENDBRANCH   1  11
BRANCH   4  19
ATOM     19  O   UNL     1      -6.903 -13.205   2.044  0.00  0.00    +0.000 OA
BRANCH  19  20
ATOM     20  C   UNL     1      -7.118 -14.017   0.889  0.00  0.00    +0.000 C 
ATOM     21  H   UNL     1      -8.106 -13.841   0.451  0.00  0.00    +0.000 HD
ATOM     22  H   UNL     1      -6.940 -15.075   1.103  0.00  0.00    +0.000 HD
ATOM     23  H   UNL     1      -6.378 -13.714   0.139  0.00  0.00    +0.000 HD
ENDBRANCH  19  20
ENDBRANCH   4  19
TORSDOF 4
ENDMDL
MODEL 6
REMARK VINA RESULT:    -4.772     27.156     28.064
REMARK INTER + INTRA:          -5.976
REMARK INTER:                  -5.755
REMARK INTRA:                  -0.222
REMARK UNBOUND:                -0.228
REMARK  Name = 8815
REMARK  4 active torsions:
REMARK  status: ('A' for Active; 'I' for Inactive)
REMARK    1  A    between atoms: O_1  and  C_6
REMARK    2  A    between atoms: O_1  and  C_10
REMARK    3  A    between atoms: C_2  and  C_3
REMARK    4  A    between atoms: C_3  and  C_9
REMARK                            x       y       z     vdW  Elec       q    Type
REMARK                         _______ _______ _______ _____ _____    ______ ____
ROOT
ATOM      1  C   UNL     1      -7.211 -13.866   2.957  0.00  0.00    +0.000 A 
ATOM      2  C   UNL     1      -7.397 -15.234   3.160  0.00  0.00    +0.000 A 
ATOM      3  C   UNL     1      -7.055 -13.368   1.664  0.00  0.00    +0.000 A 
ATOM      4  C   UNL     1      -7.271 -15.604   0.776  0.00  0.00    +0.000 A 
ATOM      5  C   UNL     1      -7.427 -16.102   2.070  0.00  0.00    +0.000 A 
ATOM      6  C   UNL     1      -7.085 -14.237   0.573  0.00  0.00    +0.000 A 
ATOM      7  H   UNL     1      -7.522 -15.635   4.163  0.00  0.00    +0.000 HD
ATOM      8  H   UNL     1      -6.910 -12.304   1.493  0.00  0.00    +0.000 HD
ATOM      9  H   UNL     1      -7.573 -17.167   2.234  0.00  0.00    +0.000 HD
ATOM     10  H   UNL     1      -6.958 -13.783  -0.404  0.00  0.00    +0.000 HD
ENDROOT
BRANCH   1  11
ATOM     11  C   UNL     1      -7.178 -12.937   4.123  0.00  0.00    +0.000 C 
ATOM     12  H   UNL     1      -6.173 -12.928   4.563  0.00  0.00    +0.000 HD
ATOM     13  H   UNL     1      -7.347 -11.908   3.777  0.00  0.00    +0.000 HD
BRANCH  11  14
ATOM     14  C   UNL     1      -8.165 -13.306   5.200  0.00  0.00    +0.000 C 
ATOM     15  C   UNL     1      -7.840 -13.496   6.484  0.00  0.00    +0.000 C 
ATOM     16  H   UNL     1      -9.202 -13.441   4.903  0.00  0.00    +0.000 HD
ATOM     17  H   UNL     1      -8.600 -13.768   7.208  0.00  0.00    +0.000 HD
ATOM     18  H   UNL     1      -6.820 -13.382   6.833  0.00  0.00    +0.000 HD
ENDBRANCH  11  14
ENDBRANCH   1  11
BRANCH   4  19
ATOM     19  O   UNL     1      -7.301 -16.453  -0.288  0.00  0.00    +0.000 OA
BRANCH  19  20
ATOM     20  C   UNL     1      -8.480 -17.240  -0.457  0.00  0.00    +0.000 C 
ATOM     21  H   UNL     1      -8.310 -18.285  -0.177  0.00  0.00    +0.000 HD
ATOM     22  H   UNL     1      -8.886 -17.141  -1.469  0.00  0.00    +0.000 HD
ATOM     23  H   UNL     1      -9.235 -16.843   0.231  0.00  0.00    +0.000 HD
ENDBRANCH  19  20
ENDBRANCH   4  19
TORSDOF 4
ENDMDL
MODEL 7
REMARK VINA RESULT:    -4.596     25.819     27.082
REMARK INTER + INTRA:          -5.764
REMARK INTER:                  -5.494
REMARK INTRA:                  -0.270
REMARK UNBOUND:                -0.228
REMARK  Name = 8815
REMARK  4 active torsions:
REMARK  status: ('A' for Active; 'I' for Inactive)
REMARK    1  A    between atoms: O_1  and  C_6
REMARK    2  A    between atoms: O_1  and  C_10
REMARK    3  A    between atoms: C_2  and  C_3
REMARK    4  A    between atoms: C_3  and  C_9
REMARK                            x       y       z     vdW  Elec       q    Type
REMARK                         _______ _______ _______ _____ _____    ______ ____
ROOT
ATOM      1  C   UNL     1      12.728  18.807 -11.014  0.00  0.00    +0.000 A 
ATOM      2  C   UNL     1      11.982  19.062  -9.862  0.00  0.00    +0.000 A 
ATOM      3  C   UNL     1      12.465  19.518 -12.185  0.00  0.00    +0.000 A 
ATOM      4  C   UNL     1      10.713  20.737 -11.054  0.00  0.00    +0.000 A 
ATOM      5  C   UNL     1      10.976  20.026  -9.882  0.00  0.00    +0.000 A 
ATOM      6  C   UNL     1      11.458  20.482 -12.205  0.00  0.00    +0.000 A 
ATOM      7  H   UNL     1      12.178  18.517  -8.942  0.00  0.00    +0.000 HD
ATOM      8  H   UNL     1      13.040  19.329 -13.088  0.00  0.00    +0.000 HD
ATOM      9  H   UNL     1      10.399  20.221  -8.982  0.00  0.00    +0.000 HD
ATOM     10  H   UNL     1      11.307  20.997 -13.148  0.00  0.00    +0.000 HD
ENDROOT
BRANCH   1  11
ATOM     11  C   UNL     1      13.804  17.776 -10.992  0.00  0.00    +0.000 C 
ATOM     12  H   UNL     1      14.487  17.935 -11.838  0.00  0.00    +0.000 HD
ATOM     13  H   UNL     1      14.425  17.912 -10.096  0.00  0.00    +0.000 HD
BRANCH  11  14
ATOM     14  C   UNL     1      13.275  16.368 -11.068  0.00  0.00    +0.000 C 
ATOM     15  C   UNL     1      12.859  15.780 -12.196  0.00  0.00    +0.000 C 
ATOM     16  H   UNL     1      13.216  15.806 -10.139  0.00  0.00    +0.000 HD
ATOM     17  H   UNL     1      12.481  14.764 -12.178  0.00  0.00    +0.000 HD
ATOM     18  H   UNL     1      12.888  16.298 -13.148  0.00  0.00    +0.000 HD
ENDBRANCH  11  14
ENDBRANCH   1  11
BRANCH   4  19
ATOM     19  O   UNL     1       9.730  21.678 -11.073  0.00  0.00    +0.000 OA
BRANCH  19  20
ATOM     20  C   UNL     1       9.592  22.496  -9.911  0.00  0.00    +0.000 C 
ATOM     21  H   UNL     1       8.630  23.018  -9.898  0.00  0.00    +0.000 HD
ATOM     22  H   UNL     1      10.439  23.180  -9.798  0.00  0.00    +0.000 HD
ATOM     23  H   UNL     1       9.604  21.827  -9.042  0.00  0.00    +0.000 HD
ENDBRANCH  19  20
ENDBRANCH   4  19
TORSDOF 4
ENDMDL
MODEL 8
REMARK VINA RESULT:    -4.438     31.677     33.924
REMARK INTER + INTRA:          -5.573
REMARK INTER:                  -5.302
REMARK INTRA:                  -0.272
REMARK UNBOUND:                -0.228
REMARK  Name = 8815
REMARK  4 active torsions:
REMARK  status: ('A' for Active; 'I' for Inactive)
REMARK    1  A    between atoms: O_1  and  C_6
REMARK    2  A    between atoms: O_1  and  C_10
REMARK    3  A    between atoms: C_2  and  C_3
REMARK    4  A    between atoms: C_3  and  C_9
REMARK                            x       y       z     vdW  Elec       q    Type
REMARK                         _______ _______ _______ _____ _____    ______ ____
ROOT
ATOM      1  C   UNL     1     -16.129  -5.605  -3.049  0.00  0.00    +0.000 A 
ATOM      2  C   UNL     1     -16.139  -4.227  -3.268  0.00  0.00    +0.000 A 
ATOM      3  C   UNL     1     -15.218  -6.412  -3.731  0.00  0.00    +0.000 A 
ATOM      4  C   UNL     1     -14.328  -4.464  -4.850  0.00  0.00    +0.000 A 
ATOM      5  C   UNL     1     -15.239  -3.657  -4.168  0.00  0.00    +0.000 A 
ATOM      6  C   UNL     1     -14.318  -5.842  -4.631  0.00  0.00    +0.000 A 
ATOM      7  H   UNL     1     -16.842  -3.586  -2.742  0.00  0.00    +0.000 HD
ATOM      8  H   UNL     1     -15.199  -7.486  -3.568  0.00  0.00    +0.000 HD
ATOM      9  H   UNL     1     -15.252  -2.583  -4.333  0.00  0.00    +0.000 HD
ATOM     10  H   UNL     1     -13.638  -6.526  -5.126  0.00  0.00    +0.000 HD
ENDROOT
BRANCH   1  11
ATOM     11  C   UNL     1     -17.091  -6.214  -2.087  0.00  0.00    +0.000 C 
ATOM     12  H   UNL     1     -16.581  -6.979  -1.486  0.00  0.00    +0.000 HD
ATOM     13  H   UNL     1     -17.417  -5.455  -1.364  0.00  0.00    +0.000 HD
BRANCH  11  14
ATOM     14  C   UNL     1     -18.276  -6.853  -2.763  0.00  0.00    +0.000 C 
ATOM     15  C   UNL     1     -19.314  -6.172  -3.263  0.00  0.00    +0.000 C 
ATOM     16  H   UNL     1     -18.288  -7.938  -2.830  0.00  0.00    +0.000 HD
ATOM     17  H   UNL     1     -20.140  -6.696  -3.730  0.00  0.00    +0.000 HD
ATOM     18  H   UNL     1     -19.357  -5.090  -3.215  0.00  0.00    +0.000 HD
ENDBRANCH  11  14
ENDBRANCH   1  11
BRANCH   4  19
ATOM     19  O   UNL     1     -13.450  -3.907  -5.727  0.00  0.00    +0.000 OA
BRANCH  19  20
ATOM     20  C   UNL     1     -12.552  -4.792  -6.397  0.00  0.00    +0.000 C 
ATOM     21  H   UNL     1     -12.818  -4.912  -7.453  0.00  0.00    +0.000 HD
ATOM     22  H   UNL     1     -12.470  -5.751  -5.877  0.00  0.00    +0.000 HD
ATOM     23  H   UNL     1     -11.560  -4.327  -6.369  0.00  0.00    +0.000 HD
ENDBRANCH  19  20
ENDBRANCH   4  19
TORSDOF 4
ENDMDL
MODEL 9
REMARK VINA RESULT:    -4.435     23.841     24.750
REMARK INTER + INTRA:          -5.570
REMARK INTER:                  -5.343
REMARK INTRA:                  -0.228
REMARK UNBOUND:                -0.228
REMARK  Name = 8815
REMARK  4 active torsions:
REMARK  status: ('A' for Active; 'I' for Inactive)
REMARK    1  A    between atoms: O_1  and  C_6
REMARK    2  A    between atoms: O_1  and  C_10
REMARK    3  A    between atoms: C_2  and  C_3
REMARK    4  A    between atoms: C_3  and  C_9
REMARK                            x       y       z     vdW  Elec       q    Type
REMARK                         _______ _______ _______ _____ _____    ______ ____
ROOT
ATOM      1  C   UNL     1       4.589   4.071 -20.639  0.00  0.00    +0.000 A 
ATOM      2  C   UNL     1       4.647   4.094 -22.033  0.00  0.00    +0.000 A 
ATOM      3  C   UNL     1       3.614   3.311 -19.994  0.00  0.00    +0.000 A 
ATOM      4  C   UNL     1       2.755   2.595 -22.135  0.00  0.00    +0.000 A 
ATOM      5  C   UNL     1       3.730   3.356 -22.780  0.00  0.00    +0.000 A 
ATOM      6  C   UNL     1       2.697   2.572 -20.741  0.00  0.00    +0.000 A 
ATOM      7  H   UNL     1       5.402   4.681 -22.549  0.00  0.00    +0.000 HD
ATOM      8  H   UNL     1       3.560   3.284 -18.909  0.00  0.00    +0.000 HD
ATOM      9  H   UNL     1       3.780   3.377 -23.866  0.00  0.00    +0.000 HD
ATOM     10  H   UNL     1       1.967   2.003 -20.177  0.00  0.00    +0.000 HD
ENDROOT
BRANCH   1  11
ATOM     11  C   UNL     1       5.569   4.861 -19.839  0.00  0.00    +0.000 C 
ATOM     12  H   UNL     1       6.428   5.133 -20.468  0.00  0.00    +0.000 HD
ATOM     13  H   UNL     1       5.117   5.817 -19.545  0.00  0.00    +0.000 HD
BRANCH  11  14
ATOM     14  C   UNL     1       6.081   4.117 -18.633  0.00  0.00    +0.000 C 
ATOM     15  C   UNL     1       7.347   3.710 -18.482  0.00  0.00    +0.000 C 
ATOM     16  H   UNL     1       5.366   3.888 -17.847  0.00  0.00    +0.000 HD
ATOM     17  H   UNL     1       7.647   3.172 -17.590  0.00  0.00    +0.000 HD
ATOM     18  H   UNL     1       8.099   3.906 -19.238  0.00  0.00    +0.000 HD
ENDBRANCH  11  14
ENDBRANCH   1  11
BRANCH   4  19
ATOM     19  O   UNL     1       1.861   1.874 -22.866  0.00  0.00    +0.000 OA
BRANCH  19  20
ATOM     20  C   UNL     1       0.500   1.899 -22.435  0.00  0.00    +0.000 C 
ATOM     21  H   UNL     1       0.179   0.923 -22.057  0.00  0.00    +0.000 HD
ATOM     22  H   UNL     1      -0.162   2.280 -23.218  0.00  0.00    +0.000 HD
ATOM     23  H   UNL     1       0.440   2.602 -21.596  0.00  0.00    +0.000 HD
ENDBRANCH  19  20
ENDBRANCH   4  19
TORSDOF 4
ENDMDL
MODEL 10
REMARK VINA RESULT:    -4.432     27.587     29.378
REMARK INTER + INTRA:          -5.566
REMARK INTER:                  -5.313
REMARK INTRA:                  -0.254
REMARK UNBOUND:                -0.228
REMARK  Name = 8815
REMARK  4 active torsions:
REMARK  status: ('A' for Active; 'I' for Inactive)
REMARK    1  A    between atoms: O_1  and  C_6
REMARK    2  A    between atoms: O_1  and  C_10
REMARK    3  A    between atoms: C_2  and  C_3
REMARK    4  A    between atoms: C_3  and  C_9
REMARK                            x       y       z     vdW  Elec       q    Type
REMARK                         _______ _______ _______ _____ _____    ______ ____
ROOT
ATOM      1  C   UNL     1      -7.468 -14.569   5.569  0.00  0.00    +0.000 A 
ATOM      2  C   UNL     1      -8.566 -14.989   6.320  0.00  0.00    +0.000 A 
ATOM      3  C   UNL     1      -6.326 -15.367   5.497  0.00  0.00    +0.000 A 
ATOM      4  C   UNL     1      -7.381 -17.005   6.926  0.00  0.00    +0.000 A 
ATOM      5  C   UNL     1      -8.523 -16.206   6.998  0.00  0.00    +0.000 A 
ATOM      6  C   UNL     1      -6.283 -16.585   6.175  0.00  0.00    +0.000 A 
ATOM      7  H   UNL     1      -9.463 -14.377   6.382  0.00  0.00    +0.000 HD
ATOM      8  H   UNL     1      -5.465 -15.052   4.914  0.00  0.00    +0.000 HD
ATOM      9  H   UNL     1      -9.382 -16.528   7.581  0.00  0.00    +0.000 HD
ATOM     10  H   UNL     1      -5.366 -17.155   6.077  0.00  0.00    +0.000 HD
ENDROOT
BRANCH   1  11
ATOM     11  C   UNL     1      -7.514 -13.267   4.843  0.00  0.00    +0.000 C 
ATOM     12  H   UNL     1      -8.558 -12.968   4.682  0.00  0.00    +0.000 HD
ATOM     13  H   UNL     1      -7.087 -12.478   5.477  0.00  0.00    +0.000 HD
BRANCH  11  14
ATOM     14  C   UNL     1      -6.821 -13.312   3.506  0.00  0.00    +0.000 C 
ATOM     15  C   UNL     1      -7.390 -13.756   2.379  0.00  0.00    +0.000 C 
ATOM     16  H   UNL     1      -5.789 -12.974   3.467  0.00  0.00    +0.000 HD
ATOM     17  H   UNL     1      -6.831 -13.768   1.450  0.00  0.00    +0.000 HD
ATOM     18  H   UNL     1      -8.414 -14.112   2.363  0.00  0.00    +0.000 HD
ENDBRANCH  11  14
ENDBRANCH   1  11
BRANCH   4  19
ATOM     19  O   UNL     1      -7.340 -18.193   7.588  0.00  0.00    +0.000 OA
BRANCH  19  20
ATOM     20  C   UNL     1      -8.301 -18.393   8.624  0.00  0.00    +0.000 C 
ATOM     21  H   UNL     1      -9.104 -19.066   8.303  0.00  0.00    +0.000 HD
ATOM     22  H   UNL     1      -8.684 -17.441   9.006  0.00  0.00    +0.000 HD
ATOM     23  H   UNL     1      -7.784 -18.887   9.454  0.00  0.00    +0.000 HD
ENDBRANCH  19  20
ENDBRANCH   4  19
TORSDOF 4
ENDMDL
