MODEL 1
REMARK VINA RESULT:    -4.154      0.000      0.000
REMARK INTER + INTRA:          -6.047
REMARK INTER:                  -5.702
REMARK INTRA:                  -0.345
REMARK UNBOUND:                -0.558
REMARK  Name = 62572
REMARK  7 active torsions:
REMARK  status: ('A' for Active; 'I' for Inactive)
REMARK    1  A    between atoms: O_1  and  C_7
REMARK    2  A    between atoms: O_1  and  C_8
REMARK    3  A    between atoms: O_2  and  C_4
REMARK    4  A    between atoms: C_4  and  C_5
REMARK    5  A    between atoms: C_4  and  C_6
REMARK    6  A    between atoms: C_5  and  C_7
REMARK    7  A    between atoms: C_8  and  C_9
REMARK                            x       y       z     vdW  Elec       q    Type
REMARK                         _______ _______ _______ _____ _____    ______ ____
ROOT
ATOM      1  C   UNL     1       4.074  -7.159  -8.316  0.00  0.00    +0.000 C 
ATOM      2  H   UNL     1       3.615  -8.038  -8.788  0.00  0.00    +0.000 HD
ATOM      3  H   UNL     1       4.860  -7.498  -7.634  0.00  0.00    +0.000 HD
ENDROOT
BRANCH   1   5
ATOM      4  O   UNL     1       3.065  -6.244  -6.297  0.00  0.00    +0.000 OA
ATOM      5  C   UNL     1       3.005  -6.466  -7.499  0.00  0.00    +0.000 C 
BRANCH   5   6
ATOM      6  O   UNL     1       1.966  -6.135  -8.322  0.00  0.00    +0.000 OA
BRANCH   6   7
ATOM      7  C   UNL     1       0.975  -5.275  -7.749  0.00  0.00    +0.000 C 
ATOM      8  H   UNL     1       1.345  -4.874  -6.799  0.00  0.00    +0.000 HD
ATOM      9  H   UNL     1       0.768  -4.448  -8.437  0.00  0.00    +0.000 HD
BRANCH   7  10
ATOM     10  C   UNL     1      -0.289  -6.072  -7.510  0.00  0.00    +0.000 C 
ATOM     11  H   UNL     1      -0.060  -7.127  -7.340  0.00  0.00    +0.000 HD
ATOM     12  H   UNL     1      -0.831  -5.683  -6.640  0.00  0.00    +0.000 HD
ATOM     13  H   UNL     1      -0.965  -5.990  -8.368  0.00  0.00    +0.000 HD
ENDBRANCH   7  10
ENDBRANCH   6   7
ENDBRANCH   5   6
ENDBRANCH   1   5
BRANCH   1  14
ATOM     14  C   UNL     1       4.647  -6.258  -9.411  0.00  0.00    +0.000 C 
ATOM     15  H   UNL     1       4.596  -5.204  -9.116  0.00  0.00    +0.000 HD
BRANCH  14  16
ATOM     16  C   UNL     1       6.092  -6.628  -9.725  0.00  0.00    +0.000 C 
ATOM     17  H   UNL     1       6.127  -7.555 -10.309  0.00  0.00    +0.000 HD
ATOM     18  H   UNL     1       6.660  -6.813  -8.807  0.00  0.00    +0.000 HD
ATOM     19  H   UNL     1       6.590  -5.838 -10.295  0.00  0.00    +0.000 HD
ENDBRANCH  14  16
BRANCH  14  20
ATOM     20  O   UNL     1       3.868  -6.424 -10.592  0.00  0.00    +0.000 OA
ATOM     21  H   UNL     1       4.468  -6.371 -11.355  0.00  0.00    +0.000 HD
ENDBRANCH  14  20
ENDBRANCH   1  14
TORSDOF 7
ENDMDL
MODEL 2
REMARK VINA RESULT:    -4.086      1.548      4.392
REMARK INTER + INTRA:          -5.957
REMARK INTER:                  -5.627
REMARK INTRA:                  -0.330
REMARK UNBOUND:                -0.558
REMARK  Name = 62572
REMARK  7 active torsions:
REMARK  status: ('A' for Active; 'I' for Inactive)
REMARK    1  A    between atoms: O_1  and  C_7
REMARK    2  A    between atoms: O_1  and  C_8
REMARK    3  A    between atoms: O_2  and  C_4
REMARK    4  A    between atoms: C_4  and  C_5
REMARK    5  A    between atoms: C_4  and  C_6
REMARK    6  A    between atoms: C_5  and  C_7
REMARK    7  A    between atoms: C_8  and  C_9
REMARK                            x       y       z     vdW  Elec       q    Type
REMARK                         _______ _______ _______ _____ _____    ______ ____
ROOT
ATOM      1  C   UNL     1       3.211  -7.370  -8.593  0.00  0.00    +0.000 C 
ATOM      2  H   UNL     1       3.688  -7.939  -7.784  0.00  0.00    +0.000 HD
ATOM      3  H   UNL     1       2.759  -8.075  -9.298  0.00  0.00    +0.000 HD
ENDROOT
BRANCH   1   5
ATOM      4  O   UNL     1       4.215  -6.171 -10.461  0.00  0.00    +0.000 OA
ATOM      5  C   UNL     1       4.298  -6.606  -9.320  0.00  0.00    +0.000 C 
BRANCH   5   6
ATOM      6  O   UNL     1       5.381  -6.488  -8.495  0.00  0.00    +0.000 OA
BRANCH   6   7
ATOM      7  C   UNL     1       6.602  -6.097  -9.133  0.00  0.00    +0.000 C 
ATOM      8  H   UNL     1       6.878  -6.847  -9.883  0.00  0.00    +0.000 HD
ATOM      9  H   UNL     1       6.463  -5.127  -9.623  0.00  0.00    +0.000 HD
BRANCH   7  10
ATOM     10  C   UNL     1       7.691  -5.993  -8.088  0.00  0.00    +0.000 C 
ATOM     11  H   UNL     1       8.270  -5.074  -8.216  0.00  0.00    +0.000 HD
ATOM     12  H   UNL     1       7.261  -6.001  -7.081  0.00  0.00    +0.000 HD
ATOM     13  H   UNL     1       8.370  -6.850  -8.151  0.00  0.00    +0.000 HD
ENDBRANCH   7  10
ENDBRANCH   6   7
ENDBRANCH   5   6
ENDBRANCH   1   5
BRANCH   1  14
ATOM     14  C   UNL     1       2.155  -6.446  -7.986  0.00  0.00    +0.000 C 
ATOM     15  H   UNL     1       1.176  -6.937  -7.956  0.00  0.00    +0.000 HD
BRANCH  14  16
ATOM     16  C   UNL     1       2.549  -6.010  -6.581  0.00  0.00    +0.000 C 
ATOM     17  H   UNL     1       2.122  -6.693  -5.838  0.00  0.00    +0.000 HD
ATOM     18  H   UNL     1       2.157  -5.013  -6.353  0.00  0.00    +0.000 HD
ATOM     19  H   UNL     1       3.636  -5.997  -6.458  0.00  0.00    +0.000 HD
ENDBRANCH  14  16
BRANCH  14  20
ATOM     20  O   UNL     1       2.039  -5.286  -8.806  0.00  0.00    +0.000 OA
ATOM     21  H   UNL     1       1.355  -4.713  -8.419  0.00  0.00    +0.000 HD
ENDBRANCH  14  20
ENDBRANCH   1  14
TORSDOF 7
ENDMDL
MODEL 3
REMARK VINA RESULT:    -4.040      1.644      4.929
REMARK INTER + INTRA:          -5.896
REMARK INTER:                  -5.568
REMARK INTRA:                  -0.329
REMARK UNBOUND:                -0.558
REMARK  Name = 62572
REMARK  7 active torsions:
REMARK  status: ('A' for Active; 'I' for Inactive)
REMARK    1  A    between atoms: O_1  and  C_7
REMARK    2  A    between atoms: O_1  and  C_8
REMARK    3  A    between atoms: O_2  and  C_4
REMARK    4  A    between atoms: C_4  and  C_5
REMARK    5  A    between atoms: C_4  and  C_6
REMARK    6  A    between atoms: C_5  and  C_7
REMARK    7  A    between atoms: C_8  and  C_9
REMARK                            x       y       z     vdW  Elec       q    Type
REMARK                         _______ _______ _______ _____ _____    ______ ____
ROOT
ATOM      1  C   UNL     1       0.162  -5.808  -7.010  0.00  0.00    +0.000 C 
ATOM      2  H   UNL     1       0.195  -6.896  -6.865  0.00  0.00    +0.000 HD
ATOM      3  H   UNL     1      -0.724  -5.559  -7.602  0.00  0.00    +0.000 HD
ENDROOT
BRANCH   1   5
ATOM      4  O   UNL     1       1.421  -4.557  -8.677  0.00  0.00    +0.000 OA
ATOM      5  C   UNL     1       1.389  -5.414  -7.804  0.00  0.00    +0.000 C 
BRANCH   5   6
ATOM      6  O   UNL     1       2.447  -6.172  -7.388  0.00  0.00    +0.000 OA
BRANCH   6   7
ATOM      7  C   UNL     1       2.954  -7.104  -8.349  0.00  0.00    +0.000 C 
ATOM      8  H   UNL     1       2.813  -8.125  -7.975  0.00  0.00    +0.000 HD
ATOM      9  H   UNL     1       2.412  -6.985  -9.293  0.00  0.00    +0.000 HD
BRANCH   7  10
ATOM     10  C   UNL     1       4.427  -6.837  -8.565  0.00  0.00    +0.000 C 
ATOM     11  H   UNL     1       4.847  -7.530  -9.299  0.00  0.00    +0.000 HD
ATOM     12  H   UNL     1       4.585  -5.811  -8.917  0.00  0.00    +0.000 HD
ATOM     13  H   UNL     1       4.980  -6.939  -7.626  0.00  0.00    +0.000 HD
ENDBRANCH   7  10
ENDBRANCH   6   7
ENDBRANCH   5   6
ENDBRANCH   1   5
BRANCH   1  14
ATOM     14  C   UNL     1       0.113  -5.133  -5.639  0.00  0.00    +0.000 C 
ATOM     15  H   UNL     1       0.067  -4.043  -5.741  0.00  0.00    +0.000 HD
BRANCH  14  16
ATOM     16  C   UNL     1      -1.083  -5.619  -4.830  0.00  0.00    +0.000 C 
ATOM     17  H   UNL     1      -1.736  -4.777  -4.574  0.00  0.00    +0.000 HD
ATOM     18  H   UNL     1      -0.762  -6.066  -3.883  0.00  0.00    +0.000 HD
ATOM     19  H   UNL     1      -1.668  -6.357  -5.388  0.00  0.00    +0.000 HD
ENDBRANCH  14  16
BRANCH  14  20
ATOM     20  O   UNL     1       1.305  -5.457  -4.927  0.00  0.00    +0.000 OA
ATOM     21  H   UNL     1       1.049  -5.906  -4.105  0.00  0.00    +0.000 HD
ENDBRANCH  14  20
ENDBRANCH   1  14
TORSDOF 7
ENDMDL
MODEL 4
REMARK VINA RESULT:    -3.920      2.918      4.856
REMARK INTER + INTRA:          -5.738
REMARK INTER:                  -5.278
REMARK INTRA:                  -0.460
REMARK UNBOUND:                -0.558
REMARK  Name = 62572
REMARK  7 active torsions:
REMARK  status: ('A' for Active; 'I' for Inactive)
REMARK    1  A    between atoms: O_1  and  C_7
REMARK    2  A    between atoms: O_1  and  C_8
REMARK    3  A    between atoms: O_2  and  C_4
REMARK    4  A    between atoms: C_4  and  C_5
REMARK    5  A    between atoms: C_4  and  C_6
REMARK    6  A    between atoms: C_5  and  C_7
REMARK    7  A    between atoms: C_8  and  C_9
REMARK                            x       y       z     vdW  Elec       q    Type
REMARK                         _______ _______ _______ _____ _____    ______ ____
ROOT
ATOM      1  C   UNL     1      -0.187  -5.697  -7.001  0.00  0.00    +0.000 C 
ATOM      2  H   UNL     1      -0.547  -6.734  -6.976  0.00  0.00    +0.000 HD
ATOM      3  H   UNL     1      -0.878  -5.100  -7.605  0.00  0.00    +0.000 HD
ENDROOT
BRANCH   1   5
ATOM      4  O   UNL     1       1.799  -6.692  -7.998  0.00  0.00    +0.000 OA
ATOM      5  C   UNL     1       1.164  -5.695  -7.685  0.00  0.00    +0.000 C 
BRANCH   5   6
ATOM      6  O   UNL     1       1.553  -4.401  -7.889  0.00  0.00    +0.000 OA
BRANCH   6   7
ATOM      7  C   UNL     1       1.079  -3.798  -9.098  0.00  0.00    +0.000 C 
ATOM      8  H   UNL     1       1.835  -3.914  -9.883  0.00  0.00    +0.000 HD
ATOM      9  H   UNL     1       0.152  -4.289  -9.411  0.00  0.00    +0.000 HD
BRANCH   7  10
ATOM     10  C   UNL     1       0.823  -2.328  -8.847  0.00  0.00    +0.000 C 
ATOM     11  H   UNL     1       1.222  -1.717  -9.662  0.00  0.00    +0.000 HD
ATOM     12  H   UNL     1      -0.251  -2.134  -8.755  0.00  0.00    +0.000 HD
ATOM     13  H   UNL     1       1.286  -2.010  -7.907  0.00  0.00    +0.000 HD
ENDBRANCH   7  10
ENDBRANCH   6   7
ENDBRANCH   5   6
ENDBRANCH   1   5
BRANCH   1  14
ATOM     14  C   UNL     1      -0.115  -5.169  -5.567  0.00  0.00    +0.000 C 
ATOM     15  H   UNL     1      -0.211  -4.078  -5.547  0.00  0.00    +0.000 HD
BRANCH  14  16
ATOM     16  C   UNL     1      -1.202  -5.791  -4.698  0.00  0.00    +0.000 C 
ATOM     17  H   UNL     1      -1.561  -6.724  -5.149  0.00  0.00    +0.000 HD
ATOM     18  H   UNL     1      -2.070  -5.128  -4.617  0.00  0.00    +0.000 HD
ATOM     19  H   UNL     1      -0.830  -6.011  -3.693  0.00  0.00    +0.000 HD
ENDBRANCH  14  16
BRANCH  14  20
ATOM     20  O   UNL     1       1.155  -5.509  -5.019  0.00  0.00    +0.000 OA
ATOM     21  H   UNL     1       1.078  -6.387  -4.608  0.00  0.00    +0.000 HD
ENDBRANCH  14  20
ENDBRANCH   1  14
TORSDOF 7
ENDMDL
MODEL 5
REMARK VINA RESULT:    -3.914      4.307      5.653
REMARK INTER + INTRA:          -5.730
REMARK INTER:                  -5.621
REMARK INTRA:                  -0.109
REMARK UNBOUND:                -0.558
REMARK  Name = 62572
REMARK  7 active torsions:
REMARK  status: ('A' for Active; 'I' for Inactive)
REMARK    1  A    between atoms: O_1  and  C_7
REMARK    2  A    between atoms: O_1  and  C_8
REMARK    3  A    between atoms: O_2  and  C_4
REMARK    4  A    between atoms: C_4  and  C_5
REMARK    5  A    between atoms: C_4  and  C_6
REMARK    6  A    between atoms: C_5  and  C_7
REMARK    7  A    between atoms: C_8  and  C_9
REMARK                            x       y       z     vdW  Elec       q    Type
REMARK                         _______ _______ _______ _____ _____    ______ ____
ROOT
ATOM      1  C   UNL     1      -1.113  -4.261  -6.392  0.00  0.00    +0.000 C 
ATOM      2  H   UNL     1      -2.134  -4.383  -6.775  0.00  0.00    +0.000 HD
ATOM      3  H   UNL     1      -1.059  -3.323  -5.830  0.00  0.00    +0.000 HD
ENDROOT
BRANCH   1   5
ATOM      4  O   UNL     1      -0.107  -4.965  -8.495  0.00  0.00    +0.000 OA
ATOM      5  C   UNL     1      -0.185  -4.153  -7.583  0.00  0.00    +0.000 C 
BRANCH   5   6
ATOM      6  O   UNL     1       0.547  -3.005  -7.469  0.00  0.00    +0.000 OA
BRANCH   6   7
ATOM      7  C   UNL     1       0.381  -2.059  -8.531  0.00  0.00    +0.000 C 
ATOM      8  H   UNL     1       1.364  -1.704  -8.860  0.00  0.00    +0.000 HD
ATOM      9  H   UNL     1      -0.131  -2.540  -9.371  0.00  0.00    +0.000 HD
BRANCH   7  10
ATOM     10  C   UNL     1      -0.442  -0.893  -8.028  0.00  0.00    +0.000 C 
ATOM     11  H   UNL     1      -1.384  -0.813  -8.578  0.00  0.00    +0.000 HD
ATOM     12  H   UNL     1      -0.665  -1.011  -6.962  0.00  0.00    +0.000 HD
ATOM     13  H   UNL     1       0.111   0.045  -8.135  0.00  0.00    +0.000 HD
ENDBRANCH   7  10
ENDBRANCH   6   7
ENDBRANCH   5   6
ENDBRANCH   1   5
BRANCH   1  14
ATOM     14  C   UNL     1      -0.778  -5.456  -5.498  0.00  0.00    +0.000 C 
ATOM     15  H   UNL     1      -1.110  -6.393  -5.958  0.00  0.00    +0.000 HD
BRANCH  14  16
ATOM     16  C   UNL     1       0.718  -5.529  -5.217  0.00  0.00    +0.000 C 
ATOM     17  H   UNL     1       1.186  -4.555  -5.399  0.00  0.00    +0.000 HD
ATOM     18  H   UNL     1       1.210  -6.244  -5.886  0.00  0.00    +0.000 HD
ATOM     19  H   UNL     1       0.914  -5.822  -4.181  0.00  0.00    +0.000 HD
ENDBRANCH  14  16
BRANCH  14  20
ATOM     20  O   UNL     1      -1.466  -5.306  -4.259  0.00  0.00    +0.000 OA
ATOM     21  H   UNL     1      -1.890  -4.432  -4.257  0.00  0.00    +0.000 HD
ENDBRANCH  14  20
ENDBRANCH   1  14
TORSDOF 7
ENDMDL
MODEL 6
REMARK VINA RESULT:    -3.613     27.081     27.735
REMARK INTER + INTRA:          -5.332
REMARK INTER:                  -4.798
REMARK INTRA:                  -0.534
REMARK UNBOUND:                -0.558
REMARK  Name = 62572
REMARK  7 active torsions:
REMARK  status: ('A' for Active; 'I' for Inactive)
REMARK    1  A    between atoms: O_1  and  C_7
REMARK    2  A    between atoms: O_1  and  C_8
REMARK    3  A    between atoms: O_2  and  C_4
REMARK    4  A    between atoms: C_4  and  C_5
REMARK    5  A    between atoms: C_4  and  C_6
REMARK    6  A    between atoms: C_5  and  C_7
REMARK    7  A    between atoms: C_8  and  C_9
REMARK                            x       y       z     vdW  Elec       q    Type
REMARK                         _______ _______ _______ _____ _____    ______ ____
ROOT
ATOM      1  C   UNL     1      11.140  21.022 -10.675  0.00  0.00    +0.000 C 
ATOM      2  H   UNL     1      10.817  21.499 -11.610  0.00  0.00    +0.000 HD
ATOM      3  H   UNL     1      12.198  21.252 -10.511  0.00  0.00    +0.000 HD
ENDROOT
BRANCH   1   5
ATOM      4  O   UNL     1      10.231  18.971 -11.622  0.00  0.00    +0.000 OA
ATOM      5  C   UNL     1      11.002  19.525 -10.851  0.00  0.00    +0.000 C 
BRANCH   5   6
ATOM      6  O   UNL     1      11.876  18.899 -10.007  0.00  0.00    +0.000 OA
BRANCH   6   7
ATOM      7  C   UNL     1      13.131  18.526 -10.585  0.00  0.00    +0.000 C 
ATOM      8  H   UNL     1      13.304  19.114 -11.493  0.00  0.00    +0.000 HD
ATOM      9  H   UNL     1      13.935  18.721  -9.867  0.00  0.00    +0.000 HD
BRANCH   7  10
ATOM     10  C   UNL     1      13.095  17.053 -10.928  0.00  0.00    +0.000 C 
ATOM     11  H   UNL     1      13.833  16.813 -11.699  0.00  0.00    +0.000 HD
ATOM     12  H   UNL     1      13.303  16.445 -10.041  0.00  0.00    +0.000 HD
ATOM     13  H   UNL     1      12.102  16.763 -11.287  0.00  0.00    +0.000 HD
ENDBRANCH   7  10
ENDBRANCH   6   7
ENDBRANCH   5   6
ENDBRANCH   1   5
BRANCH   1  14
ATOM     14  C   UNL     1      10.279  21.557  -9.530  0.00  0.00    +0.000 C 
ATOM     15  H   UNL     1      10.904  21.946  -8.719  0.00  0.00    +0.000 HD
BRANCH  14  16
ATOM     16  C   UNL     1       9.336  22.651 -10.016  0.00  0.00    +0.000 C 
ATOM     17  H   UNL     1       8.630  22.246 -10.749  0.00  0.00    +0.000 HD
ATOM     18  H   UNL     1       9.889  23.451 -10.522  0.00  0.00    +0.000 HD
ATOM     19  H   UNL     1       8.769  23.085  -9.187  0.00  0.00    +0.000 HD
ENDBRANCH  14  16
BRANCH  14  20
ATOM     20  O   UNL     1       9.498  20.485  -9.007  0.00  0.00    +0.000 OA
ATOM     21  H   UNL     1       8.925  20.157  -9.720  0.00  0.00    +0.000 HD
ENDBRANCH  14  20
ENDBRANCH   1  14
TORSDOF 7
ENDMDL
MODEL 7
REMARK VINA RESULT:    -3.528     15.177     15.983
REMARK INTER + INTRA:          -5.221
REMARK INTER:                  -4.824
REMARK INTRA:                  -0.397
REMARK UNBOUND:                -0.558
REMARK  Name = 62572
REMARK  7 active torsions:
REMARK  status: ('A' for Active; 'I' for Inactive)
REMARK    1  A    between atoms: O_1  and  C_7
REMARK    2  A    between atoms: O_1  and  C_8
REMARK    3  A    between atoms: O_2  and  C_4
REMARK    4  A    between atoms: C_4  and  C_5
REMARK    5  A    between atoms: C_4  and  C_6
REMARK    6  A    between atoms: C_5  and  C_7
REMARK    7  A    between atoms: C_8  and  C_9
REMARK                            x       y       z     vdW  Elec       q    Type
REMARK                         _______ _______ _______ _____ _____    ______ ____
ROOT
ATOM      1  C   UNL     1       1.454   3.815 -21.557  0.00  0.00    +0.000 C 
ATOM      2  H   UNL     1       1.948   4.728 -21.197  0.00  0.00    +0.000 HD
ATOM      3  H   UNL     1       0.938   4.042 -22.495  0.00  0.00    +0.000 HD
ENDROOT
BRANCH   1   5
ATOM      4  O   UNL     1      -0.390   2.506 -20.653  0.00  0.00    +0.000 OA
ATOM      5  C   UNL     1       0.416   3.418 -20.529  0.00  0.00    +0.000 C 
BRANCH   5   6
ATOM      6  O   UNL     1       0.527   4.246 -19.448  0.00  0.00    +0.000 OA
BRANCH   6   7
ATOM      7  C   UNL     1       1.101   5.531 -19.711  0.00  0.00    +0.000 C 
ATOM      8  H   UNL     1       2.188   5.478 -19.577  0.00  0.00    +0.000 HD
ATOM      9  H   UNL     1       0.876   5.827 -20.741  0.00  0.00    +0.000 HD
BRANCH   7  10
ATOM     10  C   UNL     1       0.515   6.539 -18.747  0.00  0.00    +0.000 C 
ATOM     11  H   UNL     1       0.105   6.043 -17.863  0.00  0.00    +0.000 HD
ATOM     12  H   UNL     1       1.280   7.255 -18.427  0.00  0.00    +0.000 HD
ATOM     13  H   UNL     1      -0.280   7.117 -19.228  0.00  0.00    +0.000 HD
ENDBRANCH   7  10
ENDBRANCH   6   7
ENDBRANCH   5   6
ENDBRANCH   1   5
BRANCH   1  14
ATOM     14  C   UNL     1       2.515   2.733 -21.762  0.00  0.00    +0.000 C 
ATOM     15  H   UNL     1       3.313   3.088 -22.423  0.00  0.00    +0.000 HD
BRANCH  14  16
ATOM     16  C   UNL     1       3.114   2.292 -20.432  0.00  0.00    +0.000 C 
ATOM     17  H   UNL     1       3.786   1.439 -20.583  0.00  0.00    +0.000 HD
ATOM     18  H   UNL     1       2.334   1.958 -19.740  0.00  0.00    +0.000 HD
ATOM     19  H   UNL     1       3.680   3.103 -19.962  0.00  0.00    +0.000 HD
ENDBRANCH  14  16
BRANCH  14  20
ATOM     20  O   UNL     1       1.902   1.605 -22.380  0.00  0.00    +0.000 OA
ATOM     21  H   UNL     1       1.020   1.491 -21.988  0.00  0.00    +0.000 HD
ENDBRANCH  14  20
ENDBRANCH   1  14
TORSDOF 7
ENDMDL
MODEL 8
REMARK VINA RESULT:    -3.481     16.364     17.297
REMARK INTER + INTRA:          -5.158
REMARK INTER:                  -4.481
REMARK INTRA:                  -0.678
REMARK UNBOUND:                -0.558
REMARK  Name = 62572
REMARK  7 active torsions:
REMARK  status: ('A' for Active; 'I' for Inactive)
REMARK    1  A    between atoms: O_1  and  C_7
REMARK    2  A    between atoms: O_1  and  C_8
REMARK    3  A    between atoms: O_2  and  C_4
REMARK    4  A    between atoms: C_4  and  C_5
REMARK    5  A    between atoms: C_4  and  C_6
REMARK    6  A    between atoms: C_5  and  C_7
REMARK    7  A    between atoms: C_8  and  C_9
REMARK                            x       y       z     vdW  Elec       q    Type
REMARK                         _______ _______ _______ _____ _____    ______ ____
ROOT
ATOM      1  C   UNL     1      -0.839   2.988 -23.147  0.00  0.00    +0.000 C 
ATOM      2  H   UNL     1      -1.258   3.533 -22.291  0.00  0.00    +0.000 HD
ATOM      3  H   UNL     1      -1.664   2.614 -23.762  0.00  0.00    +0.000 HD
ENDROOT
BRANCH   1   5
ATOM      4  O   UNL     1       0.024   0.711 -23.158  0.00  0.00    +0.000 OA
ATOM      5  C   UNL     1      -0.076   1.798 -22.605  0.00  0.00    +0.000 C 
BRANCH   5   6
ATOM      6  O   UNL     1       0.475   2.138 -21.402  0.00  0.00    +0.000 OA
BRANCH   6   7
ATOM      7  C   UNL     1      -0.395   2.829 -20.499  0.00  0.00    +0.000 C 
ATOM      8  H   UNL     1      -1.130   3.407 -21.071  0.00  0.00    +0.000 HD
ATOM      9  H   UNL     1      -0.917   2.102 -19.867  0.00  0.00    +0.000 HD
BRANCH   7  10
ATOM     10  C   UNL     1       0.429   3.760 -19.637  0.00  0.00    +0.000 C 
ATOM     11  H   UNL     1       0.499   3.385 -18.612  0.00  0.00    +0.000 HD
ATOM     12  H   UNL     1       1.441   3.866 -20.043  0.00  0.00    +0.000 HD
ATOM     13  H   UNL     1      -0.013   4.761 -19.617  0.00  0.00    +0.000 HD
ENDBRANCH   7  10
ENDBRANCH   6   7
ENDBRANCH   5   6
ENDBRANCH   1   5
BRANCH   1  14
ATOM     14  C   UNL     1       0.054   3.939 -23.945  0.00  0.00    +0.000 C 
ATOM     15  H   UNL     1      -0.288   4.018 -24.983  0.00  0.00    +0.000 HD
BRANCH  14  16
ATOM     16  C   UNL     1       0.082   5.325 -23.313  0.00  0.00    +0.000 C 
ATOM     17  H   UNL     1       0.671   6.012 -23.932  0.00  0.00    +0.000 HD
ATOM     18  H   UNL     1       0.563   5.299 -22.329  0.00  0.00    +0.000 HD
ATOM     19  H   UNL     1      -0.927   5.733 -23.202  0.00  0.00    +0.000 HD
ENDBRANCH  14  16
BRANCH  14  20
ATOM     20  O   UNL     1       1.380   3.417 -23.957  0.00  0.00    +0.000 OA
ATOM     21  H   UNL     1       1.992   4.152 -23.784  0.00  0.00    +0.000 HD
ENDBRANCH  14  20
ENDBRANCH   1  14
TORSDOF 7
ENDMDL
MODEL 9
REMARK VINA RESULT:    -3.413     15.297     16.302
REMARK INTER + INTRA:          -5.069
REMARK INTER:                  -4.438
REMARK INTRA:                  -0.631
REMARK UNBOUND:                -0.558
REMARK  Name = 62572
REMARK  7 active torsions:
REMARK  status: ('A' for Active; 'I' for Inactive)
REMARK    1  A    between atoms: O_1  and  C_7
REMARK    2  A    between atoms: O_1  and  C_8
REMARK    3  A    between atoms: O_2  and  C_4
REMARK    4  A    between atoms: C_4  and  C_5
REMARK    5  A    between atoms: C_4  and  C_6
REMARK    6  A    between atoms: C_5  and  C_7
REMARK    7  A    between atoms: C_8  and  C_9
REMARK                            x       y       z     vdW  Elec       q    Type
REMARK                         _______ _______ _______ _____ _____    ______ ____
ROOT
ATOM      1  C   UNL     1       0.527   2.602 -20.771  0.00  0.00    +0.000 C 
ATOM      2  H   UNL     1       0.028   3.575 -20.874  0.00  0.00    +0.000 HD
ATOM      3  H   UNL     1       0.168   2.119 -19.856  0.00  0.00    +0.000 HD
ENDROOT
BRANCH   1   5
ATOM      4  O   UNL     1       2.802   2.126 -20.043  0.00  0.00    +0.000 OA
ATOM      5  C   UNL     1       2.011   2.861 -20.618  0.00  0.00    +0.000 C 
BRANCH   5   6
ATOM      6  O   UNL     1       2.316   4.047 -21.224  0.00  0.00    +0.000 OA
BRANCH   6   7
ATOM      7  C   UNL     1       1.468   5.149 -20.885  0.00  0.00    +0.000 C 
ATOM      8  H   UNL     1       1.377   5.819 -21.748  0.00  0.00    +0.000 HD
ATOM      9  H   UNL     1       0.476   4.775 -20.610  0.00  0.00    +0.000 HD
BRANCH   7  10
ATOM     10  C   UNL     1       2.076   5.898 -19.719  0.00  0.00    +0.000 C 
ATOM     11  H   UNL     1       2.828   6.613 -20.063  0.00  0.00    +0.000 HD
ATOM     12  H   UNL     1       1.302   6.439 -19.163  0.00  0.00    +0.000 HD
ATOM     13  H   UNL     1       2.545   5.202 -19.016  0.00  0.00    +0.000 HD
ENDBRANCH   7  10
ENDBRANCH   6   7
ENDBRANCH   5   6
ENDBRANCH   1   5
BRANCH   1  14
ATOM     14  C   UNL     1       0.206   1.753 -22.002  0.00  0.00    +0.000 C 
ATOM     15  H   UNL     1      -0.308   0.829 -21.716  0.00  0.00    +0.000 HD
BRANCH  14  16
ATOM     16  C   UNL     1      -0.653   2.528 -22.994  0.00  0.00    +0.000 C 
ATOM     17  H   UNL     1      -1.626   2.039 -23.114  0.00  0.00    +0.000 HD
ATOM     18  H   UNL     1      -0.187   2.548 -23.985  0.00  0.00    +0.000 HD
ATOM     19  H   UNL     1      -0.817   3.556 -22.659  0.00  0.00    +0.000 HD
ENDBRANCH  14  16
BRANCH  14  20
ATOM     20  O   UNL     1       1.429   1.396 -22.641  0.00  0.00    +0.000 OA
ATOM     21  H   UNL     1       1.431   0.433 -22.765  0.00  0.00    +0.000 HD
ENDBRANCH  14  20
ENDBRANCH   1  14
TORSDOF 7
ENDMDL
MODEL 10
REMARK VINA RESULT:    -3.353     25.955     26.838
REMARK INTER + INTRA:          -4.989
REMARK INTER:                  -4.432
REMARK INTRA:                  -0.558
REMARK UNBOUND:                -0.558
REMARK  Name = 62572
REMARK  7 active torsions:
REMARK  status: ('A' for Active; 'I' for Inactive)
REMARK    1  A    between atoms: O_1  and  C_7
REMARK    2  A    between atoms: O_1  and  C_8
REMARK    3  A    between atoms: O_2  and  C_4
REMARK    4  A    between atoms: C_4  and  C_5
REMARK    5  A    between atoms: C_4  and  C_6
REMARK    6  A    between atoms: C_5  and  C_7
REMARK    7  A    between atoms: C_8  and  C_9
REMARK                            x       y       z     vdW  Elec       q    Type
REMARK                         _______ _______ _______ _____ _____    ______ ____
ROOT
ATOM      1  C   UNL     1      11.713  18.460 -11.756  0.00  0.00    +0.000 C 
ATOM      2  H   UNL     1      10.757  17.947 -11.596  0.00  0.00    +0.000 HD
ATOM      3  H   UNL     1      11.637  19.069 -12.663  0.00  0.00    +0.000 HD
ENDROOT
BRANCH   1   5
ATOM      4  O   UNL     1      12.628  16.204 -11.779  0.00  0.00    +0.000 OA
ATOM      5  C   UNL     1      12.771  17.401 -11.984  0.00  0.00    +0.000 C 
BRANCH   5   6
ATOM      6  O   UNL     1      13.905  18.004 -12.452  0.00  0.00    +0.000 OA
BRANCH   6   7
ATOM      7  C   UNL     1      15.112  17.249 -12.299  0.00  0.00    +0.000 C 
ATOM      8  H   UNL     1      14.865  16.188 -12.175  0.00  0.00    +0.000 HD
ATOM      9  H   UNL     1      15.736  17.375 -13.191  0.00  0.00    +0.000 HD
BRANCH   7  10
ATOM     10  C   UNL     1      15.854  17.748 -11.079  0.00  0.00    +0.000 C 
ATOM     11  H   UNL     1      15.507  18.744 -10.790  0.00  0.00    +0.000 HD
ATOM     12  H   UNL     1      15.708  17.065 -10.234  0.00  0.00    +0.000 HD
ATOM     13  H   UNL     1      16.930  17.790 -11.272  0.00  0.00    +0.000 HD
ENDBRANCH   7  10
ENDBRANCH   6   7
ENDBRANCH   5   6
ENDBRANCH   1   5
BRANCH   1  14
ATOM     14  C   UNL     1      12.014  19.331 -10.535  0.00  0.00    +0.000 C 
ATOM     15  H   UNL     1      12.621  20.200 -10.814  0.00  0.00    +0.000 HD
BRANCH  14  16
ATOM     16  C   UNL     1      10.728  19.803  -9.868  0.00  0.00    +0.000 C 
ATOM     17  H   UNL     1       9.958  19.026  -9.937  0.00  0.00    +0.000 HD
ATOM     18  H   UNL     1      10.325  20.689 -10.370  0.00  0.00    +0.000 HD
ATOM     19  H   UNL     1      10.891  20.039  -8.812  0.00  0.00    +0.000 HD
ENDBRANCH  14  16
BRANCH  14  20
ATOM     20  O   UNL     1      12.757  18.559  -9.596  0.00  0.00    +0.000 OA
ATOM     21  H   UNL     1      12.968  19.131  -8.839  0.00  0.00    +0.000 HD
ENDBRANCH  14  20
ENDBRANCH   1  14
TORSDOF 7
ENDMDL
