MODEL 1
REMARK VINA RESULT:    -4.391      0.000      0.000
REMARK INTER + INTRA:          -6.840
REMARK INTER:                  -6.181
REMARK INTRA:                  -0.659
REMARK UNBOUND:                -0.395
REMARK  Name = 7797
REMARK  9 active torsions:
REMARK  status: ('A' for Active; 'I' for Inactive)
REMARK    1  A    between atoms: O_1  and  C_9
REMARK    2  A    between atoms: O_1  and  C_10
REMARK    3  A    between atoms: C_3  and  C_4
REMARK    4  A    between atoms: C_3  and  C_5
REMARK    5  A    between atoms: C_4  and  C_6
REMARK    6  A    between atoms: C_5  and  C_7
REMARK    7  A    between atoms: C_6  and  C_8
REMARK    8  A    between atoms: C_7  and  C_9
REMARK    9  A    between atoms: C_10  and  C_11
REMARK                            x       y       z     vdW  Elec       q    Type
REMARK                         _______ _______ _______ _____ _____    ______ ____
ROOT
ATOM      1  C   UNL     1      17.918  -4.213  -1.307  0.00  0.00    +0.000 C 
ATOM      2  H   UNL     1      18.307  -3.513  -0.556  0.00  0.00    +0.000 HD
ATOM      3  H   UNL     1      18.441  -5.164  -1.147  0.00  0.00    +0.000 HD
ENDROOT
BRANCH   1   4
ATOM      4  C   UNL     1      16.415  -4.413  -1.092  0.00  0.00    +0.000 C 
ATOM      5  H   UNL     1      16.253  -5.127  -0.275  0.00  0.00    +0.000 HD
ATOM      6  H   UNL     1      15.960  -3.463  -0.787  0.00  0.00    +0.000 HD
BRANCH   4   7
ATOM      7  C   UNL     1      15.735  -4.922  -2.365  0.00  0.00    +0.000 C 
ATOM      8  H   UNL     1      14.850  -4.311  -2.580  0.00  0.00    +0.000 HD
ATOM      9  H   UNL     1      16.420  -4.808  -3.216  0.00  0.00    +0.000 HD
BRANCH   7  10
ATOM     10  C   UNL     1      15.324  -6.387  -2.229  0.00  0.00    +0.000 C 
ATOM     11  H   UNL     1      16.016  -7.022  -2.794  0.00  0.00    +0.000 HD
ATOM     12  H   UNL     1      14.326  -6.535  -2.656  0.00  0.00    +0.000 HD
BRANCH  10  13
ATOM     13  C   UNL     1      15.313  -6.829  -0.774  0.00  0.00    +0.000 C 
ATOM     14  H   UNL     1      14.834  -6.077  -0.139  0.00  0.00    +0.000 HD
ATOM     15  H   UNL     1      16.336  -6.975  -0.415  0.00  0.00    +0.000 HD
ATOM     16  H   UNL     1      14.773  -7.773  -0.655  0.00  0.00    +0.000 HD
ENDBRANCH  10  13
ENDBRANCH   7  10
ENDBRANCH   4   7
ENDBRANCH   1   4
BRANCH   1  17
ATOM     17  C   UNL     1      18.243  -3.687  -2.706  0.00  0.00    +0.000 C 
ATOM     18  H   UNL     1      17.333  -3.692  -3.319  0.00  0.00    +0.000 HD
ATOM     19  H   UNL     1      18.611  -2.658  -2.628  0.00  0.00    +0.000 HD
BRANCH  17  21
ATOM     20  O   UNL     1      20.248  -4.052  -4.032  0.00  0.00    +0.000 OA
ATOM     21  C   UNL     1      19.290  -4.508  -3.423  0.00  0.00    +0.000 C 
BRANCH  21  22
ATOM     22  O   UNL     1      18.975  -5.833  -3.304  0.00  0.00    +0.000 OA
BRANCH  22  23
ATOM     23  C   UNL     1      19.013  -6.587  -4.520  0.00  0.00    +0.000 C 
ATOM     24  H   UNL     1      19.688  -6.094  -5.229  0.00  0.00    +0.000 HD
ATOM     25  H   UNL     1      19.389  -7.594  -4.309  0.00  0.00    +0.000 HD
BRANCH  23  26
ATOM     26  C   UNL     1      17.641  -6.667  -5.098  0.00  0.00    +0.000 C 
ATOM     27  H   UNL     1      17.664  -7.064  -6.117  0.00  0.00    +0.000 HD
ATOM     28  H   UNL     1      16.998  -7.310  -4.487  0.00  0.00    +0.000 HD
ATOM     29  H   UNL     1      17.168  -5.680  -5.119  0.00  0.00    +0.000 HD
ENDBRANCH  23  26
ENDBRANCH  22  23
ENDBRANCH  21  22
ENDBRANCH  17  21
ENDBRANCH   1  17
TORSDOF 9
ENDMDL
MODEL 2
REMARK VINA RESULT:    -4.297     26.099     27.572
REMARK INTER + INTRA:          -6.702
REMARK INTER:                  -6.251
REMARK INTRA:                  -0.451
REMARK UNBOUND:                -0.395
REMARK  Name = 7797
REMARK  9 active torsions:
REMARK  status: ('A' for Active; 'I' for Inactive)
REMARK    1  A    between atoms: O_1  and  C_9
REMARK    2  A    between atoms: O_1  and  C_10
REMARK    3  A    between atoms: C_3  and  C_4
REMARK    4  A    between atoms: C_3  and  C_5
REMARK    5  A    between atoms: C_4  and  C_6
REMARK    6  A    between atoms: C_5  and  C_7
REMARK    7  A    between atoms: C_6  and  C_8
REMARK    8  A    between atoms: C_7  and  C_9
REMARK    9  A    between atoms: C_10  and  C_11
REMARK                            x       y       z     vdW  Elec       q    Type
REMARK                         _______ _______ _______ _____ _____    ______ ____
ROOT
ATOM      1  C   UNL     1      -8.056 -13.115   5.179  0.00  0.00    +0.000 C 
ATOM      2  H   UNL     1      -8.504 -13.978   4.667  0.00  0.00    +0.000 HD
ATOM      3  H   UNL     1      -8.789 -12.302   5.116  0.00  0.00    +0.000 HD
ENDROOT
BRANCH   1   4
ATOM      4  C   UNL     1      -7.806 -13.465   6.650  0.00  0.00    +0.000 C 
ATOM      5  H   UNL     1      -6.764 -13.243   6.908  0.00  0.00    +0.000 HD
ATOM      6  H   UNL     1      -8.439 -12.836   7.287  0.00  0.00    +0.000 HD
BRANCH   4   7
ATOM      7  C   UNL     1      -8.104 -14.940   6.927  0.00  0.00    +0.000 C 
ATOM      8  H   UNL     1      -7.162 -15.494   7.031  0.00  0.00    +0.000 HD
ATOM      9  H   UNL     1      -8.639 -15.032   7.881  0.00  0.00    +0.000 HD
BRANCH   7  10
ATOM     10  C   UNL     1      -8.939 -15.559   5.808  0.00  0.00    +0.000 C 
ATOM     11  H   UNL     1      -8.347 -15.608   4.886  0.00  0.00    +0.000 HD
ATOM     12  H   UNL     1      -9.810 -14.927   5.600  0.00  0.00    +0.000 HD
BRANCH  10  13
ATOM     13  C   UNL     1      -9.413 -16.956   6.174  0.00  0.00    +0.000 C 
ATOM     14  H   UNL     1      -9.814 -16.980   7.192  0.00  0.00    +0.000 HD
ATOM     15  H   UNL     1      -8.581 -17.665   6.119  0.00  0.00    +0.000 HD
ATOM     16  H   UNL     1     -10.196 -17.297   5.488  0.00  0.00    +0.000 HD
ENDBRANCH  10  13
ENDBRANCH   7  10
ENDBRANCH   4   7
ENDBRANCH   1   4
BRANCH   1  17
ATOM     17  C   UNL     1      -6.777 -12.702   4.451  0.00  0.00    +0.000 C 
ATOM     18  H   UNL     1      -7.003 -11.897   3.742  0.00  0.00    +0.000 HD
ATOM     19  H   UNL     1      -6.048 -12.334   5.183  0.00  0.00    +0.000 HD
BRANCH  17  21
ATOM     20  O   UNL     1      -5.712 -14.870   4.172  0.00  0.00    +0.000 OA
ATOM     21  C   UNL     1      -6.137 -13.834   3.680  0.00  0.00    +0.000 C 
BRANCH  21  22
ATOM     22  O   UNL     1      -6.086 -13.497   2.357  0.00  0.00    +0.000 OA
BRANCH  22  23
ATOM     23  C   UNL     1      -7.174 -13.971   1.558  0.00  0.00    +0.000 C 
ATOM     24  H   UNL     1      -7.088 -15.057   1.439  0.00  0.00    +0.000 HD
ATOM     25  H   UNL     1      -8.119 -13.739   2.061  0.00  0.00    +0.000 HD
BRANCH  23  26
ATOM     26  C   UNL     1      -7.134 -13.311   0.222  0.00  0.00    +0.000 C 
ATOM     27  H   UNL     1      -6.108 -13.075  -0.074  0.00  0.00    +0.000 HD
ATOM     28  H   UNL     1      -7.579 -13.955  -0.545  0.00  0.00    +0.000 HD
ATOM     29  H   UNL     1      -7.717 -12.383   0.228  0.00  0.00    +0.000 HD
ENDBRANCH  23  26
ENDBRANCH  22  23
ENDBRANCH  21  22
ENDBRANCH  17  21
ENDBRANCH   1  17
TORSDOF 9
ENDMDL
MODEL 3
REMARK VINA RESULT:    -4.201      1.285      2.157
REMARK INTER + INTRA:          -6.561
REMARK INTER:                  -6.024
REMARK INTRA:                  -0.537
REMARK UNBOUND:                -0.395
REMARK  Name = 7797
REMARK  9 active torsions:
REMARK  status: ('A' for Active; 'I' for Inactive)
REMARK    1  A    between atoms: O_1  and  C_9
REMARK    2  A    between atoms: O_1  and  C_10
REMARK    3  A    between atoms: C_3  and  C_4
REMARK    4  A    between atoms: C_3  and  C_5
REMARK    5  A    between atoms: C_4  and  C_6
REMARK    6  A    between atoms: C_5  and  C_7
REMARK    7  A    between atoms: C_6  and  C_8
REMARK    8  A    between atoms: C_7  and  C_9
REMARK    9  A    between atoms: C_10  and  C_11
REMARK                            x       y       z     vdW  Elec       q    Type
REMARK                         _______ _______ _______ _____ _____    ______ ____
ROOT
ATOM      1  C   UNL     1      15.591  -5.498  -2.512  0.00  0.00    +0.000 C 
ATOM      2  H   UNL     1      15.952  -5.937  -3.451  0.00  0.00    +0.000 HD
ATOM      3  H   UNL     1      14.747  -4.849  -2.775  0.00  0.00    +0.000 HD
ENDROOT
BRANCH   1   4
ATOM      4  C   UNL     1      15.106  -6.613  -1.578  0.00  0.00    +0.000 C 
ATOM      5  H   UNL     1      14.142  -6.330  -1.139  0.00  0.00    +0.000 HD
ATOM      6  H   UNL     1      14.942  -7.529  -2.159  0.00  0.00    +0.000 HD
BRANCH   4   7
ATOM      7  C   UNL     1      16.121  -6.885  -0.466  0.00  0.00    +0.000 C 
ATOM      8  H   UNL     1      16.646  -7.827  -0.669  0.00  0.00    +0.000 HD
ATOM      9  H   UNL     1      16.877  -6.089  -0.458  0.00  0.00    +0.000 HD
BRANCH   7  10
ATOM     10  C   UNL     1      15.442  -6.963   0.900  0.00  0.00    +0.000 C 
ATOM     11  H   UNL     1      15.962  -7.690   1.534  0.00  0.00    +0.000 HD
ATOM     12  H   UNL     1      14.410  -7.313   0.783  0.00  0.00    +0.000 HD
BRANCH  10  13
ATOM     13  C   UNL     1      15.432  -5.610   1.594  0.00  0.00    +0.000 C 
ATOM     14  H   UNL     1      14.516  -5.476   2.178  0.00  0.00    +0.000 HD
ATOM     15  H   UNL     1      15.485  -4.804   0.856  0.00  0.00    +0.000 HD
ATOM     16  H   UNL     1      16.287  -5.509   2.270  0.00  0.00    +0.000 HD
ENDBRANCH  10  13
ENDBRANCH   7  10
ENDBRANCH   4   7
ENDBRANCH   1   4
BRANCH   1  17
ATOM     17  C   UNL     1      16.702  -4.655  -1.886  0.00  0.00    +0.000 C 
ATOM     18  H   UNL     1      16.370  -3.613  -1.805  0.00  0.00    +0.000 HD
ATOM     19  H   UNL     1      16.921  -5.035  -0.881  0.00  0.00    +0.000 HD
BRANCH  17  21
ATOM     20  O   UNL     1      18.661  -3.690  -2.955  0.00  0.00    +0.000 OA
ATOM     21  C   UNL     1      17.985  -4.673  -2.685  0.00  0.00    +0.000 C 
BRANCH  21  22
ATOM     22  O   UNL     1      18.246  -5.956  -3.078  0.00  0.00    +0.000 OA
BRANCH  22  23
ATOM     23  C   UNL     1      18.721  -6.104  -4.420  0.00  0.00    +0.000 C 
ATOM     24  H   UNL     1      18.961  -5.116  -4.829  0.00  0.00    +0.000 HD
ATOM     25  H   UNL     1      19.626  -6.720  -4.417  0.00  0.00    +0.000 HD
BRANCH  23  26
ATOM     26  C   UNL     1      17.667  -6.753  -5.251  0.00  0.00    +0.000 C 
ATOM     27  H   UNL     1      17.041  -7.418  -4.649  0.00  0.00    +0.000 HD
ATOM     28  H   UNL     1      17.025  -6.002  -5.723  0.00  0.00    +0.000 HD
ATOM     29  H   UNL     1      18.115  -7.337  -6.062  0.00  0.00    +0.000 HD
ENDBRANCH  23  26
ENDBRANCH  22  23
ENDBRANCH  21  22
ENDBRANCH  17  21
ENDBRANCH   1  17
TORSDOF 9
ENDMDL
MODEL 4
REMARK VINA RESULT:    -4.089      2.742      4.615
REMARK INTER + INTRA:          -6.396
REMARK INTER:                  -5.829
REMARK INTRA:                  -0.568
REMARK UNBOUND:                -0.395
REMARK  Name = 7797
REMARK  9 active torsions:
REMARK  status: ('A' for Active; 'I' for Inactive)
REMARK    1  A    between atoms: O_1  and  C_9
REMARK    2  A    between atoms: O_1  and  C_10
REMARK    3  A    between atoms: C_3  and  C_4
REMARK    4  A    between atoms: C_3  and  C_5
REMARK    5  A    between atoms: C_4  and  C_6
REMARK    6  A    between atoms: C_5  and  C_7
REMARK    7  A    between atoms: C_6  and  C_8
REMARK    8  A    between atoms: C_7  and  C_9
REMARK    9  A    between atoms: C_10  and  C_11
REMARK                            x       y       z     vdW  Elec       q    Type
REMARK                         _______ _______ _______ _____ _____    ______ ____
ROOT
ATOM      1  C   UNL     1      15.854  -5.073  -2.076  0.00  0.00    +0.000 C 
ATOM      2  H   UNL     1      16.520  -4.584  -1.353  0.00  0.00    +0.000 HD
ATOM      3  H   UNL     1      14.981  -4.419  -2.188  0.00  0.00    +0.000 HD
ENDROOT
BRANCH   1   4
ATOM      4  C   UNL     1      16.571  -5.205  -3.424  0.00  0.00    +0.000 C 
ATOM      5  H   UNL     1      16.112  -6.013  -4.007  0.00  0.00    +0.000 HD
ATOM      6  H   UNL     1      16.443  -4.279  -3.997  0.00  0.00    +0.000 HD
BRANCH   4   7
ATOM      7  C   UNL     1      18.062  -5.490  -3.234  0.00  0.00    +0.000 C 
ATOM      8  H   UNL     1      18.636  -4.565  -3.380  0.00  0.00    +0.000 HD
ATOM      9  H   UNL     1      18.243  -5.822  -2.203  0.00  0.00    +0.000 HD
BRANCH   7  10
ATOM     10  C   UNL     1      18.554  -6.556  -4.211  0.00  0.00    +0.000 C 
ATOM     11  H   UNL     1      18.729  -7.497  -3.678  0.00  0.00    +0.000 HD
ATOM     12  H   UNL     1      19.511  -6.248  -4.647  0.00  0.00    +0.000 HD
BRANCH  10  13
ATOM     13  C   UNL     1      17.551  -6.792  -5.329  0.00  0.00    +0.000 C 
ATOM     14  H   UNL     1      17.753  -7.736  -5.844  0.00  0.00    +0.000 HD
ATOM     15  H   UNL     1      17.608  -5.984  -6.065  0.00  0.00    +0.000 HD
ATOM     16  H   UNL     1      16.529  -6.825  -4.939  0.00  0.00    +0.000 HD
ENDBRANCH  10  13
ENDBRANCH   7  10
ENDBRANCH   4   7
ENDBRANCH   1   4
BRANCH   1  17
ATOM     17  C   UNL     1      15.406  -6.425  -1.519  0.00  0.00    +0.000 C 
ATOM     18  H   UNL     1      14.321  -6.529  -1.639  0.00  0.00    +0.000 HD
ATOM     19  H   UNL     1      15.902  -7.228  -2.076  0.00  0.00    +0.000 HD
BRANCH  17  21
ATOM     20  O   UNL     1      15.449  -5.805   0.833  0.00  0.00    +0.000 OA
ATOM     21  C   UNL     1      15.730  -6.601  -0.053  0.00  0.00    +0.000 C 
BRANCH  21  22
ATOM     22  O   UNL     1      16.411  -7.775   0.114  0.00  0.00    +0.000 OA
BRANCH  22  23
ATOM     23  C   UNL     1      17.634  -7.678   0.851  0.00  0.00    +0.000 C 
ATOM     24  H   UNL     1      17.520  -6.929   1.642  0.00  0.00    +0.000 HD
ATOM     25  H   UNL     1      17.858  -8.649   1.307  0.00  0.00    +0.000 HD
BRANCH  23  26
ATOM     26  C   UNL     1      18.738  -7.282  -0.068  0.00  0.00    +0.000 C 
ATOM     27  H   UNL     1      19.366  -6.505   0.378  0.00  0.00    +0.000 HD
ATOM     28  H   UNL     1      19.370  -8.143  -0.313  0.00  0.00    +0.000 HD
ATOM     29  H   UNL     1      18.340  -6.906  -1.017  0.00  0.00    +0.000 HD
ENDBRANCH  23  26
ENDBRANCH  22  23
ENDBRANCH  21  22
ENDBRANCH  17  21
ENDBRANCH   1  17
TORSDOF 9
ENDMDL
MODEL 5
REMARK VINA RESULT:    -4.026     36.504     37.864
REMARK INTER + INTRA:          -6.304
REMARK INTER:                  -5.776
REMARK INTRA:                  -0.527
REMARK UNBOUND:                -0.395
REMARK  Name = 7797
REMARK  9 active torsions:
REMARK  status: ('A' for Active; 'I' for Inactive)
REMARK    1  A    between atoms: O_1  and  C_9
REMARK    2  A    between atoms: O_1  and  C_10
REMARK    3  A    between atoms: C_3  and  C_4
REMARK    4  A    between atoms: C_3  and  C_5
REMARK    5  A    between atoms: C_4  and  C_6
REMARK    6  A    between atoms: C_5  and  C_7
REMARK    7  A    between atoms: C_6  and  C_8
REMARK    8  A    between atoms: C_7  and  C_9
REMARK    9  A    between atoms: C_10  and  C_11
REMARK                            x       y       z     vdW  Elec       q    Type
REMARK                         _______ _______ _______ _____ _____    ______ ____
ROOT
ATOM      1  C   UNL     1      -3.847   4.255  24.811  0.00  0.00    +0.000 C 
ATOM      2  H   UNL     1      -3.753   3.535  23.988  0.00  0.00    +0.000 HD
ATOM      3  H   UNL     1      -3.565   3.721  25.726  0.00  0.00    +0.000 HD
ENDROOT
BRANCH   1   4
ATOM      4  C   UNL     1      -2.882   5.423  24.583  0.00  0.00    +0.000 C 
ATOM      5  H   UNL     1      -2.021   5.080  23.996  0.00  0.00    +0.000 HD
ATOM      6  H   UNL     1      -3.384   6.203  23.998  0.00  0.00    +0.000 HD
BRANCH   4   7
ATOM      7  C   UNL     1      -2.399   6.011  25.911  0.00  0.00    +0.000 C 
ATOM      8  H   UNL     1      -3.048   6.846  26.203  0.00  0.00    +0.000 HD
ATOM      9  H   UNL     1      -2.480   5.250  26.699  0.00  0.00    +0.000 HD
BRANCH   7  10
ATOM     10  C   UNL     1      -0.954   6.497  25.812  0.00  0.00    +0.000 C 
ATOM     11  H   UNL     1      -0.934   7.590  25.731  0.00  0.00    +0.000 HD
ATOM     12  H   UNL     1      -0.488   6.095  24.905  0.00  0.00    +0.000 HD
BRANCH  10  13
ATOM     13  C   UNL     1      -0.138   6.069  27.022  0.00  0.00    +0.000 C 
ATOM     14  H   UNL     1       0.157   5.018  26.944  0.00  0.00    +0.000 HD
ATOM     15  H   UNL     1      -0.726   6.190  27.937  0.00  0.00    +0.000 HD
ATOM     16  H   UNL     1       0.768   6.674  27.118  0.00  0.00    +0.000 HD
ENDBRANCH  10  13
ENDBRANCH   7  10
ENDBRANCH   4   7
ENDBRANCH   1   4
BRANCH   1  17
ATOM     17  C   UNL     1      -5.301   4.713  24.920  0.00  0.00    +0.000 C 
ATOM     18  H   UNL     1      -5.398   5.726  24.512  0.00  0.00    +0.000 HD
ATOM     19  H   UNL     1      -5.938   4.035  24.339  0.00  0.00    +0.000 HD
BRANCH  17  21
ATOM     20  O   UNL     1      -6.608   5.549  26.793  0.00  0.00    +0.000 OA
ATOM     21  C   UNL     1      -5.814   4.735  26.343  0.00  0.00    +0.000 C 
BRANCH  21  22
ATOM     22  O   UNL     1      -5.224   3.720  27.043  0.00  0.00    +0.000 OA
BRANCH  22  23
ATOM     23  C   UNL     1      -4.675   4.087  28.313  0.00  0.00    +0.000 C 
ATOM     24  H   UNL     1      -4.628   5.179  28.385  0.00  0.00    +0.000 HD
ATOM     25  H   UNL     1      -5.322   3.703  29.110  0.00  0.00    +0.000 HD
BRANCH  23  26
ATOM     26  C   UNL     1      -3.307   3.511  28.448  0.00  0.00    +0.000 C 
ATOM     27  H   UNL     1      -3.325   2.572  29.009  0.00  0.00    +0.000 HD
ATOM     28  H   UNL     1      -2.865   3.321  27.464  0.00  0.00    +0.000 HD
ATOM     29  H   UNL     1      -2.638   4.210  28.962  0.00  0.00    +0.000 HD
ENDBRANCH  23  26
ENDBRANCH  22  23
ENDBRANCH  21  22
ENDBRANCH  17  21
ENDBRANCH   1  17
TORSDOF 9
ENDMDL
MODEL 6
REMARK VINA RESULT:    -4.023     23.987     24.801
REMARK INTER + INTRA:          -6.300
REMARK INTER:                  -5.843
REMARK INTRA:                  -0.457
REMARK UNBOUND:                -0.395
REMARK  Name = 7797
REMARK  9 active torsions:
REMARK  status: ('A' for Active; 'I' for Inactive)
REMARK    1  A    between atoms: O_1  and  C_9
REMARK    2  A    between atoms: O_1  and  C_10
REMARK    3  A    between atoms: C_3  and  C_4
REMARK    4  A    between atoms: C_3  and  C_5
REMARK    5  A    between atoms: C_4  and  C_6
REMARK    6  A    between atoms: C_5  and  C_7
REMARK    7  A    between atoms: C_6  and  C_8
REMARK    8  A    between atoms: C_7  and  C_9
REMARK    9  A    between atoms: C_10  and  C_11
REMARK                            x       y       z     vdW  Elec       q    Type
REMARK                         _______ _______ _______ _____ _____    ______ ____
ROOT
ATOM      1  C   UNL     1       3.013   6.327 -20.141  0.00  0.00    +0.000 C 
ATOM      2  H   UNL     1       2.953   7.292 -20.661  0.00  0.00    +0.000 HD
ATOM      3  H   UNL     1       3.240   5.574 -20.905  0.00  0.00    +0.000 HD
ENDROOT
BRANCH   1   4
ATOM      4  C   UNL     1       4.146   6.369 -19.111  0.00  0.00    +0.000 C 
ATOM      5  H   UNL     1       4.741   7.278 -19.256  0.00  0.00    +0.000 HD
ATOM      6  H   UNL     1       3.720   6.418 -18.101  0.00  0.00    +0.000 HD
BRANCH   4   7
ATOM      7  C   UNL     1       5.047   5.137 -19.228  0.00  0.00    +0.000 C 
ATOM      8  H   UNL     1       4.430   4.231 -19.267  0.00  0.00    +0.000 HD
ATOM      9  H   UNL     1       5.611   5.185 -20.168  0.00  0.00    +0.000 HD
BRANCH   7  10
ATOM     10  C   UNL     1       6.017   5.045 -18.051  0.00  0.00    +0.000 C 
ATOM     11  H   UNL     1       5.458   5.010 -17.109  0.00  0.00    +0.000 HD
ATOM     12  H   UNL     1       6.651   5.938 -18.020  0.00  0.00    +0.000 HD
BRANCH  10  13
ATOM     13  C   UNL     1       6.901   3.812 -18.154  0.00  0.00    +0.000 C 
ATOM     14  H   UNL     1       6.357   2.975 -18.604  0.00  0.00    +0.000 HD
ATOM     15  H   UNL     1       7.237   3.503 -17.159  0.00  0.00    +0.000 HD
ATOM     16  H   UNL     1       7.787   4.013 -18.765  0.00  0.00    +0.000 HD
ENDBRANCH  10  13
ENDBRANCH   7  10
ENDBRANCH   4   7
ENDBRANCH   1   4
BRANCH   1  17
ATOM     17  C   UNL     1       1.659   6.009 -19.505  0.00  0.00    +0.000 C 
ATOM     18  H   UNL     1       1.812   5.606 -18.498  0.00  0.00    +0.000 HD
ATOM     19  H   UNL     1       1.070   6.931 -19.431  0.00  0.00    +0.000 HD
BRANCH  17  21
ATOM     20  O   UNL     1       0.305   5.217 -21.364  0.00  0.00    +0.000 OA
ATOM     21  C   UNL     1       0.853   5.000 -20.292  0.00  0.00    +0.000 C 
BRANCH  21  22
ATOM     22  O   UNL     1       0.815   3.824 -19.597  0.00  0.00    +0.000 OA
BRANCH  22  23
ATOM     23  C   UNL     1       1.158   2.654 -20.346  0.00  0.00    +0.000 C 
ATOM     24  H   UNL     1       0.658   1.784 -19.907  0.00  0.00    +0.000 HD
ATOM     25  H   UNL     1       0.820   2.776 -21.381  0.00  0.00    +0.000 HD
BRANCH  23  26
ATOM     26  C   UNL     1       2.635   2.459 -20.314  0.00  0.00    +0.000 C 
ATOM     27  H   UNL     1       3.103   2.822 -21.234  0.00  0.00    +0.000 HD
ATOM     28  H   UNL     1       3.080   2.988 -19.464  0.00  0.00    +0.000 HD
ATOM     29  H   UNL     1       2.887   1.400 -20.190  0.00  0.00    +0.000 HD
ENDBRANCH  23  26
ENDBRANCH  22  23
ENDBRANCH  21  22
ENDBRANCH  17  21
ENDBRANCH   1  17
TORSDOF 9
ENDMDL
MODEL 7
REMARK VINA RESULT:    -3.989      1.901      2.756
REMARK INTER + INTRA:          -6.249
REMARK INTER:                  -5.875
REMARK INTRA:                  -0.374
REMARK UNBOUND:                -0.395
REMARK  Name = 7797
REMARK  9 active torsions:
REMARK  status: ('A' for Active; 'I' for Inactive)
REMARK    1  A    between atoms: O_1  and  C_9
REMARK    2  A    between atoms: O_1  and  C_10
REMARK    3  A    between atoms: C_3  and  C_4
REMARK    4  A    between atoms: C_3  and  C_5
REMARK    5  A    between atoms: C_4  and  C_6
REMARK    6  A    between atoms: C_5  and  C_7
REMARK    7  A    between atoms: C_6  and  C_8
REMARK    8  A    between atoms: C_7  and  C_9
REMARK    9  A    between atoms: C_10  and  C_11
REMARK                            x       y       z     vdW  Elec       q    Type
REMARK                         _______ _______ _______ _____ _____    ______ ____
ROOT
ATOM      1  C   UNL     1      18.011  -6.201  -4.400  0.00  0.00    +0.000 C 
ATOM      2  H   UNL     1      18.094  -7.179  -4.893  0.00  0.00    +0.000 HD
ATOM      3  H   UNL     1      17.961  -5.452  -5.199  0.00  0.00    +0.000 HD
ENDROOT
BRANCH   1   4
ATOM      4  C   UNL     1      16.723  -6.153  -3.572  0.00  0.00    +0.000 C 
ATOM      5  H   UNL     1      15.858  -6.307  -4.228  0.00  0.00    +0.000 HD
ATOM      6  H   UNL     1      16.727  -6.972  -2.842  0.00  0.00    +0.000 HD
BRANCH   4   7
ATOM      7  C   UNL     1      16.584  -4.816  -2.840  0.00  0.00    +0.000 C 
ATOM      8  H   UNL     1      17.579  -4.439  -2.569  0.00  0.00    +0.000 HD
ATOM      9  H   UNL     1      16.131  -4.076  -3.513  0.00  0.00    +0.000 HD
BRANCH   7  10
ATOM     10  C   UNL     1      15.730  -4.957  -1.581  0.00  0.00    +0.000 C 
ATOM     11  H   UNL     1      14.770  -4.447  -1.724  0.00  0.00    +0.000 HD
ATOM     12  H   UNL     1      16.231  -4.473  -0.735  0.00  0.00    +0.000 HD
BRANCH  10  13
ATOM     13  C   UNL     1      15.477  -6.417  -1.241  0.00  0.00    +0.000 C 
ATOM     14  H   UNL     1      16.222  -7.065  -1.714  0.00  0.00    +0.000 HD
ATOM     15  H   UNL     1      14.487  -6.722  -1.594  0.00  0.00    +0.000 HD
ATOM     16  H   UNL     1      15.517  -6.580  -0.160  0.00  0.00    +0.000 HD
ENDBRANCH  10  13
ENDBRANCH   7  10
ENDBRANCH   4   7
ENDBRANCH   1   4
BRANCH   1  17
ATOM     17  C   UNL     1      19.259  -5.954  -3.552  0.00  0.00    +0.000 C 
ATOM     18  H   UNL     1      18.966  -5.785  -2.509  0.00  0.00    +0.000 HD
ATOM     19  H   UNL     1      19.907  -6.838  -3.598  0.00  0.00    +0.000 HD
BRANCH  17  21
ATOM     20  O   UNL     1      19.895  -3.609  -3.627  0.00  0.00    +0.000 OA
ATOM     21  C   UNL     1      20.063  -4.758  -4.009  0.00  0.00    +0.000 C 
BRANCH  21  22
ATOM     22  O   UNL     1      20.981  -5.168  -4.935  0.00  0.00    +0.000 OA
BRANCH  22  23
ATOM     23  C   UNL     1      21.967  -6.089  -4.459  0.00  0.00    +0.000 C 
ATOM     24  H   UNL     1      22.096  -5.955  -3.380  0.00  0.00    +0.000 HD
ATOM     25  H   UNL     1      21.629  -7.113  -4.655  0.00  0.00    +0.000 HD
BRANCH  23  26
ATOM     26  C   UNL     1      23.260  -5.839  -5.158  0.00  0.00    +0.000 C 
ATOM     27  H   UNL     1      23.915  -6.713  -5.105  0.00  0.00    +0.000 HD
ATOM     28  H   UNL     1      23.092  -5.593  -6.213  0.00  0.00    +0.000 HD
ATOM     29  H   UNL     1      23.783  -4.984  -4.717  0.00  0.00    +0.000 HD
ENDBRANCH  23  26
ENDBRANCH  22  23
ENDBRANCH  21  22
ENDBRANCH  17  21
ENDBRANCH   1  17
TORSDOF 9
ENDMDL
MODEL 8
REMARK VINA RESULT:    -3.880     31.440     33.048
REMARK INTER + INTRA:          -6.090
REMARK INTER:                  -5.609
REMARK INTRA:                  -0.481
REMARK UNBOUND:                -0.395
REMARK  Name = 7797
REMARK  9 active torsions:
REMARK  status: ('A' for Active; 'I' for Inactive)
REMARK    1  A    between atoms: O_1  and  C_9
REMARK    2  A    between atoms: O_1  and  C_10
REMARK    3  A    between atoms: C_3  and  C_4
REMARK    4  A    between atoms: C_3  and  C_5
REMARK    5  A    between atoms: C_4  and  C_6
REMARK    6  A    between atoms: C_5  and  C_7
REMARK    7  A    between atoms: C_6  and  C_8
REMARK    8  A    between atoms: C_7  and  C_9
REMARK    9  A    between atoms: C_10  and  C_11
REMARK                            x       y       z     vdW  Elec       q    Type
REMARK                         _______ _______ _______ _____ _____    ______ ____
ROOT
ATOM      1  C   UNL     1     -15.880  -5.873  -4.136  0.00  0.00    +0.000 C 
ATOM      2  H   UNL     1     -16.682  -6.556  -4.446  0.00  0.00    +0.000 HD
ATOM      3  H   UNL     1     -15.884  -5.043  -4.853  0.00  0.00    +0.000 HD
ENDROOT
BRANCH   1   4
ATOM      4  C   UNL     1     -16.176  -5.338  -2.732  0.00  0.00    +0.000 C 
ATOM      5  H   UNL     1     -15.238  -5.229  -2.175  0.00  0.00    +0.000 HD
ATOM      6  H   UNL     1     -16.626  -4.340  -2.809  0.00  0.00    +0.000 HD
BRANCH   4   7
ATOM      7  C   UNL     1     -17.124  -6.269  -1.972  0.00  0.00    +0.000 C 
ATOM      8  H   UNL     1     -16.668  -7.263  -1.880  0.00  0.00    +0.000 HD
ATOM      9  H   UNL     1     -17.273  -5.887  -0.954  0.00  0.00    +0.000 HD
BRANCH   7  10
ATOM     10  C   UNL     1     -18.472  -6.389  -2.680  0.00  0.00    +0.000 C 
ATOM     11  H   UNL     1     -18.835  -7.421  -2.617  0.00  0.00    +0.000 HD
ATOM     12  H   UNL     1     -18.357  -6.149  -3.743  0.00  0.00    +0.000 HD
BRANCH  10  13
ATOM     13  C   UNL     1     -19.506  -5.456  -2.069  0.00  0.00    +0.000 C 
ATOM     14  H   UNL     1     -20.386  -6.014  -1.731  0.00  0.00    +0.000 HD
ATOM     15  H   UNL     1     -19.835  -4.719  -2.807  0.00  0.00    +0.000 HD
ATOM     16  H   UNL     1     -19.091  -4.918  -1.211  0.00  0.00    +0.000 HD
ENDBRANCH  10  13
ENDBRANCH   7  10
ENDBRANCH   4   7
ENDBRANCH   1   4
BRANCH   1  17
ATOM     17  C   UNL     1     -14.538  -6.601  -4.213  0.00  0.00    +0.000 C 
ATOM     18  H   UNL     1     -14.299  -7.033  -3.233  0.00  0.00    +0.000 HD
ATOM     19  H   UNL     1     -14.608  -7.411  -4.948  0.00  0.00    +0.000 HD
BRANCH  17  21
ATOM     20  O   UNL     1     -12.307  -5.646  -4.053  0.00  0.00    +0.000 OA
ATOM     21  C   UNL     1     -13.393  -5.699  -4.614  0.00  0.00    +0.000 C 
BRANCH  21  22
ATOM     22  O   UNL     1     -13.780  -4.938  -5.681  0.00  0.00    +0.000 OA
BRANCH  22  23
ATOM     23  C   UNL     1     -13.151  -3.657  -5.784  0.00  0.00    +0.000 C 
ATOM     24  H   UNL     1     -12.126  -3.726  -5.404  0.00  0.00    +0.000 HD
ATOM     25  H   UNL     1     -13.122  -3.352  -6.837  0.00  0.00    +0.000 HD
BRANCH  23  26
ATOM     26  C   UNL     1     -13.920  -2.659  -4.988  0.00  0.00    +0.000 C 
ATOM     27  H   UNL     1     -14.704  -3.142  -4.398  0.00  0.00    +0.000 HD
ATOM     28  H   UNL     1     -13.260  -2.109  -4.308  0.00  0.00    +0.000 HD
ATOM     29  H   UNL     1     -14.386  -1.914  -5.642  0.00  0.00    +0.000 HD
ENDBRANCH  23  26
ENDBRANCH  22  23
ENDBRANCH  21  22
ENDBRANCH  17  21
ENDBRANCH   1  17
TORSDOF 9
ENDMDL
MODEL 9
REMARK VINA RESULT:    -3.878     35.359     37.206
REMARK INTER + INTRA:          -6.086
REMARK INTER:                  -5.691
REMARK INTRA:                  -0.395
REMARK UNBOUND:                -0.395
REMARK  Name = 7797
REMARK  9 active torsions:
REMARK  status: ('A' for Active; 'I' for Inactive)
REMARK    1  A    between atoms: O_1  and  C_9
REMARK    2  A    between atoms: O_1  and  C_10
REMARK    3  A    between atoms: C_3  and  C_4
REMARK    4  A    between atoms: C_3  and  C_5
REMARK    5  A    between atoms: C_4  and  C_6
REMARK    6  A    between atoms: C_5  and  C_7
REMARK    7  A    between atoms: C_6  and  C_8
REMARK    8  A    between atoms: C_7  and  C_9
REMARK    9  A    between atoms: C_10  and  C_11
REMARK                            x       y       z     vdW  Elec       q    Type
REMARK                         _______ _______ _______ _____ _____    ______ ____
ROOT
ATOM      1  C   UNL     1      -3.211   5.310  24.599  0.00  0.00    +0.000 C 
ATOM      2  H   UNL     1      -3.948   6.052  24.264  0.00  0.00    +0.000 HD
ATOM      3  H   UNL     1      -2.750   4.897  23.694  0.00  0.00    +0.000 HD
ENDROOT
BRANCH   1   4
ATOM      4  C   UNL     1      -2.140   6.000  25.450  0.00  0.00    +0.000 C 
ATOM      5  H   UNL     1      -2.611   6.482  26.315  0.00  0.00    +0.000 HD
ATOM      6  H   UNL     1      -1.442   5.248  25.838  0.00  0.00    +0.000 HD
BRANCH   4   7
ATOM      7  C   UNL     1      -1.370   7.041  24.634  0.00  0.00    +0.000 C 
ATOM      8  H   UNL     1      -1.879   8.011  24.700  0.00  0.00    +0.000 HD
ATOM      9  H   UNL     1      -0.368   7.172  25.062  0.00  0.00    +0.000 HD
BRANCH   7  10
ATOM     10  C   UNL     1      -1.253   6.624  23.170  0.00  0.00    +0.000 C 
ATOM     11  H   UNL     1      -2.018   5.875  22.933  0.00  0.00    +0.000 HD
ATOM     12  H   UNL     1      -0.277   6.158  22.992  0.00  0.00    +0.000 HD
BRANCH  10  13
ATOM     13  C   UNL     1      -1.413   7.814  22.237  0.00  0.00    +0.000 C 
ATOM     14  H   UNL     1      -0.974   7.606  21.256  0.00  0.00    +0.000 HD
ATOM     15  H   UNL     1      -0.911   8.693  22.654  0.00  0.00    +0.000 HD
ATOM     16  H   UNL     1      -2.469   8.062  22.094  0.00  0.00    +0.000 HD
ENDBRANCH  10  13
ENDBRANCH   7  10
ENDBRANCH   4   7
ENDBRANCH   1   4
BRANCH   1  17
ATOM     17  C   UNL     1      -3.928   4.192  25.357  0.00  0.00    +0.000 C 
ATOM     18  H   UNL     1      -4.436   3.533  24.643  0.00  0.00    +0.000 HD
ATOM     19  H   UNL     1      -3.190   3.604  25.917  0.00  0.00    +0.000 HD
BRANCH  17  21
ATOM     20  O   UNL     1      -6.044   5.182  26.030  0.00  0.00    +0.000 OA
ATOM     21  C   UNL     1      -4.961   4.702  26.335  0.00  0.00    +0.000 C 
BRANCH  21  22
ATOM     22  O   UNL     1      -4.475   4.566  27.606  0.00  0.00    +0.000 OA
BRANCH  22  23
ATOM     23  C   UNL     1      -3.823   3.324  27.886  0.00  0.00    +0.000 C 
ATOM     24  H   UNL     1      -3.517   2.856  26.944  0.00  0.00    +0.000 HD
ATOM     25  H   UNL     1      -2.933   3.512  28.497  0.00  0.00    +0.000 HD
BRANCH  23  26
ATOM     26  C   UNL     1      -4.760   2.424  28.618  0.00  0.00    +0.000 C 
ATOM     27  H   UNL     1      -4.275   1.968  29.486  0.00  0.00    +0.000 HD
ATOM     28  H   UNL     1      -5.642   2.976  28.961  0.00  0.00    +0.000 HD
ATOM     29  H   UNL     1      -5.125   1.625  27.963  0.00  0.00    +0.000 HD
ENDBRANCH  23  26
ENDBRANCH  22  23
ENDBRANCH  21  22
ENDBRANCH  17  21
ENDBRANCH   1  17
TORSDOF 9
ENDMDL
MODEL 10
REMARK VINA RESULT:    -3.813     26.484     27.772
REMARK INTER + INTRA:          -5.991
REMARK INTER:                  -5.401
REMARK INTRA:                  -0.591
REMARK UNBOUND:                -0.395
REMARK  Name = 7797
REMARK  9 active torsions:
REMARK  status: ('A' for Active; 'I' for Inactive)
REMARK    1  A    between atoms: O_1  and  C_9
REMARK    2  A    between atoms: O_1  and  C_10
REMARK    3  A    between atoms: C_3  and  C_4
REMARK    4  A    between atoms: C_3  and  C_5
REMARK    5  A    between atoms: C_4  and  C_6
REMARK    6  A    between atoms: C_5  and  C_7
REMARK    7  A    between atoms: C_6  and  C_8
REMARK    8  A    between atoms: C_7  and  C_9
REMARK    9  A    between atoms: C_10  and  C_11
REMARK                            x       y       z     vdW  Elec       q    Type
REMARK                         _______ _______ _______ _____ _____    ______ ____
ROOT
ATOM      1  C   UNL     1      -7.851 -14.130   6.475  0.00  0.00    +0.000 C 
ATOM      2  H   UNL     1      -8.091 -13.702   7.457  0.00  0.00    +0.000 HD
ATOM      3  H   UNL     1      -6.778 -14.360   6.489  0.00  0.00    +0.000 HD
ENDROOT
BRANCH   1   4
ATOM      4  C   UNL     1      -8.648 -15.423   6.271  0.00  0.00    +0.000 C 
ATOM      5  H   UNL     1      -8.900 -15.857   7.246  0.00  0.00    +0.000 HD
ATOM      6  H   UNL     1      -9.592 -15.193   5.764  0.00  0.00    +0.000 HD
BRANCH   4   7
ATOM      7  C   UNL     1      -7.855 -16.437   5.443  0.00  0.00    +0.000 C 
ATOM      8  H   UNL     1      -8.282 -17.439   5.581  0.00  0.00    +0.000 HD
ATOM      9  H   UNL     1      -7.946 -16.191   4.378  0.00  0.00    +0.000 HD
BRANCH   7  10
ATOM     10  C   UNL     1      -6.381 -16.451   5.844  0.00  0.00    +0.000 C 
ATOM     11  H   UNL     1      -6.131 -15.526   6.375  0.00  0.00    +0.000 HD
ATOM     12  H   UNL     1      -5.752 -16.491   4.947  0.00  0.00    +0.000 HD
BRANCH  10  13
ATOM     13  C   UNL     1      -6.056 -17.642   6.732  0.00  0.00    +0.000 C 
ATOM     14  H   UNL     1      -5.517 -17.326   7.630  0.00  0.00    +0.000 HD
ATOM     15  H   UNL     1      -5.427 -18.357   6.192  0.00  0.00    +0.000 HD
ATOM     16  H   UNL     1      -6.968 -18.160   7.044  0.00  0.00    +0.000 HD
ENDBRANCH  10  13
ENDBRANCH   7  10
ENDBRANCH   4   7
ENDBRANCH   1   4
BRANCH   1  17
ATOM     17  C   UNL     1      -8.132 -13.093   5.388  0.00  0.00    +0.000 C 
ATOM     18  H   UNL     1      -9.121 -13.279   4.951  0.00  0.00    +0.000 HD
ATOM     19  H   UNL     1      -8.126 -12.091   5.834  0.00  0.00    +0.000 HD
BRANCH  17  21
ATOM     20  O   UNL     1      -5.926 -12.870   4.390  0.00  0.00    +0.000 OA
ATOM     21  C   UNL     1      -7.118 -13.115   4.267  0.00  0.00    +0.000 C 
BRANCH  21  22
ATOM     22  O   UNL     1      -7.755 -13.421   3.097  0.00  0.00    +0.000 OA
BRANCH  22  23
ATOM     23  C   UNL     1      -6.922 -13.956   2.064  0.00  0.00    +0.000 C 
ATOM     24  H   UNL     1      -7.123 -13.425   1.126  0.00  0.00    +0.000 HD
ATOM     25  H   UNL     1      -5.870 -13.813   2.337  0.00  0.00    +0.000 HD
BRANCH  23  26
ATOM     26  C   UNL     1      -7.209 -15.409   1.896  0.00  0.00    +0.000 C 
ATOM     27  H   UNL     1      -8.168 -15.678   2.350  0.00  0.00    +0.000 HD
ATOM     28  H   UNL     1      -7.237 -15.681   0.835  0.00  0.00    +0.000 HD
ATOM     29  H   UNL     1      -6.423 -16.018   2.355  0.00  0.00    +0.000 HD
ENDBRANCH  23  26
ENDBRANCH  22  23
ENDBRANCH  21  22
ENDBRANCH  17  21
ENDBRANCH   1  17
TORSDOF 9
ENDMDL
