MODEL 1
REMARK VINA RESULT:    -4.472      0.000      0.000
REMARK INTER + INTRA:          -7.956
REMARK INTER:                  -6.645
REMARK INTRA:                  -1.311
REMARK UNBOUND:                -0.608
REMARK  Name = 8048
REMARK  12 active torsions:
REMARK  status: ('A' for Active; 'I' for Inactive)
REMARK    1  A    between atoms: O_1  and  C_12
REMARK    2  A    between atoms: O_1  and  C_13
REMARK    3  A    between atoms: C_3  and  C_4
REMARK    4  A    between atoms: C_3  and  C_5
REMARK    5  A    between atoms: C_4  and  C_6
REMARK    6  A    between atoms: C_5  and  C_7
REMARK    7  A    between atoms: C_6  and  C_8
REMARK    8  A    between atoms: C_7  and  C_9
REMARK    9  A    between atoms: C_8  and  C_10
REMARK   10  A    between atoms: C_9  and  C_11
REMARK   11  A    between atoms: C_10  and  C_12
REMARK   12  A    between atoms: C_13  and  C_14
REMARK                            x       y       z     vdW  Elec       q    Type
REMARK                         _______ _______ _______ _____ _____    ______ ____
ROOT
ATOM      1  C   UNL     1      15.922  -5.347  -0.264  0.00  0.00    +0.000 C 
ATOM      2  H   UNL     1      15.237  -4.946   0.493  0.00  0.00    +0.000 HD
ATOM      3  H   UNL     1      16.936  -5.042   0.022  0.00  0.00    +0.000 HD
ENDROOT
BRANCH   1   4
ATOM      4  C   UNL     1      15.576  -4.756  -1.633  0.00  0.00    +0.000 C 
ATOM      5  H   UNL     1      14.499  -4.560  -1.690  0.00  0.00    +0.000 HD
ATOM      6  H   UNL     1      16.087  -3.794  -1.758  0.00  0.00    +0.000 HD
BRANCH   4   7
ATOM      7  C   UNL     1      15.986  -5.701  -2.764  0.00  0.00    +0.000 C 
ATOM      8  H   UNL     1      15.138  -5.838  -3.447  0.00  0.00    +0.000 HD
ATOM      9  H   UNL     1      16.217  -6.689  -2.344  0.00  0.00    +0.000 HD
BRANCH   7  10
ATOM     10  C   UNL     1      17.197  -5.207  -3.560  0.00  0.00    +0.000 C 
ATOM     11  H   UNL     1      17.804  -4.551  -2.924  0.00  0.00    +0.000 HD
ATOM     12  H   UNL     1      16.843  -4.594  -4.399  0.00  0.00    +0.000 HD
BRANCH  10  13
ATOM     13  C   UNL     1      18.075  -6.339  -4.097  0.00  0.00    +0.000 C 
ATOM     14  H   UNL     1      18.097  -7.165  -3.376  0.00  0.00    +0.000 HD
ATOM     15  H   UNL     1      19.105  -5.985  -4.217  0.00  0.00    +0.000 HD
BRANCH  13  16
ATOM     16  C   UNL     1      17.558  -6.856  -5.431  0.00  0.00    +0.000 C 
ATOM     17  H   UNL     1      18.337  -7.410  -5.965  0.00  0.00    +0.000 HD
ATOM     18  H   UNL     1      17.241  -6.021  -6.063  0.00  0.00    +0.000 HD
ATOM     19  H   UNL     1      16.699  -7.518  -5.289  0.00  0.00    +0.000 HD
ENDBRANCH  13  16
ENDBRANCH  10  13
ENDBRANCH   7  10
ENDBRANCH   4   7
ENDBRANCH   1   4
BRANCH   1  20
ATOM     20  C   UNL     1      15.829  -6.873  -0.277  0.00  0.00    +0.000 C 
ATOM     21  H   UNL     1      15.044  -7.201   0.417  0.00  0.00    +0.000 HD
ATOM     22  H   UNL     1      15.537  -7.214  -1.278  0.00  0.00    +0.000 HD
BRANCH  20  23
ATOM     23  C   UNL     1      17.158  -7.516   0.117  0.00  0.00    +0.000 C 
ATOM     24  H   UNL     1      17.510  -8.164  -0.695  0.00  0.00    +0.000 HD
ATOM     25  H   UNL     1      17.005  -8.161   0.993  0.00  0.00    +0.000 HD
BRANCH  23  26
ATOM     26  C   UNL     1      18.213  -6.461   0.431  0.00  0.00    +0.000 C 
ATOM     27  H   UNL     1      17.776  -5.460   0.348  0.00  0.00    +0.000 HD
ATOM     28  H   UNL     1      18.598  -6.604   1.448  0.00  0.00    +0.000 HD
BRANCH  26  30
ATOM     29  O   UNL     1      19.974  -7.601  -0.762  0.00  0.00    +0.000 OA
ATOM     30  C   UNL     1      19.370  -6.561  -0.530  0.00  0.00    +0.000 C 
BRANCH  30  31
ATOM     31  O   UNL     1      19.611  -5.345  -1.097  0.00  0.00    +0.000 OA
BRANCH  31  32
ATOM     32  C   UNL     1      19.465  -4.220  -0.226  0.00  0.00    +0.000 C 
ATOM     33  H   UNL     1      20.448  -3.926   0.159  0.00  0.00    +0.000 HD
ATOM     34  H   UNL     1      18.811  -4.487   0.611  0.00  0.00    +0.000 HD
BRANCH  32  35
ATOM     35  C   UNL     1      18.856  -3.070  -1.002  0.00  0.00    +0.000 C 
ATOM     36  H   UNL     1      19.464  -2.166  -0.890  0.00  0.00    +0.000 HD
ATOM     37  H   UNL     1      18.825  -3.302  -2.072  0.00  0.00    +0.000 HD
ATOM     38  H   UNL     1      17.841  -2.859  -0.657  0.00  0.00    +0.000 HD
ENDBRANCH  32  35
ENDBRANCH  31  32
ENDBRANCH  30  31
ENDBRANCH  26  30
ENDBRANCH  23  26
ENDBRANCH  20  23
ENDBRANCH   1  20
TORSDOF 12
ENDMDL
MODEL 2
REMARK VINA RESULT:    -4.394     34.891     36.699
REMARK INTER + INTRA:          -7.828
REMARK INTER:                  -7.220
REMARK INTRA:                  -0.608
REMARK UNBOUND:                -0.608
REMARK  Name = 8048
REMARK  12 active torsions:
REMARK  status: ('A' for Active; 'I' for Inactive)
REMARK    1  A    between atoms: O_1  and  C_12
REMARK    2  A    between atoms: O_1  and  C_13
REMARK    3  A    between atoms: C_3  and  C_4
REMARK    4  A    between atoms: C_3  and  C_5
REMARK    5  A    between atoms: C_4  and  C_6
REMARK    6  A    between atoms: C_5  and  C_7
REMARK    7  A    between atoms: C_6  and  C_8
REMARK    8  A    between atoms: C_7  and  C_9
REMARK    9  A    between atoms: C_8  and  C_10
REMARK   10  A    between atoms: C_9  and  C_11
REMARK   11  A    between atoms: C_10  and  C_12
REMARK   12  A    between atoms: C_13  and  C_14
REMARK                            x       y       z     vdW  Elec       q    Type
REMARK                         _______ _______ _______ _____ _____    ______ ____
ROOT
ATOM      1  C   UNL     1      -1.919   6.083  25.402  0.00  0.00    +0.000 C 
ATOM      2  H   UNL     1      -1.878   7.151  25.650  0.00  0.00    +0.000 HD
ATOM      3  H   UNL     1      -0.968   5.640  25.720  0.00  0.00    +0.000 HD
ENDROOT
BRANCH   1   4
ATOM      4  C   UNL     1      -2.085   5.914  23.890  0.00  0.00    +0.000 C 
ATOM      5  H   UNL     1      -1.905   4.868  23.613  0.00  0.00    +0.000 HD
ATOM      6  H   UNL     1      -3.116   6.152  23.604  0.00  0.00    +0.000 HD
BRANCH   4   7
ATOM      7  C   UNL     1      -1.121   6.821  23.123  0.00  0.00    +0.000 C 
ATOM      8  H   UNL     1      -0.767   6.297  22.227  0.00  0.00    +0.000 HD
ATOM      9  H   UNL     1      -0.238   7.018  23.744  0.00  0.00    +0.000 HD
BRANCH   7  10
ATOM     10  C   UNL     1      -1.743   8.158  22.710  0.00  0.00    +0.000 C 
ATOM     11  H   UNL     1      -2.830   8.039  22.622  0.00  0.00    +0.000 HD
ATOM     12  H   UNL     1      -1.373   8.426  21.711  0.00  0.00    +0.000 HD
BRANCH  10  13
ATOM     13  C   UNL     1      -1.439   9.297  23.684  0.00  0.00    +0.000 C 
ATOM     14  H   UNL     1      -0.415   9.656  23.527  0.00  0.00    +0.000 HD
ATOM     15  H   UNL     1      -1.500   8.930  24.714  0.00  0.00    +0.000 HD
BRANCH  13  16
ATOM     16  C   UNL     1      -2.406  10.456  23.500  0.00  0.00    +0.000 C 
ATOM     17  H   UNL     1      -2.000  11.201  22.809  0.00  0.00    +0.000 HD
ATOM     18  H   UNL     1      -2.594  10.949  24.459  0.00  0.00    +0.000 HD
ATOM     19  H   UNL     1      -3.366  10.107  23.106  0.00  0.00    +0.000 HD
ENDBRANCH  13  16
ENDBRANCH  10  13
ENDBRANCH   7  10
ENDBRANCH   4   7
ENDBRANCH   1   4
BRANCH   1  20
ATOM     20  C   UNL     1      -3.071   5.427  26.166  0.00  0.00    +0.000 C 
ATOM     21  H   UNL     1      -2.682   4.929  27.063  0.00  0.00    +0.000 HD
ATOM     22  H   UNL     1      -3.772   6.200  26.503  0.00  0.00    +0.000 HD
BRANCH  20  23
ATOM     23  C   UNL     1      -3.807   4.408  25.296  0.00  0.00    +0.000 C 
ATOM     24  H   UNL     1      -3.682   3.404  25.720  0.00  0.00    +0.000 HD
ATOM     25  H   UNL     1      -3.354   4.389  24.296  0.00  0.00    +0.000 HD
BRANCH  23  26
ATOM     26  C   UNL     1      -5.290   4.742  25.184  0.00  0.00    +0.000 C 
ATOM     27  H   UNL     1      -5.416   5.727  24.722  0.00  0.00    +0.000 HD
ATOM     28  H   UNL     1      -5.801   3.989  24.574  0.00  0.00    +0.000 HD
BRANCH  26  30
ATOM     29  O   UNL     1      -6.714   5.634  26.916  0.00  0.00    +0.000 OA
ATOM     30  C   UNL     1      -5.936   4.764  26.546  0.00  0.00    +0.000 C 
BRANCH  30  31
ATOM     31  O   UNL     1      -5.538   3.677  27.267  0.00  0.00    +0.000 OA
BRANCH  31  32
ATOM     32  C   UNL     1      -5.472   3.869  28.683  0.00  0.00    +0.000 C 
ATOM     33  H   UNL     1      -6.268   3.292  29.168  0.00  0.00    +0.000 HD
ATOM     34  H   UNL     1      -5.600   4.932  28.915  0.00  0.00    +0.000 HD
BRANCH  32  35
ATOM     35  C   UNL     1      -4.122   3.396  29.182  0.00  0.00    +0.000 C 
ATOM     36  H   UNL     1      -4.240   2.545  29.862  0.00  0.00    +0.000 HD
ATOM     37  H   UNL     1      -3.502   3.052  28.348  0.00  0.00    +0.000 HD
ATOM     38  H   UNL     1      -3.596   4.197  29.706  0.00  0.00    +0.000 HD
ENDBRANCH  32  35
ENDBRANCH  31  32
ENDBRANCH  30  31
ENDBRANCH  26  30
ENDBRANCH  23  26
ENDBRANCH  20  23
ENDBRANCH   1  20
TORSDOF 12
ENDMDL
MODEL 3
REMARK VINA RESULT:    -4.390     23.494     25.618
REMARK INTER + INTRA:          -7.821
REMARK INTER:                  -7.257
REMARK INTRA:                  -0.564
REMARK UNBOUND:                -0.608
REMARK  Name = 8048
REMARK  12 active torsions:
REMARK  status: ('A' for Active; 'I' for Inactive)
REMARK    1  A    between atoms: O_1  and  C_12
REMARK    2  A    between atoms: O_1  and  C_13
REMARK    3  A    between atoms: C_3  and  C_4
REMARK    4  A    between atoms: C_3  and  C_5
REMARK    5  A    between atoms: C_4  and  C_6
REMARK    6  A    between atoms: C_5  and  C_7
REMARK    7  A    between atoms: C_6  and  C_8
REMARK    8  A    between atoms: C_7  and  C_9
REMARK    9  A    between atoms: C_8  and  C_10
REMARK   10  A    between atoms: C_9  and  C_11
REMARK   11  A    between atoms: C_10  and  C_12
REMARK   12  A    between atoms: C_13  and  C_14
REMARK                            x       y       z     vdW  Elec       q    Type
REMARK                         _______ _______ _______ _____ _____    ______ ____
ROOT
ATOM      1  C   UNL     1       5.383   4.693 -20.172  0.00  0.00    +0.000 C 
ATOM      2  H   UNL     1       6.250   4.324 -20.735  0.00  0.00    +0.000 HD
ATOM      3  H   UNL     1       5.071   5.634 -20.640  0.00  0.00    +0.000 HD
ENDROOT
BRANCH   1   4
ATOM      4  C   UNL     1       5.789   4.951 -18.719  0.00  0.00    +0.000 C 
ATOM      5  H   UNL     1       6.444   5.829 -18.668  0.00  0.00    +0.000 HD
ATOM      6  H   UNL     1       4.897   5.177 -18.122  0.00  0.00    +0.000 HD
BRANCH   4   7
ATOM      7  C   UNL     1       6.508   3.739 -18.122  0.00  0.00    +0.000 C 
ATOM      8  H   UNL     1       5.955   2.827 -18.380  0.00  0.00    +0.000 HD
ATOM      9  H   UNL     1       6.497   3.816 -17.027  0.00  0.00    +0.000 HD
BRANCH   7  10
ATOM     10  C   UNL     1       7.958   3.598 -18.594  0.00  0.00    +0.000 C 
ATOM     11  H   UNL     1       7.967   3.372 -19.668  0.00  0.00    +0.000 HD
ATOM     12  H   UNL     1       8.413   2.737 -18.086  0.00  0.00    +0.000 HD
BRANCH  10  13
ATOM     13  C   UNL     1       8.806   4.844 -18.335  0.00  0.00    +0.000 C 
ATOM     14  H   UNL     1       8.559   5.263 -17.353  0.00  0.00    +0.000 HD
ATOM     15  H   UNL     1       8.576   5.611 -19.083  0.00  0.00    +0.000 HD
BRANCH  13  16
ATOM     16  C   UNL     1      10.292   4.521 -18.379  0.00  0.00    +0.000 C 
ATOM     17  H   UNL     1      10.879   5.411 -18.628  0.00  0.00    +0.000 HD
ATOM     18  H   UNL     1      10.491   3.759 -19.139  0.00  0.00    +0.000 HD
ATOM     19  H   UNL     1      10.639   4.137 -17.415  0.00  0.00    +0.000 HD
ENDBRANCH  13  16
ENDBRANCH  10  13
ENDBRANCH   7  10
ENDBRANCH   4   7
ENDBRANCH   1   4
BRANCH   1  20
ATOM     20  C   UNL     1       4.247   3.673 -20.260  0.00  0.00    +0.000 C 
ATOM     21  H   UNL     1       4.364   3.067 -21.168  0.00  0.00    +0.000 HD
ATOM     22  H   UNL     1       4.302   2.989 -19.406  0.00  0.00    +0.000 HD
BRANCH  20  23
ATOM     23  C   UNL     1       2.882   4.361 -20.281  0.00  0.00    +0.000 C 
ATOM     24  H   UNL     1       3.007   5.435 -20.092  0.00  0.00    +0.000 HD
ATOM     25  H   UNL     1       2.263   3.966 -19.464  0.00  0.00    +0.000 HD
BRANCH  23  26
ATOM     26  C   UNL     1       2.174   4.150 -21.614  0.00  0.00    +0.000 C 
ATOM     27  H   UNL     1       1.254   4.745 -21.646  0.00  0.00    +0.000 HD
ATOM     28  H   UNL     1       2.828   4.451 -22.440  0.00  0.00    +0.000 HD
BRANCH  26  30
ATOM     29  O   UNL     1       2.271   1.994 -22.692  0.00  0.00    +0.000 OA
ATOM     30  C   UNL     1       1.813   2.698 -21.802  0.00  0.00    +0.000 C 
BRANCH  30  31
ATOM     31  O   UNL     1       0.938   2.307 -20.833  0.00  0.00    +0.000 OA
BRANCH  31  32
ATOM     32  C   UNL     1      -0.378   2.860 -20.932  0.00  0.00    +0.000 C 
ATOM     33  H   UNL     1      -0.310   3.912 -21.231  0.00  0.00    +0.000 HD
ATOM     34  H   UNL     1      -0.878   2.790 -19.960  0.00  0.00    +0.000 HD
BRANCH  32  35
ATOM     35  C   UNL     1      -1.163   2.084 -21.968  0.00  0.00    +0.000 C 
ATOM     36  H   UNL     1      -0.840   1.037 -21.991  0.00  0.00    +0.000 HD
ATOM     37  H   UNL     1      -2.230   2.082 -21.721  0.00  0.00    +0.000 HD
ATOM     38  H   UNL     1      -1.031   2.516 -22.963  0.00  0.00    +0.000 HD
ENDBRANCH  32  35
ENDBRANCH  31  32
ENDBRANCH  30  31
ENDBRANCH  26  30
ENDBRANCH  23  26
ENDBRANCH  20  23
ENDBRANCH   1  20
TORSDOF 12
ENDMDL
MODEL 4
REMARK VINA RESULT:    -4.383     23.363     25.221
REMARK INTER + INTRA:          -7.809
REMARK INTER:                  -7.169
REMARK INTRA:                  -0.639
REMARK UNBOUND:                -0.608
REMARK  Name = 8048
REMARK  12 active torsions:
REMARK  status: ('A' for Active; 'I' for Inactive)
REMARK    1  A    between atoms: O_1  and  C_12
REMARK    2  A    between atoms: O_1  and  C_13
REMARK    3  A    between atoms: C_3  and  C_4
REMARK    4  A    between atoms: C_3  and  C_5
REMARK    5  A    between atoms: C_4  and  C_6
REMARK    6  A    between atoms: C_5  and  C_7
REMARK    7  A    between atoms: C_6  and  C_8
REMARK    8  A    between atoms: C_7  and  C_9
REMARK    9  A    between atoms: C_8  and  C_10
REMARK   10  A    between atoms: C_9  and  C_11
REMARK   11  A    between atoms: C_10  and  C_12
REMARK   12  A    between atoms: C_13  and  C_14
REMARK                            x       y       z     vdW  Elec       q    Type
REMARK                         _______ _______ _______ _____ _____    ______ ____
ROOT
ATOM      1  C   UNL     1      -5.638 -15.535   0.036  0.00  0.00    +0.000 C 
ATOM      2  H   UNL     1      -6.555 -16.090  -0.200  0.00  0.00    +0.000 HD
ATOM      3  H   UNL     1      -5.576 -14.697  -0.669  0.00  0.00    +0.000 HD
ENDROOT
BRANCH   1   4
ATOM      4  C   UNL     1      -4.425 -16.450  -0.148  0.00  0.00    +0.000 C 
ATOM      5  H   UNL     1      -4.154 -16.902   0.813  0.00  0.00    +0.000 HD
ATOM      6  H   UNL     1      -4.682 -17.270  -0.829  0.00  0.00    +0.000 HD
BRANCH   4   7
ATOM      7  C   UNL     1      -3.229 -15.678  -0.709  0.00  0.00    +0.000 C 
ATOM      8  H   UNL     1      -3.498 -14.620  -0.812  0.00  0.00    +0.000 HD
ATOM      9  H   UNL     1      -3.002 -16.047  -1.717  0.00  0.00    +0.000 HD
BRANCH   7  10
ATOM     10  C   UNL     1      -1.970 -15.794   0.155  0.00  0.00    +0.000 C 
ATOM     11  H   UNL     1      -1.086 -15.633  -0.473  0.00  0.00    +0.000 HD
ATOM     12  H   UNL     1      -1.900 -16.819   0.543  0.00  0.00    +0.000 HD
BRANCH  10  13
ATOM     13  C   UNL     1      -1.942 -14.809   1.325  0.00  0.00    +0.000 C 
ATOM     14  H   UNL     1      -2.966 -14.592   1.651  0.00  0.00    +0.000 HD
ATOM     15  H   UNL     1      -1.496 -13.862   1.001  0.00  0.00    +0.000 HD
BRANCH  13  16
ATOM     16  C   UNL     1      -1.152 -15.366   2.499  0.00  0.00    +0.000 C 
ATOM     17  H   UNL     1      -0.824 -14.563   3.167  0.00  0.00    +0.000 HD
ATOM     18  H   UNL     1      -0.263 -15.894   2.141  0.00  0.00    +0.000 HD
ATOM     19  H   UNL     1      -1.755 -16.072   3.078  0.00  0.00    +0.000 HD
ENDBRANCH  13  16
ENDBRANCH  10  13
ENDBRANCH   7  10
ENDBRANCH   4   7
ENDBRANCH   1   4
BRANCH   1  20
ATOM     20  C   UNL     1      -5.721 -15.000   1.466  0.00  0.00    +0.000 C 
ATOM     21  H   UNL     1      -6.132 -15.774   2.127  0.00  0.00    +0.000 HD
ATOM     22  H   UNL     1      -4.712 -14.769   1.828  0.00  0.00    +0.000 HD
BRANCH  20  23
ATOM     23  C   UNL     1      -6.595 -13.748   1.542  0.00  0.00    +0.000 C 
ATOM     24  H   UNL     1      -7.311 -13.747   0.711  0.00  0.00    +0.000 HD
ATOM     25  H   UNL     1      -5.965 -12.857   1.419  0.00  0.00    +0.000 HD
BRANCH  23  26
ATOM     26  C   UNL     1      -7.342 -13.673   2.869  0.00  0.00    +0.000 C 
ATOM     27  H   UNL     1      -8.280 -13.124   2.738  0.00  0.00    +0.000 HD
ATOM     28  H   UNL     1      -7.562 -14.682   3.235  0.00  0.00    +0.000 HD
BRANCH  26  30
ATOM     29  O   UNL     1      -5.556 -12.246   3.643  0.00  0.00    +0.000 OA
ATOM     30  C   UNL     1      -6.512 -12.964   3.909  0.00  0.00    +0.000 C 
BRANCH  30  31
ATOM     31  O   UNL     1      -7.001 -13.228   5.154  0.00  0.00    +0.000 OA
BRANCH  31  32
ATOM     32  C   UNL     1      -7.055 -14.611   5.513  0.00  0.00    +0.000 C 
ATOM     33  H   UNL     1      -6.055 -14.953   5.801  0.00  0.00    +0.000 HD
ATOM     34  H   UNL     1      -7.409 -15.198   4.658  0.00  0.00    +0.000 HD
BRANCH  32  35
ATOM     35  C   UNL     1      -8.007 -14.781   6.679  0.00  0.00    +0.000 C 
ATOM     36  H   UNL     1      -7.626 -14.264   7.566  0.00  0.00    +0.000 HD
ATOM     37  H   UNL     1      -8.982 -14.339   6.448  0.00  0.00    +0.000 HD
ATOM     38  H   UNL     1      -8.148 -15.838   6.919  0.00  0.00    +0.000 HD
ENDBRANCH  32  35
ENDBRANCH  31  32
ENDBRANCH  30  31
ENDBRANCH  26  30
ENDBRANCH  23  26
ENDBRANCH  20  23
ENDBRANCH   1  20
TORSDOF 12
ENDMDL
MODEL 5
REMARK VINA RESULT:    -4.358     25.533     27.449
REMARK INTER + INTRA:          -7.768
REMARK INTER:                  -6.319
REMARK INTRA:                  -1.449
REMARK UNBOUND:                -0.608
REMARK  Name = 8048
REMARK  12 active torsions:
REMARK  status: ('A' for Active; 'I' for Inactive)
REMARK    1  A    between atoms: O_1  and  C_12
REMARK    2  A    between atoms: O_1  and  C_13
REMARK    3  A    between atoms: C_3  and  C_4
REMARK    4  A    between atoms: C_3  and  C_5
REMARK    5  A    between atoms: C_4  and  C_6
REMARK    6  A    between atoms: C_5  and  C_7
REMARK    7  A    between atoms: C_6  and  C_8
REMARK    8  A    between atoms: C_7  and  C_9
REMARK    9  A    between atoms: C_8  and  C_10
REMARK   10  A    between atoms: C_9  and  C_11
REMARK   11  A    between atoms: C_10  and  C_12
REMARK   12  A    between atoms: C_13  and  C_14
REMARK                            x       y       z     vdW  Elec       q    Type
REMARK                         _______ _______ _______ _____ _____    ______ ____
ROOT
ATOM      1  C   UNL     1       0.848   4.267 -19.587  0.00  0.00    +0.000 C 
ATOM      2  H   UNL     1       0.659   4.163 -18.512  0.00  0.00    +0.000 HD
ATOM      3  H   UNL     1       1.886   3.964 -19.765  0.00  0.00    +0.000 HD
ENDROOT
BRANCH   1   4
ATOM      4  C   UNL     1       0.662   5.729 -20.000  0.00  0.00    +0.000 C 
ATOM      5  H   UNL     1      -0.117   5.801 -20.767  0.00  0.00    +0.000 HD
ATOM      6  H   UNL     1       0.322   6.315 -19.137  0.00  0.00    +0.000 HD
BRANCH   4   7
ATOM      7  C   UNL     1       1.967   6.323 -20.536  0.00  0.00    +0.000 C 
ATOM      8  H   UNL     1       1.841   7.404 -20.677  0.00  0.00    +0.000 HD
ATOM      9  H   UNL     1       2.178   5.897 -21.525  0.00  0.00    +0.000 HD
BRANCH   7  10
ATOM     10  C   UNL     1       3.170   6.073 -19.622  0.00  0.00    +0.000 C 
ATOM     11  H   UNL     1       2.882   5.368 -18.832  0.00  0.00    +0.000 HD
ATOM     12  H   UNL     1       3.437   7.014 -19.124  0.00  0.00    +0.000 HD
BRANCH  10  13
ATOM     13  C   UNL     1       4.392   5.528 -20.362  0.00  0.00    +0.000 C 
ATOM     14  H   UNL     1       5.142   6.319 -20.472  0.00  0.00    +0.000 HD
ATOM     15  H   UNL     1       4.104   5.211 -21.371  0.00  0.00    +0.000 HD
BRANCH  13  16
ATOM     16  C   UNL     1       5.011   4.354 -19.619  0.00  0.00    +0.000 C 
ATOM     17  H   UNL     1       4.455   4.131 -18.703  0.00  0.00    +0.000 HD
ATOM     18  H   UNL     1       6.045   4.584 -19.341  0.00  0.00    +0.000 HD
ATOM     19  H   UNL     1       5.021   3.455 -20.244  0.00  0.00    +0.000 HD
ENDBRANCH  13  16
ENDBRANCH  10  13
ENDBRANCH   7  10
ENDBRANCH   4   7
ENDBRANCH   1   4
BRANCH   1  20
ATOM     20  C   UNL     1      -0.096   3.346 -20.362  0.00  0.00    +0.000 C 
ATOM     21  H   UNL     1      -0.803   2.873 -19.667  0.00  0.00    +0.000 HD
ATOM     22  H   UNL     1      -0.688   3.940 -21.069  0.00  0.00    +0.000 HD
BRANCH  20  23
ATOM     23  C   UNL     1       0.676   2.265 -21.117  0.00  0.00    +0.000 C 
ATOM     24  H   UNL     1       0.308   2.202 -22.149  0.00  0.00    +0.000 HD
ATOM     25  H   UNL     1       0.484   1.289 -20.653  0.00  0.00    +0.000 HD
BRANCH  23  26
ATOM     26  C   UNL     1       2.173   2.550 -21.118  0.00  0.00    +0.000 C 
ATOM     27  H   UNL     1       2.392   3.398 -20.459  0.00  0.00    +0.000 HD
ATOM     28  H   UNL     1       2.725   1.670 -20.769  0.00  0.00    +0.000 HD
BRANCH  26  30
ATOM     29  O   UNL     1       3.832   2.981 -22.817  0.00  0.00    +0.000 OA
ATOM     30  C   UNL     1       2.651   2.887 -22.508  0.00  0.00    +0.000 C 
BRANCH  30  31
ATOM     31  O   UNL     1       1.584   3.043 -23.342  0.00  0.00    +0.000 OA
BRANCH  31  32
ATOM     32  C   UNL     1       1.563   4.259 -24.094  0.00  0.00    +0.000 C 
ATOM     33  H   UNL     1       1.523   4.027 -25.164  0.00  0.00    +0.000 HD
ATOM     34  H   UNL     1       2.468   4.838 -23.880  0.00  0.00    +0.000 HD
BRANCH  32  35
ATOM     35  C   UNL     1       0.340   5.062 -23.700  0.00  0.00    +0.000 C 
ATOM     36  H   UNL     1       0.233   5.941 -24.345  0.00  0.00    +0.000 HD
ATOM     37  H   UNL     1      -0.569   4.464 -23.824  0.00  0.00    +0.000 HD
ATOM     38  H   UNL     1       0.406   5.392 -22.660  0.00  0.00    +0.000 HD
ENDBRANCH  32  35
ENDBRANCH  31  32
ENDBRANCH  30  31
ENDBRANCH  26  30
ENDBRANCH  23  26
ENDBRANCH  20  23
ENDBRANCH   1  20
TORSDOF 12
ENDMDL
MODEL 6
REMARK VINA RESULT:    -4.331     24.090     26.118
REMARK INTER + INTRA:          -7.724
REMARK INTER:                  -7.079
REMARK INTRA:                  -0.645
REMARK UNBOUND:                -0.608
REMARK  Name = 8048
REMARK  12 active torsions:
REMARK  status: ('A' for Active; 'I' for Inactive)
REMARK    1  A    between atoms: O_1  and  C_12
REMARK    2  A    between atoms: O_1  and  C_13
REMARK    3  A    between atoms: C_3  and  C_4
REMARK    4  A    between atoms: C_3  and  C_5
REMARK    5  A    between atoms: C_4  and  C_6
REMARK    6  A    between atoms: C_5  and  C_7
REMARK    7  A    between atoms: C_6  and  C_8
REMARK    8  A    between atoms: C_7  and  C_9
REMARK    9  A    between atoms: C_8  and  C_10
REMARK   10  A    between atoms: C_9  and  C_11
REMARK   11  A    between atoms: C_10  and  C_12
REMARK   12  A    between atoms: C_13  and  C_14
REMARK                            x       y       z     vdW  Elec       q    Type
REMARK                         _______ _______ _______ _____ _____    ______ ____
ROOT
ATOM      1  C   UNL     1      -7.327 -14.011   3.162  0.00  0.00    +0.000 C 
ATOM      2  H   UNL     1      -8.297 -13.810   2.689  0.00  0.00    +0.000 HD
ATOM      3  H   UNL     1      -7.360 -15.038   3.543  0.00  0.00    +0.000 HD
ENDROOT
BRANCH   1   4
ATOM      4  C   UNL     1      -7.114 -13.038   4.324  0.00  0.00    +0.000 C 
ATOM      5  H   UNL     1      -6.162 -13.258   4.820  0.00  0.00    +0.000 HD
ATOM      6  H   UNL     1      -7.049 -12.013   3.939  0.00  0.00    +0.000 HD
BRANCH   4   7
ATOM      7  C   UNL     1      -8.255 -13.129   5.339  0.00  0.00    +0.000 C 
ATOM      8  H   UNL     1      -9.096 -13.673   4.890  0.00  0.00    +0.000 HD
ATOM      9  H   UNL     1      -8.618 -12.118   5.566  0.00  0.00    +0.000 HD
BRANCH   7  10
ATOM     10  C   UNL     1      -7.854 -13.816   6.647  0.00  0.00    +0.000 C 
ATOM     11  H   UNL     1      -8.669 -13.711   7.374  0.00  0.00    +0.000 HD
ATOM     12  H   UNL     1      -6.985 -13.293   7.068  0.00  0.00    +0.000 HD
BRANCH  10  13
ATOM     13  C   UNL     1      -7.518 -15.298   6.477  0.00  0.00    +0.000 C 
ATOM     14  H   UNL     1      -6.512 -15.497   6.863  0.00  0.00    +0.000 HD
ATOM     15  H   UNL     1      -7.515 -15.558   5.413  0.00  0.00    +0.000 HD
BRANCH  13  16
ATOM     16  C   UNL     1      -8.517 -16.180   7.212  0.00  0.00    +0.000 C 
ATOM     17  H   UNL     1      -9.030 -15.619   8.000  0.00  0.00    +0.000 HD
ATOM     18  H   UNL     1      -8.005 -17.028   7.676  0.00  0.00    +0.000 HD
ATOM     19  H   UNL     1      -9.271 -16.575   6.523  0.00  0.00    +0.000 HD
ENDBRANCH  13  16
ENDBRANCH  10  13
ENDBRANCH   7  10
ENDBRANCH   4   7
ENDBRANCH   1   4
BRANCH   1  20
ATOM     20  C   UNL     1      -6.216 -13.885   2.119  0.00  0.00    +0.000 C 
ATOM     21  H   UNL     1      -6.350 -14.649   1.342  0.00  0.00    +0.000 HD
ATOM     22  H   UNL     1      -6.286 -12.908   1.625  0.00  0.00    +0.000 HD
BRANCH  20  23
ATOM     23  C   UNL     1      -4.835 -14.042   2.755  0.00  0.00    +0.000 C 
ATOM     24  H   UNL     1      -4.692 -13.269   3.521  0.00  0.00    +0.000 HD
ATOM     25  H   UNL     1      -4.062 -13.879   1.992  0.00  0.00    +0.000 HD
BRANCH  23  26
ATOM     26  C   UNL     1      -4.663 -15.424   3.375  0.00  0.00    +0.000 C 
ATOM     27  H   UNL     1      -4.981 -15.404   4.424  0.00  0.00    +0.000 HD
ATOM     28  H   UNL     1      -5.265 -16.159   2.830  0.00  0.00    +0.000 HD
BRANCH  26  30
ATOM     29  O   UNL     1      -2.502 -15.702   2.341  0.00  0.00    +0.000 OA
ATOM     30  C   UNL     1      -3.221 -15.858   3.319  0.00  0.00    +0.000 C 
BRANCH  30  31
ATOM     31  O   UNL     1      -2.856 -16.417   4.508  0.00  0.00    +0.000 OA
BRANCH  31  32
ATOM     32  C   UNL     1      -3.697 -16.099   5.621  0.00  0.00    +0.000 C 
ATOM     33  H   UNL     1      -4.721 -15.934   5.269  0.00  0.00    +0.000 HD
ATOM     34  H   UNL     1      -3.329 -15.191   6.110  0.00  0.00    +0.000 HD
BRANCH  32  35
ATOM     35  C   UNL     1      -3.674 -17.253   6.601  0.00  0.00    +0.000 C 
ATOM     36  H   UNL     1      -3.097 -16.988   7.494  0.00  0.00    +0.000 HD
ATOM     37  H   UNL     1      -4.688 -17.493   6.938  0.00  0.00    +0.000 HD
ATOM     38  H   UNL     1      -3.233 -18.144   6.147  0.00  0.00    +0.000 HD
ENDBRANCH  32  35
ENDBRANCH  31  32
ENDBRANCH  30  31
ENDBRANCH  26  30
ENDBRANCH  23  26
ENDBRANCH  20  23
ENDBRANCH   1  20
TORSDOF 12
ENDMDL
MODEL 7
REMARK VINA RESULT:    -4.326     10.623     12.488
REMARK INTER + INTRA:          -7.716
REMARK INTER:                  -6.672
REMARK INTRA:                  -1.044
REMARK UNBOUND:                -0.608
REMARK  Name = 8048
REMARK  12 active torsions:
REMARK  status: ('A' for Active; 'I' for Inactive)
REMARK    1  A    between atoms: O_1  and  C_12
REMARK    2  A    between atoms: O_1  and  C_13
REMARK    3  A    between atoms: C_3  and  C_4
REMARK    4  A    between atoms: C_3  and  C_5
REMARK    5  A    between atoms: C_4  and  C_6
REMARK    6  A    between atoms: C_5  and  C_7
REMARK    7  A    between atoms: C_6  and  C_8
REMARK    8  A    between atoms: C_7  and  C_9
REMARK    9  A    between atoms: C_8  and  C_10
REMARK   10  A    between atoms: C_9  and  C_11
REMARK   11  A    between atoms: C_10  and  C_12
REMARK   12  A    between atoms: C_13  and  C_14
REMARK                            x       y       z     vdW  Elec       q    Type
REMARK                         _______ _______ _______ _____ _____    ______ ____
ROOT
ATOM      1  C   UNL     1      15.043   4.552  -0.979  0.00  0.00    +0.000 C 
ATOM      2  H   UNL     1      15.000   4.240  -2.030  0.00  0.00    +0.000 HD
ATOM      3  H   UNL     1      14.098   5.062  -0.754  0.00  0.00    +0.000 HD
ENDROOT
BRANCH   1   4
ATOM      4  C   UNL     1      16.210   5.523  -0.781  0.00  0.00    +0.000 C 
ATOM      5  H   UNL     1      16.147   5.978   0.214  0.00  0.00    +0.000 HD
ATOM      6  H   UNL     1      17.157   4.973  -0.827  0.00  0.00    +0.000 HD
BRANCH   4   7
ATOM      7  C   UNL     1      16.205   6.619  -1.849  0.00  0.00    +0.000 C 
ATOM      8  H   UNL     1      17.164   6.608  -2.382  0.00  0.00    +0.000 HD
ATOM      9  H   UNL     1      16.126   7.598  -1.360  0.00  0.00    +0.000 HD
BRANCH   7  10
ATOM     10  C   UNL     1      15.066   6.477  -2.862  0.00  0.00    +0.000 C 
ATOM     11  H   UNL     1      14.224   5.957  -2.388  0.00  0.00    +0.000 HD
ATOM     12  H   UNL     1      15.406   5.840  -3.689  0.00  0.00    +0.000 HD
BRANCH  10  13
ATOM     13  C   UNL     1      14.580   7.815  -3.421  0.00  0.00    +0.000 C 
ATOM     14  H   UNL     1      13.602   8.062  -2.994  0.00  0.00    +0.000 HD
ATOM     15  H   UNL     1      14.450   7.737  -4.507  0.00  0.00    +0.000 HD
BRANCH  13  16
ATOM     16  C   UNL     1      15.560   8.935  -3.107  0.00  0.00    +0.000 C 
ATOM     17  H   UNL     1      15.387   9.337  -2.104  0.00  0.00    +0.000 HD
ATOM     18  H   UNL     1      15.443   9.753  -3.825  0.00  0.00    +0.000 HD
ATOM     19  H   UNL     1      16.593   8.580  -3.164  0.00  0.00    +0.000 HD
ENDBRANCH  13  16
ENDBRANCH  10  13
ENDBRANCH   7  10
ENDBRANCH   4   7
ENDBRANCH   1   4
BRANCH   1  20
ATOM     20  C   UNL     1      15.186   3.319  -0.086  0.00  0.00    +0.000 C 
ATOM     21  H   UNL     1      15.449   2.447  -0.700  0.00  0.00    +0.000 HD
ATOM     22  H   UNL     1      16.008   3.474   0.622  0.00  0.00    +0.000 HD
BRANCH  20  23
ATOM     23  C   UNL     1      13.894   3.032   0.678  0.00  0.00    +0.000 C 
ATOM     24  H   UNL     1      13.614   1.979   0.547  0.00  0.00    +0.000 HD
ATOM     25  H   UNL     1      13.079   3.632   0.254  0.00  0.00    +0.000 HD
BRANCH  23  26
ATOM     26  C   UNL     1      14.047   3.345   2.162  0.00  0.00    +0.000 C 
ATOM     27  H   UNL     1      13.664   2.512   2.761  0.00  0.00    +0.000 HD
ATOM     28  H   UNL     1      15.102   3.510   2.407  0.00  0.00    +0.000 HD
BRANCH  26  30
ATOM     29  O   UNL     1      12.182   4.579   3.071  0.00  0.00    +0.000 OA
ATOM     30  C   UNL     1      13.278   4.590   2.526  0.00  0.00    +0.000 C 
BRANCH  30  31
ATOM     31  O   UNL     1      13.995   5.698   2.178  0.00  0.00    +0.000 OA
BRANCH  31  32
ATOM     32  C   UNL     1      13.238   6.904   2.046  0.00  0.00    +0.000 C 
ATOM     33  H   UNL     1      13.804   7.739   2.474  0.00  0.00    +0.000 HD
ATOM     34  H   UNL     1      12.286   6.799   2.579  0.00  0.00    +0.000 HD
BRANCH  32  35
ATOM     35  C   UNL     1      12.975   7.164   0.578  0.00  0.00    +0.000 C 
ATOM     36  H   UNL     1      12.802   6.223   0.045  0.00  0.00    +0.000 HD
ATOM     37  H   UNL     1      12.074   7.773   0.449  0.00  0.00    +0.000 HD
ATOM     38  H   UNL     1      13.819   7.681   0.115  0.00  0.00    +0.000 HD
ENDBRANCH  32  35
ENDBRANCH  31  32
ENDBRANCH  30  31
ENDBRANCH  26  30
ENDBRANCH  23  26
ENDBRANCH  20  23
ENDBRANCH   1  20
TORSDOF 12
ENDMDL
MODEL 8
REMARK VINA RESULT:    -4.255     34.562     36.426
REMARK INTER + INTRA:          -7.600
REMARK INTER:                  -7.156
REMARK INTRA:                  -0.443
REMARK UNBOUND:                -0.608
REMARK  Name = 8048
REMARK  12 active torsions:
REMARK  status: ('A' for Active; 'I' for Inactive)
REMARK    1  A    between atoms: O_1  and  C_12
REMARK    2  A    between atoms: O_1  and  C_13
REMARK    3  A    between atoms: C_3  and  C_4
REMARK    4  A    between atoms: C_3  and  C_5
REMARK    5  A    between atoms: C_4  and  C_6
REMARK    6  A    between atoms: C_5  and  C_7
REMARK    7  A    between atoms: C_6  and  C_8
REMARK    8  A    between atoms: C_7  and  C_9
REMARK    9  A    between atoms: C_8  and  C_10
REMARK   10  A    between atoms: C_9  and  C_11
REMARK   11  A    between atoms: C_10  and  C_12
REMARK   12  A    between atoms: C_13  and  C_14
REMARK                            x       y       z     vdW  Elec       q    Type
REMARK                         _______ _______ _______ _____ _____    ______ ____
ROOT
ATOM      1  C   UNL     1      -2.169   6.000  24.800  0.00  0.00    +0.000 C 
ATOM      2  H   UNL     1      -1.456   5.336  25.303  0.00  0.00    +0.000 HD
ATOM      3  H   UNL     1      -2.322   6.866  25.454  0.00  0.00    +0.000 HD
ENDROOT
BRANCH   1   4
ATOM      4  C   UNL     1      -3.498   5.267  24.599  0.00  0.00    +0.000 C 
ATOM      5  H   UNL     1      -4.331   5.954  24.788  0.00  0.00    +0.000 HD
ATOM      6  H   UNL     1      -3.581   4.935  23.558  0.00  0.00    +0.000 HD
BRANCH   4   7
ATOM      7  C   UNL     1      -3.608   4.058  25.530  0.00  0.00    +0.000 C 
ATOM      8  H   UNL     1      -2.623   3.845  25.965  0.00  0.00    +0.000 HD
ATOM      9  H   UNL     1      -3.892   3.175  24.942  0.00  0.00    +0.000 HD
BRANCH   7  10
ATOM     10  C   UNL     1      -4.625   4.248  26.658  0.00  0.00    +0.000 C 
ATOM     11  H   UNL     1      -4.196   4.910  27.422  0.00  0.00    +0.000 HD
ATOM     12  H   UNL     1      -4.802   3.279  27.143  0.00  0.00    +0.000 HD
BRANCH  10  13
ATOM     13  C   UNL     1      -5.959   4.826  26.184  0.00  0.00    +0.000 C 
ATOM     14  H   UNL     1      -6.586   4.026  25.777  0.00  0.00    +0.000 HD
ATOM     15  H   UNL     1      -5.785   5.546  25.375  0.00  0.00    +0.000 HD
BRANCH  13  16
ATOM     16  C   UNL     1      -6.701   5.513  27.321  0.00  0.00    +0.000 C 
ATOM     17  H   UNL     1      -7.040   4.784  28.064  0.00  0.00    +0.000 HD
ATOM     18  H   UNL     1      -7.580   6.040  26.936  0.00  0.00    +0.000 HD
ATOM     19  H   UNL     1      -6.060   6.244  27.822  0.00  0.00    +0.000 HD
ENDBRANCH  13  16
ENDBRANCH  10  13
ENDBRANCH   7  10
ENDBRANCH   4   7
ENDBRANCH   1   4
BRANCH   1  20
ATOM     20  C   UNL     1      -1.581   6.462  23.465  0.00  0.00    +0.000 C 
ATOM     21  H   UNL     1      -0.513   6.212  23.426  0.00  0.00    +0.000 HD
ATOM     22  H   UNL     1      -2.070   5.924  22.645  0.00  0.00    +0.000 HD
BRANCH  20  23
ATOM     23  C   UNL     1      -1.759   7.968  23.270  0.00  0.00    +0.000 C 
ATOM     24  H   UNL     1      -2.789   8.180  22.959  0.00  0.00    +0.000 HD
ATOM     25  H   UNL     1      -1.105   8.309  22.457  0.00  0.00    +0.000 HD
BRANCH  23  26
ATOM     26  C   UNL     1      -1.436   8.735  24.547  0.00  0.00    +0.000 C 
ATOM     27  H   UNL     1      -2.213   8.555  25.298  0.00  0.00    +0.000 HD
ATOM     28  H   UNL     1      -0.467   8.412  24.946  0.00  0.00    +0.000 HD
BRANCH  26  30
ATOM     29  O   UNL     1      -0.324  10.814  24.034  0.00  0.00    +0.000 OA
ATOM     30  C   UNL     1      -1.365  10.216  24.276  0.00  0.00    +0.000 C 
BRANCH  30  31
ATOM     31  O   UNL     1      -2.615  10.758  24.322  0.00  0.00    +0.000 OA
BRANCH  31  32
ATOM     32  C   UNL     1      -2.862  11.816  23.391  0.00  0.00    +0.000 C 
ATOM     33  H   UNL     1      -2.560  11.497  22.387  0.00  0.00    +0.000 HD
ATOM     34  H   UNL     1      -2.284  12.701  23.680  0.00  0.00    +0.000 HD
BRANCH  32  35
ATOM     35  C   UNL     1      -4.340  12.145  23.399  0.00  0.00    +0.000 C 
ATOM     36  H   UNL     1      -4.845  11.628  24.222  0.00  0.00    +0.000 HD
ATOM     37  H   UNL     1      -4.494  13.218  23.555  0.00  0.00    +0.000 HD
ATOM     38  H   UNL     1      -4.811  11.854  22.456  0.00  0.00    +0.000 HD
ENDBRANCH  32  35
ENDBRANCH  31  32
ENDBRANCH  30  31
ENDBRANCH  26  30
ENDBRANCH  23  26
ENDBRANCH  20  23
ENDBRANCH   1  20
TORSDOF 12
ENDMDL
MODEL 9
REMARK VINA RESULT:    -4.239     32.343     34.053
REMARK INTER + INTRA:          -7.572
REMARK INTER:                  -6.896
REMARK INTRA:                  -0.677
REMARK UNBOUND:                -0.608
REMARK  Name = 8048
REMARK  12 active torsions:
REMARK  status: ('A' for Active; 'I' for Inactive)
REMARK    1  A    between atoms: O_1  and  C_12
REMARK    2  A    between atoms: O_1  and  C_13
REMARK    3  A    between atoms: C_3  and  C_4
REMARK    4  A    between atoms: C_3  and  C_5
REMARK    5  A    between atoms: C_4  and  C_6
REMARK    6  A    between atoms: C_5  and  C_7
REMARK    7  A    between atoms: C_6  and  C_8
REMARK    8  A    between atoms: C_7  and  C_9
REMARK    9  A    between atoms: C_8  and  C_10
REMARK   10  A    between atoms: C_9  and  C_11
REMARK   11  A    between atoms: C_10  and  C_12
REMARK   12  A    between atoms: C_13  and  C_14
REMARK                            x       y       z     vdW  Elec       q    Type
REMARK                         _______ _______ _______ _____ _____    ______ ____
ROOT
ATOM      1  C   UNL     1     -15.847  -6.473  -3.503  0.00  0.00    +0.000 C 
ATOM      2  H   UNL     1     -16.305  -6.652  -4.484  0.00  0.00    +0.000 HD
ATOM      3  H   UNL     1     -15.406  -7.422  -3.175  0.00  0.00    +0.000 HD
ENDROOT
BRANCH   1   4
ATOM      4  C   UNL     1     -16.924  -6.035  -2.508  0.00  0.00    +0.000 C 
ATOM      5  H   UNL     1     -16.664  -6.388  -1.503  0.00  0.00    +0.000 HD
ATOM      6  H   UNL     1     -16.962  -4.940  -2.466  0.00  0.00    +0.000 HD
BRANCH   4   7
ATOM      7  C   UNL     1     -18.298  -6.578  -2.904  0.00  0.00    +0.000 C 
ATOM      8  H   UNL     1     -18.342  -7.651  -2.680  0.00  0.00    +0.000 HD
ATOM      9  H   UNL     1     -18.427  -6.477  -3.990  0.00  0.00    +0.000 HD
BRANCH   7  10
ATOM     10  C   UNL     1     -19.459  -5.870  -2.200  0.00  0.00    +0.000 C 
ATOM     11  H   UNL     1     -19.526  -4.837  -2.565  0.00  0.00    +0.000 HD
ATOM     12  H   UNL     1     -19.238  -5.811  -1.126  0.00  0.00    +0.000 HD
BRANCH  10  13
ATOM     13  C   UNL     1     -20.807  -6.564  -2.402  0.00  0.00    +0.000 C 
ATOM     14  H   UNL     1     -21.346  -6.092  -3.232  0.00  0.00    +0.000 HD
ATOM     15  H   UNL     1     -21.424  -6.444  -1.504  0.00  0.00    +0.000 HD
BRANCH  13  16
ATOM     16  C   UNL     1     -20.629  -8.045  -2.700  0.00  0.00    +0.000 C 
ATOM     17  H   UNL     1     -20.603  -8.630  -1.776  0.00  0.00    +0.000 HD
ATOM     18  H   UNL     1     -19.689  -8.213  -3.236  0.00  0.00    +0.000 HD
ATOM     19  H   UNL     1     -21.446  -8.420  -3.324  0.00  0.00    +0.000 HD
ENDBRANCH  13  16
ENDBRANCH  10  13
ENDBRANCH   7  10
ENDBRANCH   4   7
ENDBRANCH   1   4
BRANCH   1  20
ATOM     20  C   UNL     1     -14.750  -5.416  -3.639  0.00  0.00    +0.000 C 
ATOM     21  H   UNL     1     -15.005  -4.720  -4.449  0.00  0.00    +0.000 HD
ATOM     22  H   UNL     1     -14.693  -4.828  -2.715  0.00  0.00    +0.000 HD
BRANCH  20  23
ATOM     23  C   UNL     1     -13.392  -6.056  -3.927  0.00  0.00    +0.000 C 
ATOM     24  H   UNL     1     -13.535  -6.981  -4.500  0.00  0.00    +0.000 HD
ATOM     25  H   UNL     1     -12.916  -6.342  -2.980  0.00  0.00    +0.000 HD
BRANCH  23  26
ATOM     26  C   UNL     1     -12.482  -5.106  -4.696  0.00  0.00    +0.000 C 
ATOM     27  H   UNL     1     -12.334  -4.185  -4.121  0.00  0.00    +0.000 HD
ATOM     28  H   UNL     1     -11.511  -5.579  -4.878  0.00  0.00    +0.000 HD
BRANCH  26  30
ATOM     29  O   UNL     1     -13.415  -3.610  -6.344  0.00  0.00    +0.000 OA
ATOM     30  C   UNL     1     -13.090  -4.747  -6.028  0.00  0.00    +0.000 C 
BRANCH  30  31
ATOM     31  O   UNL     1     -13.193  -5.861  -6.808  0.00  0.00    +0.000 OA
BRANCH  31  32
ATOM     32  C   UNL     1     -14.340  -5.912  -7.660  0.00  0.00    +0.000 C 
ATOM     33  H   UNL     1     -14.039  -6.249  -8.658  0.00  0.00    +0.000 HD
ATOM     34  H   UNL     1     -14.787  -4.915  -7.732  0.00  0.00    +0.000 HD
BRANCH  32  35
ATOM     35  C   UNL     1     -15.346  -6.882  -7.076  0.00  0.00    +0.000 C 
ATOM     36  H   UNL     1     -16.058  -7.207  -7.843  0.00  0.00    +0.000 HD
ATOM     37  H   UNL     1     -14.844  -7.782  -6.707  0.00  0.00    +0.000 HD
ATOM     38  H   UNL     1     -15.899  -6.423  -6.252  0.00  0.00    +0.000 HD
ENDBRANCH  32  35
ENDBRANCH  31  32
ENDBRANCH  30  31
ENDBRANCH  26  30
ENDBRANCH  23  26
ENDBRANCH  20  23
ENDBRANCH   1  20
TORSDOF 12
ENDMDL
MODEL 10
REMARK VINA RESULT:    -4.151     22.940     24.620
REMARK INTER + INTRA:          -7.428
REMARK INTER:                  -6.820
REMARK INTRA:                  -0.608
REMARK UNBOUND:                -0.608
REMARK  Name = 8048
REMARK  12 active torsions:
REMARK  status: ('A' for Active; 'I' for Inactive)
REMARK    1  A    between atoms: O_1  and  C_12
REMARK    2  A    between atoms: O_1  and  C_13
REMARK    3  A    between atoms: C_3  and  C_4
REMARK    4  A    between atoms: C_3  and  C_5
REMARK    5  A    between atoms: C_4  and  C_6
REMARK    6  A    between atoms: C_5  and  C_7
REMARK    7  A    between atoms: C_6  and  C_8
REMARK    8  A    between atoms: C_7  and  C_9
REMARK    9  A    between atoms: C_8  and  C_10
REMARK   10  A    between atoms: C_9  and  C_11
REMARK   11  A    between atoms: C_10  and  C_12
REMARK   12  A    between atoms: C_13  and  C_14
REMARK                            x       y       z     vdW  Elec       q    Type
REMARK                         _______ _______ _______ _____ _____    ______ ____
ROOT
ATOM      1  C   UNL     1      -2.783 -16.582   1.720  0.00  0.00    +0.000 C 
ATOM      2  H   UNL     1      -2.052 -16.961   2.445  0.00  0.00    +0.000 HD
ATOM      3  H   UNL     1      -3.122 -17.438   1.124  0.00  0.00    +0.000 HD
ENDROOT
BRANCH   1   4
ATOM      4  C   UNL     1      -2.113 -15.554   0.806  0.00  0.00    +0.000 C 
ATOM      5  H   UNL     1      -2.682 -14.617   0.824  0.00  0.00    +0.000 HD
ATOM      6  H   UNL     1      -1.107 -15.329   1.181  0.00  0.00    +0.000 HD
BRANCH   4   7
ATOM      7  C   UNL     1      -2.018 -16.069  -0.631  0.00  0.00    +0.000 C 
ATOM      8  H   UNL     1      -1.955 -17.165  -0.619  0.00  0.00    +0.000 HD
ATOM      9  H   UNL     1      -1.087 -15.704  -1.085  0.00  0.00    +0.000 HD
BRANCH   7  10
ATOM     10  C   UNL     1      -3.197 -15.644  -1.510  0.00  0.00    +0.000 C 
ATOM     11  H   UNL     1      -3.607 -14.699  -1.131  0.00  0.00    +0.000 HD
ATOM     12  H   UNL     1      -3.995 -16.393  -1.418  0.00  0.00    +0.000 HD
BRANCH  10  13
ATOM     13  C   UNL     1      -2.828 -15.477  -2.985  0.00  0.00    +0.000 C 
ATOM     14  H   UNL     1      -2.165 -14.613  -3.105  0.00  0.00    +0.000 HD
ATOM     15  H   UNL     1      -3.731 -15.278  -3.573  0.00  0.00    +0.000 HD
BRANCH  13  16
ATOM     16  C   UNL     1      -2.134 -16.717  -3.526  0.00  0.00    +0.000 C 
ATOM     17  H   UNL     1      -2.682 -17.134  -4.377  0.00  0.00    +0.000 HD
ATOM     18  H   UNL     1      -2.075 -17.487  -2.750  0.00  0.00    +0.000 HD
ATOM     19  H   UNL     1      -1.115 -16.486  -3.851  0.00  0.00    +0.000 HD
ENDBRANCH  13  16
ENDBRANCH  10  13
ENDBRANCH   7  10
ENDBRANCH   4   7
ENDBRANCH   1   4
BRANCH   1  20
ATOM     20  C   UNL     1      -3.971 -15.973   2.466  0.00  0.00    +0.000 C 
ATOM     21  H   UNL     1      -4.890 -16.510   2.198  0.00  0.00    +0.000 HD
ATOM     22  H   UNL     1      -3.828 -16.099   3.546  0.00  0.00    +0.000 HD
BRANCH  20  23
ATOM     23  C   UNL     1      -4.135 -14.490   2.138  0.00  0.00    +0.000 C 
ATOM     24  H   UNL     1      -4.427 -14.375   1.086  0.00  0.00    +0.000 HD
ATOM     25  H   UNL     1      -3.168 -13.983   2.255  0.00  0.00    +0.000 HD
BRANCH  23  26
ATOM     26  C   UNL     1      -5.174 -13.833   3.038  0.00  0.00    +0.000 C 
ATOM     27  H   UNL     1      -5.323 -14.437   3.939  0.00  0.00    +0.000 HD
ATOM     28  H   UNL     1      -4.842 -12.829   3.328  0.00  0.00    +0.000 HD
BRANCH  26  30
ATOM     29  O   UNL     1      -6.601 -13.442   1.132  0.00  0.00    +0.000 OA
ATOM     30  C   UNL     1      -6.495 -13.705   2.323  0.00  0.00    +0.000 C 
BRANCH  30  31
ATOM     31  O   UNL     1      -7.519 -13.945   3.190  0.00  0.00    +0.000 OA
BRANCH  31  32
ATOM     32  C   UNL     1      -7.162 -13.966   4.575  0.00  0.00    +0.000 C 
ATOM     33  H   UNL     1      -6.152 -13.557   4.697  0.00  0.00    +0.000 HD
ATOM     34  H   UNL     1      -7.183 -14.997   4.943  0.00  0.00    +0.000 HD
BRANCH  32  35
ATOM     35  C   UNL     1      -8.152 -13.125   5.353  0.00  0.00    +0.000 C 
ATOM     36  H   UNL     1      -9.103 -13.657   5.467  0.00  0.00    +0.000 HD
ATOM     37  H   UNL     1      -7.777 -12.924   6.362  0.00  0.00    +0.000 HD
ATOM     38  H   UNL     1      -8.338 -12.173   4.850  0.00  0.00    +0.000 HD
ENDBRANCH  32  35
ENDBRANCH  31  32
ENDBRANCH  30  31
ENDBRANCH  26  30
ENDBRANCH  23  26
ENDBRANCH  20  23
ENDBRANCH   1  20
TORSDOF 12
ENDMDL
