MODEL 1
REMARK VINA RESULT:    -3.476      0.000      0.000
REMARK INTER + INTRA:          -4.479
REMARK INTER:                  -4.291
REMARK INTRA:                  -0.188
REMARK UNBOUND:                -0.190
REMARK  Name = 7749
REMARK  5 active torsions:
REMARK  status: ('A' for Active; 'I' for Inactive)
REMARK    1  A    between atoms: O_1  and  C_4
REMARK    2  A    between atoms: O_1  and  C_5
REMARK    3  A    between atoms: C_3  and  C_5
REMARK    4  A    between atoms: C_3  and  C_6
REMARK    5  A    between atoms: C_4  and  C_7
REMARK                            x       y       z     vdW  Elec       q    Type
REMARK                         _______ _______ _______ _____ _____    ______ ____
ROOT
ATOM      1  O   UNL     1      18.524  -4.076  -2.759  0.00  0.00    +0.000 OA
ATOM      2  C   UNL     1      17.910  -4.969  -3.326  0.00  0.00    +0.000 C 
ENDROOT
BRANCH   2   3
ATOM      3  C   UNL     1      18.539  -6.133  -4.056  0.00  0.00    +0.000 C 
ATOM      4  H   UNL     1      19.466  -5.786  -4.527  0.00  0.00    +0.000 HD
ATOM      5  H   UNL     1      18.778  -6.912  -3.325  0.00  0.00    +0.000 HD
BRANCH   3   6
ATOM      6  C   UNL     1      17.619  -6.706  -5.119  0.00  0.00    +0.000 C 
ATOM      7  H   UNL     1      16.747  -6.063  -5.274  0.00  0.00    +0.000 HD
ATOM      8  H   UNL     1      18.149  -6.799  -6.072  0.00  0.00    +0.000 HD
ATOM      9  H   UNL     1      17.255  -7.699  -4.831  0.00  0.00    +0.000 HD
ENDBRANCH   3   6
ENDBRANCH   2   3
BRANCH   2  10
ATOM     10  O   UNL     1      16.550  -5.082  -3.405  0.00  0.00    +0.000 OA
BRANCH  10  11
ATOM     11  C   UNL     1      15.855  -5.034  -2.155  0.00  0.00    +0.000 C 
ATOM     12  H   UNL     1      16.533  -4.674  -1.373  0.00  0.00    +0.000 HD
ATOM     13  H   UNL     1      15.002  -4.353  -2.238  0.00  0.00    +0.000 HD
BRANCH  11  14
ATOM     14  C   UNL     1      15.368  -6.425  -1.809  0.00  0.00    +0.000 C 
ATOM     15  H   UNL     1      16.161  -7.010  -1.335  0.00  0.00    +0.000 HD
ATOM     16  H   UNL     1      14.512  -6.375  -1.128  0.00  0.00    +0.000 HD
ATOM     17  H   UNL     1      15.030  -6.951  -2.708  0.00  0.00    +0.000 HD
ENDBRANCH  11  14
ENDBRANCH  10  11
ENDBRANCH   2  10
TORSDOF 5
ENDMDL
MODEL 2
REMARK VINA RESULT:    -3.174      1.538      2.177
REMARK INTER + INTRA:          -4.106
REMARK INTER:                  -3.977
REMARK INTRA:                  -0.129
REMARK UNBOUND:                -0.190
REMARK  Name = 7749
REMARK  5 active torsions:
REMARK  status: ('A' for Active; 'I' for Inactive)
REMARK    1  A    between atoms: O_1  and  C_4
REMARK    2  A    between atoms: O_1  and  C_5
REMARK    3  A    between atoms: C_3  and  C_5
REMARK    4  A    between atoms: C_3  and  C_6
REMARK    5  A    between atoms: C_4  and  C_7
REMARK                            x       y       z     vdW  Elec       q    Type
REMARK                         _______ _______ _______ _____ _____    ______ ____
ROOT
ATOM      1  O   UNL     1      17.468  -6.948  -5.490  0.00  0.00    +0.000 OA
ATOM      2  C   UNL     1      17.918  -6.381  -4.504  0.00  0.00    +0.000 C 
ENDROOT
BRANCH   2   3
ATOM      3  C   UNL     1      19.300  -6.594  -3.933  0.00  0.00    +0.000 C 
ATOM      4  H   UNL     1      19.222  -6.637  -2.841  0.00  0.00    +0.000 HD
ATOM      5  H   UNL     1      19.685  -7.549  -4.303  0.00  0.00    +0.000 HD
BRANCH   3   6
ATOM      6  C   UNL     1      20.258  -5.481  -4.323  0.00  0.00    +0.000 C 
ATOM      7  H   UNL     1      20.837  -5.754  -5.211  0.00  0.00    +0.000 HD
ATOM      8  H   UNL     1      19.707  -4.562  -4.542  0.00  0.00    +0.000 HD
ATOM      9  H   UNL     1      20.967  -5.271  -3.514  0.00  0.00    +0.000 HD
ENDBRANCH   3   6
ENDBRANCH   2   3
BRANCH   2  10
ATOM     10  O   UNL     1      17.262  -5.456  -3.742  0.00  0.00    +0.000 OA
BRANCH  10  11
ATOM     11  C   UNL     1      16.891  -5.891  -2.430  0.00  0.00    +0.000 C 
ATOM     12  H   UNL     1      17.487  -6.768  -2.154  0.00  0.00    +0.000 HD
ATOM     13  H   UNL     1      17.076  -5.085  -1.713  0.00  0.00    +0.000 HD
BRANCH  11  14
ATOM     14  C   UNL     1      15.420  -6.252  -2.428  0.00  0.00    +0.000 C 
ATOM     15  H   UNL     1      15.058  -6.408  -1.408  0.00  0.00    +0.000 HD
ATOM     16  H   UNL     1      14.829  -5.458  -2.894  0.00  0.00    +0.000 HD
ATOM     17  H   UNL     1      15.246  -7.163  -3.009  0.00  0.00    +0.000 HD
ENDBRANCH  11  14
ENDBRANCH  10  11
ENDBRANCH   2  10
TORSDOF 5
ENDMDL
MODEL 3
REMARK VINA RESULT:    -3.157     25.717     26.547
REMARK INTER + INTRA:          -4.085
REMARK INTER:                  -3.940
REMARK INTRA:                  -0.145
REMARK UNBOUND:                -0.190
REMARK  Name = 7749
REMARK  5 active torsions:
REMARK  status: ('A' for Active; 'I' for Inactive)
REMARK    1  A    between atoms: O_1  and  C_4
REMARK    2  A    between atoms: O_1  and  C_5
REMARK    3  A    between atoms: C_3  and  C_5
REMARK    4  A    between atoms: C_3  and  C_6
REMARK    5  A    between atoms: C_4  and  C_7
REMARK                            x       y       z     vdW  Elec       q    Type
REMARK                         _______ _______ _______ _____ _____    ______ ____
ROOT
ATOM      1  O   UNL     1      -5.193 -14.041   3.993  0.00  0.00    +0.000 OA
ATOM      2  C   UNL     1      -6.346 -13.677   3.805  0.00  0.00    +0.000 C 
ENDROOT
BRANCH   2   3
ATOM      3  C   UNL     1      -7.289 -14.266   2.781  0.00  0.00    +0.000 C 
ATOM      4  H   UNL     1      -7.075 -15.335   2.687  0.00  0.00    +0.000 HD
ATOM      5  H   UNL     1      -8.315 -14.135   3.140  0.00  0.00    +0.000 HD
BRANCH   3   6
ATOM      6  C   UNL     1      -7.145 -13.603   1.422  0.00  0.00    +0.000 C 
ATOM      7  H   UNL     1      -6.247 -12.976   1.384  0.00  0.00    +0.000 HD
ATOM      8  H   UNL     1      -7.069 -14.358   0.635  0.00  0.00    +0.000 HD
ATOM      9  H   UNL     1      -8.007 -12.964   1.203  0.00  0.00    +0.000 HD
ENDBRANCH   3   6
ENDBRANCH   2   3
BRANCH   2  10
ATOM     10  O   UNL     1      -6.991 -12.679   4.479  0.00  0.00    +0.000 OA
BRANCH  10  11
ATOM     11  C   UNL     1      -8.176 -13.074   5.177  0.00  0.00    +0.000 C 
ATOM     12  H   UNL     1      -8.867 -12.225   5.232  0.00  0.00    +0.000 HD
ATOM     13  H   UNL     1      -8.656 -13.900   4.643  0.00  0.00    +0.000 HD
BRANCH  11  14
ATOM     14  C   UNL     1      -7.800 -13.517   6.575  0.00  0.00    +0.000 C 
ATOM     15  H   UNL     1      -6.844 -14.049   6.573  0.00  0.00    +0.000 HD
ATOM     16  H   UNL     1      -7.721 -12.654   7.244  0.00  0.00    +0.000 HD
ATOM     17  H   UNL     1      -8.570 -14.174   6.992  0.00  0.00    +0.000 HD
ENDBRANCH  11  14
ENDBRANCH  10  11
ENDBRANCH   2  10
TORSDOF 5
ENDMDL
MODEL 4
REMARK VINA RESULT:    -3.098     30.747     32.165
REMARK INTER + INTRA:          -4.013
REMARK INTER:                  -3.932
REMARK INTRA:                  -0.081
REMARK UNBOUND:                -0.190
REMARK  Name = 7749
REMARK  5 active torsions:
REMARK  status: ('A' for Active; 'I' for Inactive)
REMARK    1  A    between atoms: O_1  and  C_4
REMARK    2  A    between atoms: O_1  and  C_5
REMARK    3  A    between atoms: C_3  and  C_5
REMARK    4  A    between atoms: C_3  and  C_6
REMARK    5  A    between atoms: C_4  and  C_7
REMARK                            x       y       z     vdW  Elec       q    Type
REMARK                         _______ _______ _______ _____ _____    ______ ____
ROOT
ATOM      1  O   UNL     1     -15.025  -4.453  -4.175  0.00  0.00    +0.000 OA
ATOM      2  C   UNL     1     -14.621  -5.578  -3.914  0.00  0.00    +0.000 C 
ENDROOT
BRANCH   2   3
ATOM      3  C   UNL     1     -13.171  -6.003  -3.911  0.00  0.00    +0.000 C 
ATOM      4  H   UNL     1     -12.773  -5.870  -2.899  0.00  0.00    +0.000 HD
ATOM      5  H   UNL     1     -13.120  -7.062  -4.180  0.00  0.00    +0.000 HD
BRANCH   3   6
ATOM      6  C   UNL     1     -12.335  -5.195  -4.889  0.00  0.00    +0.000 C 
ATOM      7  H   UNL     1     -12.932  -4.882  -5.752  0.00  0.00    +0.000 HD
ATOM      8  H   UNL     1     -11.940  -4.298  -4.403  0.00  0.00    +0.000 HD
ATOM      9  H   UNL     1     -11.490  -5.783  -5.263  0.00  0.00    +0.000 HD
ENDBRANCH   3   6
ENDBRANCH   2   3
BRANCH   2  10
ATOM     10  O   UNL     1     -15.397  -6.651  -3.581  0.00  0.00    +0.000 OA
BRANCH  10  11
ATOM     11  C   UNL     1     -16.796  -6.383  -3.449  0.00  0.00    +0.000 C 
ATOM     12  H   UNL     1     -17.031  -5.425  -3.927  0.00  0.00    +0.000 HD
ATOM     13  H   UNL     1     -17.368  -7.181  -3.934  0.00  0.00    +0.000 HD
BRANCH  11  14
ATOM     14  C   UNL     1     -17.150  -6.320  -1.978  0.00  0.00    +0.000 C 
ATOM     15  H   UNL     1     -17.492  -7.293  -1.616  0.00  0.00    +0.000 HD
ATOM     16  H   UNL     1     -16.283  -6.009  -1.387  0.00  0.00    +0.000 HD
ATOM     17  H   UNL     1     -17.937  -5.579  -1.802  0.00  0.00    +0.000 HD
ENDBRANCH  11  14
ENDBRANCH  10  11
ENDBRANCH   2  10
TORSDOF 5
ENDMDL
MODEL 5
REMARK VINA RESULT:    -3.079     31.374     32.937
REMARK INTER + INTRA:          -3.989
REMARK INTER:                  -3.932
REMARK INTRA:                  -0.056
REMARK UNBOUND:                -0.190
REMARK  Name = 7749
REMARK  5 active torsions:
REMARK  status: ('A' for Active; 'I' for Inactive)
REMARK    1  A    between atoms: O_1  and  C_4
REMARK    2  A    between atoms: O_1  and  C_5
REMARK    3  A    between atoms: C_3  and  C_5
REMARK    4  A    between atoms: C_3  and  C_6
REMARK    5  A    between atoms: C_4  and  C_7
REMARK                            x       y       z     vdW  Elec       q    Type
REMARK                         _______ _______ _______ _____ _____    ______ ____
ROOT
ATOM      1  O   UNL     1     -15.936  -4.505  -3.569  0.00  0.00    +0.000 OA
ATOM      2  C   UNL     1     -15.946  -5.669  -3.193  0.00  0.00    +0.000 C 
ENDROOT
BRANCH   2   3
ATOM      3  C   UNL     1     -16.910  -6.250  -2.184  0.00  0.00    +0.000 C 
ATOM      4  H   UNL     1     -16.443  -7.126  -1.723  0.00  0.00    +0.000 HD
ATOM      5  H   UNL     1     -17.101  -5.497  -1.413  0.00  0.00    +0.000 HD
BRANCH   3   6
ATOM      6  C   UNL     1     -18.227  -6.660  -2.822  0.00  0.00    +0.000 C 
ATOM      7  H   UNL     1     -18.064  -7.377  -3.634  0.00  0.00    +0.000 HD
ATOM      8  H   UNL     1     -18.881  -7.127  -2.080  0.00  0.00    +0.000 HD
ATOM      9  H   UNL     1     -18.748  -5.793  -3.242  0.00  0.00    +0.000 HD
ENDBRANCH   3   6
ENDBRANCH   2   3
BRANCH   2  10
ATOM     10  O   UNL     1     -15.097  -6.654  -3.610  0.00  0.00    +0.000 OA
BRANCH  10  11
ATOM     11  C   UNL     1     -14.108  -6.252  -4.563  0.00  0.00    +0.000 C 
ATOM     12  H   UNL     1     -13.928  -7.070  -5.270  0.00  0.00    +0.000 HD
ATOM     13  H   UNL     1     -14.464  -5.371  -5.108  0.00  0.00    +0.000 HD
BRANCH  11  14
ATOM     14  C   UNL     1     -12.825  -5.918  -3.831  0.00  0.00    +0.000 C 
ATOM     15  H   UNL     1     -12.116  -5.414  -4.495  0.00  0.00    +0.000 HD
ATOM     16  H   UNL     1     -13.029  -5.268  -2.975  0.00  0.00    +0.000 HD
ATOM     17  H   UNL     1     -12.358  -6.826  -3.438  0.00  0.00    +0.000 HD
ENDBRANCH  11  14
ENDBRANCH  10  11
ENDBRANCH   2  10
TORSDOF 5
ENDMDL
MODEL 6
REMARK VINA RESULT:    -3.032     25.548     26.165
REMARK INTER + INTRA:          -3.930
REMARK INTER:                  -3.827
REMARK INTRA:                  -0.103
REMARK UNBOUND:                -0.190
REMARK  Name = 7749
REMARK  5 active torsions:
REMARK  status: ('A' for Active; 'I' for Inactive)
REMARK    1  A    between atoms: O_1  and  C_4
REMARK    2  A    between atoms: O_1  and  C_5
REMARK    3  A    between atoms: C_3  and  C_5
REMARK    4  A    between atoms: C_3  and  C_6
REMARK    5  A    between atoms: C_4  and  C_7
REMARK                            x       y       z     vdW  Elec       q    Type
REMARK                         _______ _______ _______ _____ _____    ______ ____
ROOT
ATOM      1  O   UNL     1       9.931  19.216 -12.055  0.00  0.00    +0.000 OA
ATOM      2  C   UNL     1      10.999  18.942 -11.525  0.00  0.00    +0.000 C 
ENDROOT
BRANCH   2   3
ATOM      3  C   UNL     1      11.466  19.465 -10.187  0.00  0.00    +0.000 C 
ATOM      4  H   UNL     1      11.275  18.698  -9.428  0.00  0.00    +0.000 HD
ATOM      5  H   UNL     1      12.543  19.652 -10.244  0.00  0.00    +0.000 HD
BRANCH   3   6
ATOM      6  C   UNL     1      10.754  20.747  -9.793  0.00  0.00    +0.000 C 
ATOM      7  H   UNL     1       9.700  20.718 -10.087  0.00  0.00    +0.000 HD
ATOM      8  H   UNL     1      10.804  20.896  -8.711  0.00  0.00    +0.000 HD
ATOM      9  H   UNL     1      11.212  21.616 -10.280  0.00  0.00    +0.000 HD
ENDBRANCH   3   6
ENDBRANCH   2   3
BRANCH   2  10
ATOM     10  O   UNL     1      11.961  18.118 -12.038  0.00  0.00    +0.000 OA
BRANCH  10  11
ATOM     11  C   UNL     1      12.844  17.530 -11.079  0.00  0.00    +0.000 C 
ATOM     12  H   UNL     1      13.784  18.091 -11.055  0.00  0.00    +0.000 HD
ATOM     13  H   UNL     1      12.378  17.559 -10.088  0.00  0.00    +0.000 HD
BRANCH  11  14
ATOM     14  C   UNL     1      13.116  16.094 -11.475  0.00  0.00    +0.000 C 
ATOM     15  H   UNL     1      14.191  15.901 -11.528  0.00  0.00    +0.000 HD
ATOM     16  H   UNL     1      12.669  15.404 -10.752  0.00  0.00    +0.000 HD
ATOM     17  H   UNL     1      12.667  15.871 -12.448  0.00  0.00    +0.000 HD
ENDBRANCH  11  14
ENDBRANCH  10  11
ENDBRANCH   2  10
TORSDOF 5
ENDMDL
MODEL 7
REMARK VINA RESULT:    -2.967     25.166     25.807
REMARK INTER + INTRA:          -3.851
REMARK INTER:                  -3.735
REMARK INTRA:                  -0.116
REMARK UNBOUND:                -0.190
REMARK  Name = 7749
REMARK  5 active torsions:
REMARK  status: ('A' for Active; 'I' for Inactive)
REMARK    1  A    between atoms: O_1  and  C_4
REMARK    2  A    between atoms: O_1  and  C_5
REMARK    3  A    between atoms: C_3  and  C_5
REMARK    4  A    between atoms: C_3  and  C_6
REMARK    5  A    between atoms: C_4  and  C_7
REMARK                            x       y       z     vdW  Elec       q    Type
REMARK                         _______ _______ _______ _____ _____    ______ ____
ROOT
ATOM      1  O   UNL     1       0.031   3.281 -19.358  0.00  0.00    +0.000 OA
ATOM      2  C   UNL     1       0.606   2.849 -20.348  0.00  0.00    +0.000 C 
ENDROOT
BRANCH   2   3
ATOM      3  C   UNL     1       1.996   3.243 -20.788  0.00  0.00    +0.000 C 
ATOM      4  H   UNL     1       2.022   3.260 -21.883  0.00  0.00    +0.000 HD
ATOM      5  H   UNL     1       2.209   4.247 -20.409  0.00  0.00    +0.000 HD
BRANCH   3   6
ATOM      6  C   UNL     1       3.053   2.279 -20.276  0.00  0.00    +0.000 C 
ATOM      7  H   UNL     1       4.059   2.628 -20.530  0.00  0.00    +0.000 HD
ATOM      8  H   UNL     1       2.988   2.184 -19.188  0.00  0.00    +0.000 HD
ATOM      9  H   UNL     1       2.924   1.284 -20.716  0.00  0.00    +0.000 HD
ENDBRANCH   3   6
ENDBRANCH   2   3
BRANCH   2  10
ATOM     10  O   UNL     1       0.103   1.938 -21.233  0.00  0.00    +0.000 OA
BRANCH  10  11
ATOM     11  C   UNL     1      -1.159   2.277 -21.817  0.00  0.00    +0.000 C 
ATOM     12  H   UNL     1      -1.738   1.363 -21.992  0.00  0.00    +0.000 HD
ATOM     13  H   UNL     1      -1.711   2.933 -21.135  0.00  0.00    +0.000 HD
BRANCH  11  14
ATOM     14  C   UNL     1      -0.919   2.990 -23.131  0.00  0.00    +0.000 C 
ATOM     15  H   UNL     1      -0.542   4.003 -22.963  0.00  0.00    +0.000 HD
ATOM     16  H   UNL     1      -0.194   2.440 -23.740  0.00  0.00    +0.000 HD
ATOM     17  H   UNL     1      -1.845   3.048 -23.713  0.00  0.00    +0.000 HD
ENDBRANCH  11  14
ENDBRANCH  10  11
ENDBRANCH   2  10
TORSDOF 5
ENDMDL
MODEL 8
REMARK VINA RESULT:    -2.905     11.100     12.068
REMARK INTER + INTRA:          -3.774
REMARK INTER:                  -3.661
REMARK INTRA:                  -0.112
REMARK UNBOUND:                -0.190
REMARK  Name = 7749
REMARK  5 active torsions:
REMARK  status: ('A' for Active; 'I' for Inactive)
REMARK    1  A    between atoms: O_1  and  C_4
REMARK    2  A    between atoms: O_1  and  C_5
REMARK    3  A    between atoms: C_3  and  C_5
REMARK    4  A    between atoms: C_3  and  C_6
REMARK    5  A    between atoms: C_4  and  C_7
REMARK                            x       y       z     vdW  Elec       q    Type
REMARK                         _______ _______ _______ _____ _____    ______ ____
ROOT
ATOM      1  O   UNL     1      13.673   6.131  -0.871  0.00  0.00    +0.000 OA
ATOM      2  C   UNL     1      14.647   5.704  -1.475  0.00  0.00    +0.000 C 
ENDROOT
BRANCH   2   3
ATOM      3  C   UNL     1      15.756   4.878  -0.867  0.00  0.00    +0.000 C 
ATOM      4  H   UNL     1      16.497   4.665  -1.645  0.00  0.00    +0.000 HD
ATOM      5  H   UNL     1      16.228   5.463  -0.072  0.00  0.00    +0.000 HD
BRANCH   3   6
ATOM      6  C   UNL     1      15.244   3.569  -0.290  0.00  0.00    +0.000 C 
ATOM      7  H   UNL     1      15.206   3.609   0.803  0.00  0.00    +0.000 HD
ATOM      8  H   UNL     1      14.236   3.357  -0.660  0.00  0.00    +0.000 HD
ATOM      9  H   UNL     1      15.895   2.734  -0.572  0.00  0.00    +0.000 HD
ENDBRANCH   3   6
ENDBRANCH   2   3
BRANCH   2  10
ATOM     10  O   UNL     1      14.913   5.893  -2.802  0.00  0.00    +0.000 OA
BRANCH  10  11
ATOM     11  C   UNL     1      14.788   7.239  -3.270  0.00  0.00    +0.000 C 
ATOM     12  H   UNL     1      14.671   7.237  -4.360  0.00  0.00    +0.000 HD
ATOM     13  H   UNL     1      13.909   7.704  -2.811  0.00  0.00    +0.000 HD
BRANCH  11  14
ATOM     14  C   UNL     1      16.033   8.011  -2.891  0.00  0.00    +0.000 C 
ATOM     15  H   UNL     1      16.851   7.799  -3.586  0.00  0.00    +0.000 HD
ATOM     16  H   UNL     1      15.835   9.088  -2.897  0.00  0.00    +0.000 HD
ATOM     17  H   UNL     1      16.354   7.751  -1.877  0.00  0.00    +0.000 HD
ENDBRANCH  11  14
ENDBRANCH  10  11
ENDBRANCH   2  10
TORSDOF 5
ENDMDL
MODEL 9
REMARK VINA RESULT:    -2.900      1.877      2.297
REMARK INTER + INTRA:          -3.767
REMARK INTER:                  -3.644
REMARK INTRA:                  -0.123
REMARK UNBOUND:                -0.190
REMARK  Name = 7749
REMARK  5 active torsions:
REMARK  status: ('A' for Active; 'I' for Inactive)
REMARK    1  A    between atoms: O_1  and  C_4
REMARK    2  A    between atoms: O_1  and  C_5
REMARK    3  A    between atoms: C_3  and  C_5
REMARK    4  A    between atoms: C_3  and  C_6
REMARK    5  A    between atoms: C_4  and  C_7
REMARK                            x       y       z     vdW  Elec       q    Type
REMARK                         _______ _______ _______ _____ _____    ______ ____
ROOT
ATOM      1  O   UNL     1      19.290  -6.603  -2.793  0.00  0.00    +0.000 OA
ATOM      2  C   UNL     1      18.182  -6.085  -2.761  0.00  0.00    +0.000 C 
ENDROOT
BRANCH   2   3
ATOM      3  C   UNL     1      17.243  -5.965  -3.938  0.00  0.00    +0.000 C 
ATOM      4  H   UNL     1      16.256  -6.330  -3.633  0.00  0.00    +0.000 HD
ATOM      5  H   UNL     1      17.166  -4.909  -4.213  0.00  0.00    +0.000 HD
BRANCH   3   6
ATOM      6  C   UNL     1      17.724  -6.762  -5.138  0.00  0.00    +0.000 C 
ATOM      7  H   UNL     1      18.662  -6.356  -5.530  0.00  0.00    +0.000 HD
ATOM      8  H   UNL     1      17.894  -7.806  -4.859  0.00  0.00    +0.000 HD
ATOM      9  H   UNL     1      16.986  -6.740  -5.947  0.00  0.00    +0.000 HD
ENDBRANCH   3   6
ENDBRANCH   2   3
BRANCH   2  10
ATOM     10  O   UNL     1      17.591  -5.524  -1.664  0.00  0.00    +0.000 OA
BRANCH  10  11
ATOM     11  C   UNL     1      17.265  -4.136  -1.783  0.00  0.00    +0.000 C 
ATOM     12  H   UNL     1      17.070  -3.895  -2.834  0.00  0.00    +0.000 HD
ATOM     13  H   UNL     1      16.371  -3.919  -1.188  0.00  0.00    +0.000 HD
BRANCH  11  14
ATOM     14  C   UNL     1      18.429  -3.311  -1.277  0.00  0.00    +0.000 C 
ATOM     15  H   UNL     1      18.860  -2.708  -2.081  0.00  0.00    +0.000 HD
ATOM     16  H   UNL     1      18.107  -2.645  -0.470  0.00  0.00    +0.000 HD
ATOM     17  H   UNL     1      19.209  -3.958  -0.863  0.00  0.00    +0.000 HD
ENDBRANCH  11  14
ENDBRANCH  10  11
ENDBRANCH   2  10
TORSDOF 5
ENDMDL
MODEL 10
REMARK VINA RESULT:    -2.857     24.648     25.161
REMARK INTER + INTRA:          -3.714
REMARK INTER:                  -3.525
REMARK INTRA:                  -0.190
REMARK UNBOUND:                -0.190
REMARK  Name = 7749
REMARK  5 active torsions:
REMARK  status: ('A' for Active; 'I' for Inactive)
REMARK    1  A    between atoms: O_1  and  C_4
REMARK    2  A    between atoms: O_1  and  C_5
REMARK    3  A    between atoms: C_3  and  C_5
REMARK    4  A    between atoms: C_3  and  C_6
REMARK    5  A    between atoms: C_4  and  C_7
REMARK                            x       y       z     vdW  Elec       q    Type
REMARK                         _______ _______ _______ _____ _____    ______ ____
ROOT
ATOM      1  O   UNL     1      14.762  18.941 -10.788  0.00  0.00    +0.000 OA
ATOM      2  C   UNL     1      13.973  18.028 -10.988  0.00  0.00    +0.000 C 
ENDROOT
BRANCH   2   3
ATOM      3  C   UNL     1      14.237  16.823 -11.861  0.00  0.00    +0.000 C 
ATOM      4  H   UNL     1      14.593  17.173 -12.835  0.00  0.00    +0.000 HD
ATOM      5  H   UNL     1      15.018  16.218 -11.389  0.00  0.00    +0.000 HD
BRANCH   3   6
ATOM      6  C   UNL     1      12.993  15.974 -12.056  0.00  0.00    +0.000 C 
ATOM      7  H   UNL     1      12.225  16.225 -11.316  0.00  0.00    +0.000 HD
ATOM      8  H   UNL     1      12.573  16.136 -13.053  0.00  0.00    +0.000 HD
ATOM      9  H   UNL     1      13.223  14.909 -11.949  0.00  0.00    +0.000 HD
ENDBRANCH   3   6
ENDBRANCH   2   3
BRANCH   2  10
ATOM     10  O   UNL     1      12.716  17.926 -10.463  0.00  0.00    +0.000 OA
BRANCH  10  11
ATOM     11  C   UNL     1      11.956  19.138 -10.443  0.00  0.00    +0.000 C 
ATOM     12  H   UNL     1      11.415  19.215  -9.493  0.00  0.00    +0.000 HD
ATOM     13  H   UNL     1      12.631  19.994 -10.547  0.00  0.00    +0.000 HD
BRANCH  11  14
ATOM     14  C   UNL     1      10.970  19.121 -11.592  0.00  0.00    +0.000 C 
ATOM     15  H   UNL     1      11.304  18.444 -12.384  0.00  0.00    +0.000 HD
ATOM     16  H   UNL     1       9.982  18.800 -11.247  0.00  0.00    +0.000 HD
ATOM     17  H   UNL     1      10.849  20.125 -12.012  0.00  0.00    +0.000 HD
ENDBRANCH  11  14
ENDBRANCH  10  11
ENDBRANCH   2  10
TORSDOF 5
ENDMDL
