MODEL 1
REMARK VINA RESULT:    -4.310      0.000      0.000
REMARK INTER + INTRA:          -5.717
REMARK INTER:                  -5.657
REMARK INTRA:                  -0.060
REMARK UNBOUND:                -0.147
REMARK  Name = 7762
REMARK  6 active torsions:
REMARK  status: ('A' for Active; 'I' for Inactive)
REMARK    1  A    between atoms: O_1  and  C_6
REMARK    2  A    between atoms: O_1  and  C_7
REMARK    3  A    between atoms: C_3  and  C_4
REMARK    4  A    between atoms: C_3  and  C_5
REMARK    5  A    between atoms: C_4  and  C_6
REMARK    6  A    between atoms: C_7  and  C_8
REMARK                            x       y       z     vdW  Elec       q    Type
REMARK                         _______ _______ _______ _____ _____    ______ ____
ROOT
ATOM      1  C   UNL     1       5.189  -4.864 -11.183  0.00  0.00    +0.000 C 
ATOM      2  H   UNL     1       5.802  -5.255 -12.004  0.00  0.00    +0.000 HD
ATOM      3  H   UNL     1       5.652  -3.948 -10.798  0.00  0.00    +0.000 HD
ENDROOT
BRANCH   1   4
ATOM      4  C   UNL     1       5.102  -5.902 -10.066  0.00  0.00    +0.000 C 
ATOM      5  H   UNL     1       4.292  -5.639  -9.376  0.00  0.00    +0.000 HD
ATOM      6  H   UNL     1       4.851  -6.884 -10.487  0.00  0.00    +0.000 HD
BRANCH   4   7
ATOM      7  C   UNL     1       6.407  -6.007  -9.297  0.00  0.00    +0.000 C 
ATOM      8  H   UNL     1       6.542  -7.024  -8.915  0.00  0.00    +0.000 HD
ATOM      9  H   UNL     1       7.262  -5.769  -9.939  0.00  0.00    +0.000 HD
ATOM     10  H   UNL     1       6.416  -5.320  -8.445  0.00  0.00    +0.000 HD
ENDBRANCH   4   7
ENDBRANCH   1   4
BRANCH   1  12
ATOM     11  O   UNL     1       2.938  -3.948 -11.118  0.00  0.00    +0.000 OA
ATOM     12  C   UNL     1       3.829  -4.512 -11.739  0.00  0.00    +0.000 C 
BRANCH  12  13
ATOM     13  O   UNL     1       3.763  -4.924 -13.040  0.00  0.00    +0.000 OA
BRANCH  13  14
ATOM     14  C   UNL     1       2.471  -4.832 -13.650  0.00  0.00    +0.000 C 
ATOM     15  H   UNL     1       1.702  -5.117 -12.923  0.00  0.00    +0.000 HD
ATOM     16  H   UNL     1       2.296  -3.802 -13.980  0.00  0.00    +0.000 HD
BRANCH  14  17
ATOM     17  C   UNL     1       2.421  -5.767 -14.840  0.00  0.00    +0.000 C 
ATOM     18  H   UNL     1       2.563  -6.804 -14.528  0.00  0.00    +0.000 HD
ATOM     19  H   UNL     1       1.459  -5.680 -15.357  0.00  0.00    +0.000 HD
ATOM     20  H   UNL     1       3.197  -5.505 -15.567  0.00  0.00    +0.000 HD
ENDBRANCH  14  17
ENDBRANCH  13  14
ENDBRANCH  12  13
ENDBRANCH   1  12
TORSDOF 6
ENDMDL
MODEL 2
REMARK VINA RESULT:    -4.071      0.927      4.249
REMARK INTER + INTRA:          -5.408
REMARK INTER:                  -5.344
REMARK INTRA:                  -0.064
REMARK UNBOUND:                -0.147
REMARK  Name = 7762
REMARK  6 active torsions:
REMARK  status: ('A' for Active; 'I' for Inactive)
REMARK    1  A    between atoms: O_1  and  C_6
REMARK    2  A    between atoms: O_1  and  C_7
REMARK    3  A    between atoms: C_3  and  C_4
REMARK    4  A    between atoms: C_3  and  C_5
REMARK    5  A    between atoms: C_4  and  C_6
REMARK    6  A    between atoms: C_7  and  C_8
REMARK                            x       y       z     vdW  Elec       q    Type
REMARK                         _______ _______ _______ _____ _____    ______ ____
ROOT
ATOM      1  C   UNL     1       3.753  -4.709 -13.226  0.00  0.00    +0.000 C 
ATOM      2  H   UNL     1       4.268  -3.898 -13.755  0.00  0.00    +0.000 HD
ATOM      3  H   UNL     1       4.284  -5.650 -13.410  0.00  0.00    +0.000 HD
ENDROOT
BRANCH   1   4
ATOM      4  C   UNL     1       2.316  -4.823 -13.731  0.00  0.00    +0.000 C 
ATOM      5  H   UNL     1       1.660  -5.150 -12.916  0.00  0.00    +0.000 HD
ATOM      6  H   UNL     1       1.954  -3.840 -14.054  0.00  0.00    +0.000 HD
BRANCH   4   7
ATOM      7  C   UNL     1       2.208  -5.800 -14.889  0.00  0.00    +0.000 C 
ATOM      8  H   UNL     1       2.974  -5.584 -15.640  0.00  0.00    +0.000 HD
ATOM      9  H   UNL     1       2.347  -6.831 -14.548  0.00  0.00    +0.000 HD
ATOM     10  H   UNL     1       1.227  -5.728 -15.372  0.00  0.00    +0.000 HD
ENDBRANCH   4   7
ENDBRANCH   1   4
BRANCH   1  12
ATOM     11  O   UNL     1       2.919  -3.886 -11.095  0.00  0.00    +0.000 OA
ATOM     12  C   UNL     1       3.812  -4.413 -11.745  0.00  0.00    +0.000 C 
BRANCH  12  13
ATOM     13  O   UNL     1       5.018  -4.831 -11.258  0.00  0.00    +0.000 OA
BRANCH  13  14
ATOM     14  C   UNL     1       4.957  -5.856 -10.260  0.00  0.00    +0.000 C 
ATOM     15  H   UNL     1       4.126  -5.652  -9.577  0.00  0.00    +0.000 HD
ATOM     16  H   UNL     1       4.800  -6.827 -10.744  0.00  0.00    +0.000 HD
BRANCH  14  17
ATOM     17  C   UNL     1       6.261  -5.872  -9.491  0.00  0.00    +0.000 C 
ATOM     18  H   UNL     1       6.106  -5.563  -8.454  0.00  0.00    +0.000 HD
ATOM     19  H   UNL     1       6.700  -6.875  -9.499  0.00  0.00    +0.000 HD
ATOM     20  H   UNL     1       6.991  -5.202  -9.956  0.00  0.00    +0.000 HD
ENDBRANCH  14  17
ENDBRANCH  13  14
ENDBRANCH  12  13
ENDBRANCH   1  12
TORSDOF 6
ENDMDL
MODEL 3
REMARK VINA RESULT:    -3.984     15.565     15.993
REMARK INTER + INTRA:          -5.296
REMARK INTER:                  -5.080
REMARK INTRA:                  -0.216
REMARK UNBOUND:                -0.147
REMARK  Name = 7762
REMARK  6 active torsions:
REMARK  status: ('A' for Active; 'I' for Inactive)
REMARK    1  A    between atoms: O_1  and  C_6
REMARK    2  A    between atoms: O_1  and  C_7
REMARK    3  A    between atoms: C_3  and  C_4
REMARK    4  A    between atoms: C_3  and  C_5
REMARK    5  A    between atoms: C_4  and  C_6
REMARK    6  A    between atoms: C_7  and  C_8
REMARK                            x       y       z     vdW  Elec       q    Type
REMARK                         _______ _______ _______ _____ _____    ______ ____
ROOT
ATOM      1  C   UNL     1      15.878  -4.779  -2.083  0.00  0.00    +0.000 C 
ATOM      2  H   UNL     1      15.870  -4.314  -1.090  0.00  0.00    +0.000 HD
ATOM      3  H   UNL     1      15.202  -4.223  -2.743  0.00  0.00    +0.000 HD
ENDROOT
BRANCH   1   4
ATOM      4  C   UNL     1      15.412  -6.229  -1.977  0.00  0.00    +0.000 C 
ATOM      5  H   UNL     1      14.420  -6.336  -2.430  0.00  0.00    +0.000 HD
ATOM      6  H   UNL     1      16.089  -6.882  -2.542  0.00  0.00    +0.000 HD
BRANCH   4   7
ATOM      7  C   UNL     1      15.360  -6.695  -0.532  0.00  0.00    +0.000 C 
ATOM      8  H   UNL     1      15.462  -7.784  -0.481  0.00  0.00    +0.000 HD
ATOM      9  H   UNL     1      16.171  -6.250   0.053  0.00  0.00    +0.000 HD
ATOM     10  H   UNL     1      14.409  -6.420  -0.066  0.00  0.00    +0.000 HD
ENDBRANCH   4   7
ENDBRANCH   1   4
BRANCH   1  12
ATOM     11  O   UNL     1      17.929  -3.639  -2.722  0.00  0.00    +0.000 OA
ATOM     12  C   UNL     1      17.279  -4.673  -2.640  0.00  0.00    +0.000 C 
BRANCH  12  13
ATOM     13  O   UNL     1      17.695  -5.915  -3.030  0.00  0.00    +0.000 OA
BRANCH  13  14
ATOM     14  C   UNL     1      18.396  -5.965  -4.277  0.00  0.00    +0.000 C 
ATOM     15  H   UNL     1      18.531  -4.949  -4.662  0.00  0.00    +0.000 HD
ATOM     16  H   UNL     1      19.377  -6.430  -4.126  0.00  0.00    +0.000 HD
BRANCH  14  17
ATOM     17  C   UNL     1      17.589  -6.784  -5.262  0.00  0.00    +0.000 C 
ATOM     18  H   UNL     1      16.864  -6.158  -5.788  0.00  0.00    +0.000 HD
ATOM     19  H   UNL     1      18.246  -7.258  -5.998  0.00  0.00    +0.000 HD
ATOM     20  H   UNL     1      17.055  -7.589  -4.747  0.00  0.00    +0.000 HD
ENDBRANCH  14  17
ENDBRANCH  13  14
ENDBRANCH  12  13
ENDBRANCH   1  12
TORSDOF 6
ENDMDL
MODEL 4
REMARK VINA RESULT:    -3.727     15.515     16.214
REMARK INTER + INTRA:          -4.963
REMARK INTER:                  -4.831
REMARK INTRA:                  -0.132
REMARK UNBOUND:                -0.147
REMARK  Name = 7762
REMARK  6 active torsions:
REMARK  status: ('A' for Active; 'I' for Inactive)
REMARK    1  A    between atoms: O_1  and  C_6
REMARK    2  A    between atoms: O_1  and  C_7
REMARK    3  A    between atoms: C_3  and  C_4
REMARK    4  A    between atoms: C_3  and  C_5
REMARK    5  A    between atoms: C_4  and  C_6
REMARK    6  A    between atoms: C_7  and  C_8
REMARK                            x       y       z     vdW  Elec       q    Type
REMARK                         _______ _______ _______ _____ _____    ______ ____
ROOT
ATOM      1  C   UNL     1      16.765  -5.917  -3.247  0.00  0.00    +0.000 C 
ATOM      2  H   UNL     1      16.715  -6.827  -2.637  0.00  0.00    +0.000 HD
ATOM      3  H   UNL     1      15.829  -5.812  -3.808  0.00  0.00    +0.000 HD
ENDROOT
BRANCH   1   4
ATOM      4  C   UNL     1      17.939  -6.013  -4.219  0.00  0.00    +0.000 C 
ATOM      5  H   UNL     1      18.239  -5.010  -4.541  0.00  0.00    +0.000 HD
ATOM      6  H   UNL     1      18.806  -6.456  -3.715  0.00  0.00    +0.000 HD
BRANCH   4   7
ATOM      7  C   UNL     1      17.588  -6.850  -5.437  0.00  0.00    +0.000 C 
ATOM      8  H   UNL     1      18.377  -7.582  -5.635  0.00  0.00    +0.000 HD
ATOM      9  H   UNL     1      16.651  -7.396  -5.283  0.00  0.00    +0.000 HD
ATOM     10  H   UNL     1      17.476  -6.221  -6.326  0.00  0.00    +0.000 HD
ENDBRANCH   4   7
ENDBRANCH   1   4
BRANCH   1  12
ATOM     11  O   UNL     1      17.618  -3.765  -2.503  0.00  0.00    +0.000 OA
ATOM     12  C   UNL     1      16.896  -4.734  -2.315  0.00  0.00    +0.000 C 
BRANCH  12  13
ATOM     13  O   UNL     1      16.076  -4.927  -1.239  0.00  0.00    +0.000 OA
BRANCH  13  14
ATOM     14  C   UNL     1      15.438  -6.207  -1.172  0.00  0.00    +0.000 C 
ATOM     15  H   UNL     1      14.396  -6.113  -1.494  0.00  0.00    +0.000 HD
ATOM     16  H   UNL     1      15.961  -6.909  -1.831  0.00  0.00    +0.000 HD
BRANCH  14  17
ATOM     17  C   UNL     1      15.490  -6.709   0.255  0.00  0.00    +0.000 C 
ATOM     18  H   UNL     1      15.788  -7.760   0.289  0.00  0.00    +0.000 HD
ATOM     19  H   UNL     1      16.201  -6.120   0.845  0.00  0.00    +0.000 HD
ATOM     20  H   UNL     1      14.513  -6.602   0.737  0.00  0.00    +0.000 HD
ENDBRANCH  14  17
ENDBRANCH  13  14
ENDBRANCH  12  13
ENDBRANCH   1  12
TORSDOF 6
ENDMDL
MODEL 5
REMARK VINA RESULT:    -3.435     15.338     16.645
REMARK INTER + INTRA:          -4.587
REMARK INTER:                  -4.369
REMARK INTRA:                  -0.218
REMARK UNBOUND:                -0.147
REMARK  Name = 7762
REMARK  6 active torsions:
REMARK  status: ('A' for Active; 'I' for Inactive)
REMARK    1  A    between atoms: O_1  and  C_6
REMARK    2  A    between atoms: O_1  and  C_7
REMARK    3  A    between atoms: C_3  and  C_4
REMARK    4  A    between atoms: C_3  and  C_5
REMARK    5  A    between atoms: C_4  and  C_6
REMARK    6  A    between atoms: C_7  and  C_8
REMARK                            x       y       z     vdW  Elec       q    Type
REMARK                         _______ _______ _______ _____ _____    ______ ____
ROOT
ATOM      1  C   UNL     1      15.699  -4.949  -2.384  0.00  0.00    +0.000 C 
ATOM      2  H   UNL     1      15.768  -4.348  -1.470  0.00  0.00    +0.000 HD
ATOM      3  H   UNL     1      14.931  -4.518  -3.037  0.00  0.00    +0.000 HD
ENDROOT
BRANCH   1   4
ATOM      4  C   UNL     1      15.323  -6.386  -2.029  0.00  0.00    +0.000 C 
ATOM      5  H   UNL     1      14.284  -6.582  -2.318  0.00  0.00    +0.000 HD
ATOM      6  H   UNL     1      15.947  -7.087  -2.596  0.00  0.00    +0.000 HD
BRANCH   4   7
ATOM      7  C   UNL     1      15.493  -6.657  -0.543  0.00  0.00    +0.000 C 
ATOM      8  H   UNL     1      14.704  -7.326  -0.187  0.00  0.00    +0.000 HD
ATOM      9  H   UNL     1      16.459  -7.131  -0.339  0.00  0.00    +0.000 HD
ATOM     10  H   UNL     1      15.437  -5.728   0.033  0.00  0.00    +0.000 HD
ENDBRANCH   4   7
ENDBRANCH   1   4
BRANCH   1  12
ATOM     11  O   UNL     1      17.396  -5.625  -3.988  0.00  0.00    +0.000 OA
ATOM     12  C   UNL     1      17.028  -4.870  -3.098  0.00  0.00    +0.000 C 
BRANCH  12  13
ATOM     13  O   UNL     1      17.742  -3.822  -2.589  0.00  0.00    +0.000 OA
BRANCH  13  14
ATOM     14  C   UNL     1      18.747  -4.170  -1.630  0.00  0.00    +0.000 C 
ATOM     15  H   UNL     1      18.760  -5.257  -1.493  0.00  0.00    +0.000 HD
ATOM     16  H   UNL     1      19.726  -3.837  -1.991  0.00  0.00    +0.000 HD
BRANCH  14  17
ATOM     17  C   UNL     1      18.428  -3.491  -0.315  0.00  0.00    +0.000 C 
ATOM     18  H   UNL     1      17.755  -4.105   0.288  0.00  0.00    +0.000 HD
ATOM     19  H   UNL     1      19.344  -3.306   0.254  0.00  0.00    +0.000 HD
ATOM     20  H   UNL     1      17.959  -2.516  -0.489  0.00  0.00    +0.000 HD
ENDBRANCH  14  17
ENDBRANCH  13  14
ENDBRANCH  12  13
ENDBRANCH   1  12
TORSDOF 6
ENDMDL
MODEL 6
REMARK VINA RESULT:    -3.356     25.731     26.215
REMARK INTER + INTRA:          -4.484
REMARK INTER:                  -4.358
REMARK INTRA:                  -0.126
REMARK UNBOUND:                -0.147
REMARK  Name = 7762
REMARK  6 active torsions:
REMARK  status: ('A' for Active; 'I' for Inactive)
REMARK    1  A    between atoms: O_1  and  C_6
REMARK    2  A    between atoms: O_1  and  C_7
REMARK    3  A    between atoms: C_3  and  C_4
REMARK    4  A    between atoms: C_3  and  C_5
REMARK    5  A    between atoms: C_4  and  C_6
REMARK    6  A    between atoms: C_7  and  C_8
REMARK                            x       y       z     vdW  Elec       q    Type
REMARK                         _______ _______ _______ _____ _____    ______ ____
ROOT
ATOM      1  C   UNL     1     -16.029 -15.443   3.552  0.00  0.00    +0.000 C 
ATOM      2  H   UNL     1     -16.336 -14.400   3.693  0.00  0.00    +0.000 HD
ATOM      3  H   UNL     1     -16.652 -16.087   4.183  0.00  0.00    +0.000 HD
ENDROOT
BRANCH   1   4
ATOM      4  C   UNL     1     -14.562 -15.607   3.943  0.00  0.00    +0.000 C 
ATOM      5  H   UNL     1     -14.385 -16.625   4.307  0.00  0.00    +0.000 HD
ATOM      6  H   UNL     1     -13.923 -15.471   3.062  0.00  0.00    +0.000 HD
BRANCH   4   7
ATOM      7  C   UNL     1     -14.154 -14.609   5.013  0.00  0.00    +0.000 C 
ATOM      8  H   UNL     1     -14.076 -13.605   4.586  0.00  0.00    +0.000 HD
ATOM      9  H   UNL     1     -14.892 -14.577   5.822  0.00  0.00    +0.000 HD
ATOM     10  H   UNL     1     -13.183 -14.872   5.445  0.00  0.00    +0.000 HD
ENDBRANCH   4   7
ENDBRANCH   1   4
BRANCH   1  12
ATOM     11  O   UNL     1     -17.344 -16.195   1.650  0.00  0.00    +0.000 OA
ATOM     12  C   UNL     1     -16.276 -15.813   2.107  0.00  0.00    +0.000 C 
BRANCH  12  13
ATOM     13  O   UNL     1     -15.116 -15.646   1.404  0.00  0.00    +0.000 OA
BRANCH  13  14
ATOM     14  C   UNL     1     -14.846 -16.647   0.416  0.00  0.00    +0.000 C 
ATOM     15  H   UNL     1     -14.525 -17.570   0.910  0.00  0.00    +0.000 HD
ATOM     16  H   UNL     1     -15.756 -16.842  -0.163  0.00  0.00    +0.000 HD
BRANCH  14  17
ATOM     17  C   UNL     1     -13.752 -16.149  -0.503  0.00  0.00    +0.000 C 
ATOM     18  H   UNL     1     -13.329 -15.211  -0.134  0.00  0.00    +0.000 HD
ATOM     19  H   UNL     1     -12.950 -16.890  -0.585  0.00  0.00    +0.000 HD
ATOM     20  H   UNL     1     -14.141 -15.989  -1.514  0.00  0.00    +0.000 HD
ENDBRANCH  14  17
ENDBRANCH  13  14
ENDBRANCH  12  13
ENDBRANCH   1  12
TORSDOF 6
ENDMDL
MODEL 7
REMARK VINA RESULT:    -3.312     40.296     41.845
REMARK INTER + INTRA:          -4.427
REMARK INTER:                  -4.306
REMARK INTRA:                  -0.121
REMARK UNBOUND:                -0.147
REMARK  Name = 7762
REMARK  6 active torsions:
REMARK  status: ('A' for Active; 'I' for Inactive)
REMARK    1  A    between atoms: O_1  and  C_6
REMARK    2  A    between atoms: O_1  and  C_7
REMARK    3  A    between atoms: C_3  and  C_4
REMARK    4  A    between atoms: C_3  and  C_5
REMARK    5  A    between atoms: C_4  and  C_6
REMARK    6  A    between atoms: C_7  and  C_8
REMARK                            x       y       z     vdW  Elec       q    Type
REMARK                         _______ _______ _______ _____ _____    ______ ____
ROOT
ATOM      1  C   UNL     1      -5.924   5.077  26.419  0.00  0.00    +0.000 C 
ATOM      2  H   UNL     1      -6.960   5.434  26.372  0.00  0.00    +0.000 HD
ATOM      3  H   UNL     1      -5.263   5.927  26.621  0.00  0.00    +0.000 HD
ENDROOT
BRANCH   1   4
ATOM      4  C   UNL     1      -5.540   4.432  25.089  0.00  0.00    +0.000 C 
ATOM      5  H   UNL     1      -5.632   3.343  25.162  0.00  0.00    +0.000 HD
ATOM      6  H   UNL     1      -6.232   4.756  24.303  0.00  0.00    +0.000 HD
BRANCH   4   7
ATOM      7  C   UNL     1      -4.121   4.792  24.684  0.00  0.00    +0.000 C 
ATOM      8  H   UNL     1      -3.723   4.044  23.991  0.00  0.00    +0.000 HD
ATOM      9  H   UNL     1      -4.090   5.767  24.185  0.00  0.00    +0.000 HD
ATOM     10  H   UNL     1      -3.462   4.832  25.557  0.00  0.00    +0.000 HD
ENDBRANCH   4   7
ENDBRANCH   1   4
BRANCH   1  12
ATOM     11  O   UNL     1      -4.929   3.274  27.712  0.00  0.00    +0.000 OA
ATOM     12  C   UNL     1      -5.815   4.106  27.573  0.00  0.00    +0.000 C 
BRANCH  12  13
ATOM     13  O   UNL     1      -6.861   4.315  28.427  0.00  0.00    +0.000 OA
BRANCH  13  14
ATOM     14  C   UNL     1      -6.503   4.737  29.747  0.00  0.00    +0.000 C 
ATOM     15  H   UNL     1      -7.128   4.215  30.480  0.00  0.00    +0.000 HD
ATOM     16  H   UNL     1      -5.449   4.500  29.932  0.00  0.00    +0.000 HD
BRANCH  14  17
ATOM     17  C   UNL     1      -6.719   6.231  29.861  0.00  0.00    +0.000 C 
ATOM     18  H   UNL     1      -5.772   6.770  29.776  0.00  0.00    +0.000 HD
ATOM     19  H   UNL     1      -7.398   6.583  29.078  0.00  0.00    +0.000 HD
ATOM     20  H   UNL     1      -7.184   6.481  30.821  0.00  0.00    +0.000 HD
ENDBRANCH  14  17
ENDBRANCH  13  14
ENDBRANCH  12  13
ENDBRANCH   1  12
TORSDOF 6
ENDMDL
MODEL 8
REMARK VINA RESULT:    -3.311     24.555     25.391
REMARK INTER + INTRA:          -4.426
REMARK INTER:                  -4.129
REMARK INTRA:                  -0.297
REMARK UNBOUND:                -0.147
REMARK  Name = 7762
REMARK  6 active torsions:
REMARK  status: ('A' for Active; 'I' for Inactive)
REMARK    1  A    between atoms: O_1  and  C_6
REMARK    2  A    between atoms: O_1  and  C_7
REMARK    3  A    between atoms: C_3  and  C_4
REMARK    4  A    between atoms: C_3  and  C_5
REMARK    5  A    between atoms: C_4  and  C_6
REMARK    6  A    between atoms: C_7  and  C_8
REMARK                            x       y       z     vdW  Elec       q    Type
REMARK                         _______ _______ _______ _____ _____    ______ ____
ROOT
ATOM      1  C   UNL     1      12.965  16.873 -11.208  0.00  0.00    +0.000 C 
ATOM      2  H   UNL     1      12.467  16.062 -11.751  0.00  0.00    +0.000 HD
ATOM      3  H   UNL     1      12.983  16.628 -10.139  0.00  0.00    +0.000 HD
ENDROOT
BRANCH   1   4
ATOM      4  C   UNL     1      12.205  18.180 -11.421  0.00  0.00    +0.000 C 
ATOM      5  H   UNL     1      12.699  18.776 -12.197  0.00  0.00    +0.000 HD
ATOM      6  H   UNL     1      11.191  17.968 -11.783  0.00  0.00    +0.000 HD
BRANCH   4   7
ATOM      7  C   UNL     1      12.118  18.991 -10.140  0.00  0.00    +0.000 C 
ATOM      8  H   UNL     1      11.121  18.896  -9.698  0.00  0.00    +0.000 HD
ATOM      9  H   UNL     1      12.850  18.643  -9.404  0.00  0.00    +0.000 HD
ATOM     10  H   UNL     1      12.304  20.052 -10.335  0.00  0.00    +0.000 HD
ENDBRANCH   4   7
ENDBRANCH   1   4
BRANCH   1  12
ATOM     11  O   UNL     1      14.748  16.814 -12.860  0.00  0.00    +0.000 OA
ATOM     12  C   UNL     1      14.392  16.959 -11.699  0.00  0.00    +0.000 C 
BRANCH  12  13
ATOM     13  O   UNL     1      15.209  17.228 -10.637  0.00  0.00    +0.000 OA
BRANCH  13  14
ATOM     14  C   UNL     1      16.375  18.003 -10.938  0.00  0.00    +0.000 C 
ATOM     15  H   UNL     1      17.171  17.757 -10.227  0.00  0.00    +0.000 HD
ATOM     16  H   UNL     1      16.712  17.773 -11.955  0.00  0.00    +0.000 HD
BRANCH  14  17
ATOM     17  C   UNL     1      16.029  19.473 -10.833  0.00  0.00    +0.000 C 
ATOM     18  H   UNL     1      15.020  19.664 -11.205  0.00  0.00    +0.000 HD
ATOM     19  H   UNL     1      16.094  19.810  -9.794  0.00  0.00    +0.000 HD
ATOM     20  H   UNL     1      16.739  20.077 -11.408  0.00  0.00    +0.000 HD
ENDBRANCH  14  17
ENDBRANCH  13  14
ENDBRANCH  12  13
ENDBRANCH   1  12
TORSDOF 6
ENDMDL
MODEL 9
REMARK VINA RESULT:    -3.306     18.339     19.358
REMARK INTER + INTRA:          -4.419
REMARK INTER:                  -4.272
REMARK INTRA:                  -0.147
REMARK UNBOUND:                -0.147
REMARK  Name = 7762
REMARK  6 active torsions:
REMARK  status: ('A' for Active; 'I' for Inactive)
REMARK    1  A    between atoms: O_1  and  C_6
REMARK    2  A    between atoms: O_1  and  C_7
REMARK    3  A    between atoms: C_3  and  C_4
REMARK    4  A    between atoms: C_3  and  C_5
REMARK    5  A    between atoms: C_4  and  C_6
REMARK    6  A    between atoms: C_7  and  C_8
REMARK                            x       y       z     vdW  Elec       q    Type
REMARK                         _______ _______ _______ _____ _____    ______ ____
ROOT
ATOM      1  C   UNL     1      15.788   7.861  -2.171  0.00  0.00    +0.000 C 
ATOM      2  H   UNL     1      15.140   8.458  -1.518  0.00  0.00    +0.000 HD
ATOM      3  H   UNL     1      16.369   7.163  -1.556  0.00  0.00    +0.000 HD
ENDROOT
BRANCH   1   4
ATOM      4  C   UNL     1      16.737   8.781  -2.936  0.00  0.00    +0.000 C 
ATOM      5  H   UNL     1      16.320   9.008  -3.924  0.00  0.00    +0.000 HD
ATOM      6  H   UNL     1      16.837   9.738  -2.409  0.00  0.00    +0.000 HD
BRANCH   4   7
ATOM      7  C   UNL     1      18.112   8.155  -3.099  0.00  0.00    +0.000 C 
ATOM      8  H   UNL     1      18.629   8.119  -2.135  0.00  0.00    +0.000 HD
ATOM      9  H   UNL     1      18.035   7.132  -3.482  0.00  0.00    +0.000 HD
ATOM     10  H   UNL     1      18.727   8.736  -3.794  0.00  0.00    +0.000 HD
ENDBRANCH   4   7
ENDBRANCH   1   4
BRANCH   1  12
ATOM     11  O   UNL     1      14.268   7.513  -4.036  0.00  0.00    +0.000 OA
ATOM     12  C   UNL     1      14.907   7.057  -3.098  0.00  0.00    +0.000 C 
BRANCH  12  13
ATOM     13  O   UNL     1      14.946   5.745  -2.717  0.00  0.00    +0.000 OA
BRANCH  13  14
ATOM     14  C   UNL     1      14.598   5.490  -1.352  0.00  0.00    +0.000 C 
ATOM     15  H   UNL     1      14.695   6.414  -0.772  0.00  0.00    +0.000 HD
ATOM     16  H   UNL     1      13.564   5.134  -1.300  0.00  0.00    +0.000 HD
BRANCH  14  17
ATOM     17  C   UNL     1      15.532   4.436  -0.795  0.00  0.00    +0.000 C 
ATOM     18  H   UNL     1      15.731   3.660  -1.538  0.00  0.00    +0.000 HD
ATOM     19  H   UNL     1      16.481   4.885  -0.489  0.00  0.00    +0.000 HD
ATOM     20  H   UNL     1      15.098   3.970   0.096  0.00  0.00    +0.000 HD
ENDBRANCH  14  17
ENDBRANCH  13  14
ENDBRANCH  12  13
ENDBRANCH   1  12
TORSDOF 6
ENDMDL
MODEL 10
REMARK VINA RESULT:    -3.265     11.658     12.957
REMARK INTER + INTRA:          -4.367
REMARK INTER:                  -4.063
REMARK INTRA:                  -0.304
REMARK UNBOUND:                -0.147
REMARK  Name = 7762
REMARK  6 active torsions:
REMARK  status: ('A' for Active; 'I' for Inactive)
REMARK    1  A    between atoms: O_1  and  C_6
REMARK    2  A    between atoms: O_1  and  C_7
REMARK    3  A    between atoms: C_3  and  C_4
REMARK    4  A    between atoms: C_3  and  C_5
REMARK    5  A    between atoms: C_4  and  C_6
REMARK    6  A    between atoms: C_7  and  C_8
REMARK                            x       y       z     vdW  Elec       q    Type
REMARK                         _______ _______ _______ _____ _____    ______ ____
ROOT
ATOM      1  C   UNL     1       0.414   4.830 -20.719  0.00  0.00    +0.000 C 
ATOM      2  H   UNL     1       1.244   4.824 -21.436  0.00  0.00    +0.000 HD
ATOM      3  H   UNL     1      -0.445   5.340 -21.172  0.00  0.00    +0.000 HD
ENDROOT
BRANCH   1   4
ATOM      4  C   UNL     1       0.835   5.564 -19.449  0.00  0.00    +0.000 C 
ATOM      5  H   UNL     1       0.114   6.356 -19.219  0.00  0.00    +0.000 HD
ATOM      6  H   UNL     1       0.827   4.873 -18.597  0.00  0.00    +0.000 HD
BRANCH   4   7
ATOM      7  C   UNL     1       2.222   6.169 -19.586  0.00  0.00    +0.000 C 
ATOM      8  H   UNL     1       2.984   5.444 -19.283  0.00  0.00    +0.000 HD
ATOM      9  H   UNL     1       2.423   6.459 -20.623  0.00  0.00    +0.000 HD
ATOM     10  H   UNL     1       2.327   7.057 -18.955  0.00  0.00    +0.000 HD
ENDBRANCH   4   7
ENDBRANCH   1   4
BRANCH   1  12
ATOM     11  O   UNL     1      -1.089   2.921 -20.626  0.00  0.00    +0.000 OA
ATOM     12  C   UNL     1       0.023   3.396 -20.443  0.00  0.00    +0.000 C 
BRANCH  12  13
ATOM     13  O   UNL     1       1.113   2.726 -19.963  0.00  0.00    +0.000 OA
BRANCH  13  14
ATOM     14  C   UNL     1       2.116   2.407 -20.934  0.00  0.00    +0.000 C 
ATOM     15  H   UNL     1       1.984   1.374 -21.271  0.00  0.00    +0.000 HD
ATOM     16  H   UNL     1       2.023   3.084 -21.790  0.00  0.00    +0.000 HD
BRANCH  14  17
ATOM     17  C   UNL     1       3.482   2.569 -20.301  0.00  0.00    +0.000 C 
ATOM     18  H   UNL     1       3.604   3.572 -19.886  0.00  0.00    +0.000 HD
ATOM     19  H   UNL     1       3.624   1.835 -19.501  0.00  0.00    +0.000 HD
ATOM     20  H   UNL     1       4.272   2.392 -21.039  0.00  0.00    +0.000 HD
ENDBRANCH  14  17
ENDBRANCH  13  14
ENDBRANCH  12  13
ENDBRANCH   1  12
TORSDOF 6
ENDMDL
