MODEL 1
REMARK VINA RESULT:    -4.988      0.000      0.000
REMARK INTER + INTRA:          -7.911
REMARK INTER:                  -7.303
REMARK INTRA:                  -0.608
REMARK UNBOUND:                -0.590
REMARK  Name = 1549026
REMARK  10 active torsions:
REMARK  status: ('A' for Active; 'I' for Inactive)
REMARK    1  A    between atoms: O_1  and  C_10
REMARK    2  A    between atoms: O_1  and  C_13
REMARK    3  A    between atoms: C_3  and  C_4
REMARK    4  A    between atoms: C_3  and  C_5
REMARK    5  A    between atoms: C_4  and  C_6
REMARK    6  A    between atoms: C_5  and  C_8
REMARK    7  A    between atoms: C_7  and  C_10
REMARK    8  A    between atoms: C_9  and  C_11
REMARK    9  A    between atoms: C_9  and  C_12
REMARK   10  A    between atoms: C_13  and  C_14
REMARK                            x       y       z     vdW  Elec       q    Type
REMARK                         _______ _______ _______ _____ _____    ______ ____
ROOT
ATOM      1  C   UNL     1      -7.464 -13.112   3.577  0.00  0.00    +0.000 C 
ATOM      2  H   UNL     1      -8.456 -13.578   3.536  0.00  0.00    +0.000 HD
ATOM      3  H   UNL     1      -7.618 -12.050   3.346  0.00  0.00    +0.000 HD
ENDROOT
BRANCH   1   4
ATOM      4  C   UNL     1      -6.909 -13.239   5.003  0.00  0.00    +0.000 C 
ATOM      5  H   UNL     1      -6.728 -12.245   5.418  0.00  0.00    +0.000 HD
ATOM      6  H   UNL     1      -5.923 -13.717   4.943  0.00  0.00    +0.000 HD
BRANCH   4   7
ATOM      7  C   UNL     1      -7.775 -14.093   5.887  0.00  0.00    +0.000 C 
ATOM      8  C   UNL     1      -7.555 -15.358   6.292  0.00  0.00    +0.000 C 
ATOM      9  H   UNL     1      -8.698 -13.610   6.207  0.00  0.00    +0.000 HD
BRANCH   8  10
ATOM     10  C   UNL     1      -8.553 -16.056   7.179  0.00  0.00    +0.000 C 
ATOM     11  H   UNL     1      -8.403 -15.759   8.223  0.00  0.00    +0.000 HD
ATOM     12  H   UNL     1      -9.588 -15.819   6.912  0.00  0.00    +0.000 HD
ATOM     13  H   UNL     1      -8.431 -17.141   7.105  0.00  0.00    +0.000 HD
ENDBRANCH   8  10
BRANCH   8  14
ATOM     14  C   UNL     1      -6.350 -16.185   5.947  0.00  0.00    +0.000 C 
ATOM     15  H   UNL     1      -6.521 -16.722   5.008  0.00  0.00    +0.000 HD
ATOM     16  H   UNL     1      -5.435 -15.604   5.819  0.00  0.00    +0.000 HD
ATOM     17  H   UNL     1      -6.165 -16.923   6.735  0.00  0.00    +0.000 HD
ENDBRANCH   8  14
ENDBRANCH   4   7
ENDBRANCH   1   4
BRANCH   1  18
ATOM     18  C   UNL     1      -6.582 -13.745   2.522  0.00  0.00    +0.000 C 
ATOM     19  C   UNL     1      -5.379 -14.303   2.757  0.00  0.00    +0.000 C 
ATOM     20  H   UNL     1      -5.030 -14.329   3.789  0.00  0.00    +0.000 HD
BRANCH  18  21
ATOM     21  C   UNL     1      -7.124 -13.690   1.116  0.00  0.00    +0.000 C 
ATOM     22  H   UNL     1      -7.786 -14.546   0.941  0.00  0.00    +0.000 HD
ATOM     23  H   UNL     1      -6.311 -13.736   0.387  0.00  0.00    +0.000 HD
ATOM     24  H   UNL     1      -7.695 -12.792   0.877  0.00  0.00    +0.000 HD
ENDBRANCH  18  21
BRANCH  19  25
ATOM     25  C   UNL     1      -4.439 -14.917   1.768  0.00  0.00    +0.000 C 
ATOM     26  H   UNL     1      -4.400 -14.269   0.884  0.00  0.00    +0.000 HD
ATOM     27  H   UNL     1      -4.765 -15.904   1.428  0.00  0.00    +0.000 HD
BRANCH  25  28
ATOM     28  O   UNL     1      -3.146 -14.986   2.354  0.00  0.00    +0.000 OA
BRANCH  28  30
ATOM     29  O   UNL     1      -1.422 -13.610   1.667  0.00  0.00    +0.000 OA
ATOM     30  C   UNL     1      -2.106 -14.618   1.545  0.00  0.00    +0.000 C 
BRANCH  30  31
ATOM     31  C   UNL     1      -1.913 -15.639   0.465  0.00  0.00    +0.000 C 
ATOM     32  H   UNL     1      -1.125 -15.312  -0.217  0.00  0.00    +0.000 HD
ATOM     33  H   UNL     1      -2.852 -15.788  -0.073  0.00  0.00    +0.000 HD
ATOM     34  H   UNL     1      -1.613 -16.590   0.914  0.00  0.00    +0.000 HD
ENDBRANCH  30  31
ENDBRANCH  28  30
ENDBRANCH  25  28
ENDBRANCH  19  25
ENDBRANCH   1  18
TORSDOF 10
ENDMDL
MODEL 2
REMARK VINA RESULT:    -4.769     30.234     31.810
REMARK INTER + INTRA:          -7.589
REMARK INTER:                  -6.983
REMARK INTRA:                  -0.606
REMARK UNBOUND:                -0.590
REMARK  Name = 1549026
REMARK  10 active torsions:
REMARK  status: ('A' for Active; 'I' for Inactive)
REMARK    1  A    between atoms: O_1  and  C_10
REMARK    2  A    between atoms: O_1  and  C_13
REMARK    3  A    between atoms: C_3  and  C_4
REMARK    4  A    between atoms: C_3  and  C_5
REMARK    5  A    between atoms: C_4  and  C_6
REMARK    6  A    between atoms: C_5  and  C_8
REMARK    7  A    between atoms: C_7  and  C_10
REMARK    8  A    between atoms: C_9  and  C_11
REMARK    9  A    between atoms: C_9  and  C_12
REMARK   10  A    between atoms: C_13  and  C_14
REMARK                            x       y       z     vdW  Elec       q    Type
REMARK                         _______ _______ _______ _____ _____    ______ ____
ROOT
ATOM      1  C   UNL     1       4.644   6.546 -18.857  0.00  0.00    +0.000 C 
ATOM      2  H   UNL     1       4.326   7.279 -18.106  0.00  0.00    +0.000 HD
ATOM      3  H   UNL     1       5.331   7.078 -19.528  0.00  0.00    +0.000 HD
ENDROOT
BRANCH   1   4
ATOM      4  C   UNL     1       5.405   5.411 -18.158  0.00  0.00    +0.000 C 
ATOM      5  H   UNL     1       4.874   4.467 -18.301  0.00  0.00    +0.000 HD
ATOM      6  H   UNL     1       5.382   5.601 -17.077  0.00  0.00    +0.000 HD
BRANCH   4   7
ATOM      7  C   UNL     1       6.848   5.339 -18.576  0.00  0.00    +0.000 C 
ATOM      8  C   UNL     1       7.648   4.257 -18.615  0.00  0.00    +0.000 C 
ATOM      9  H   UNL     1       7.278   6.299 -18.857  0.00  0.00    +0.000 HD
BRANCH   8  10
ATOM     10  C   UNL     1       9.081   4.387 -19.059  0.00  0.00    +0.000 C 
ATOM     11  H   UNL     1       9.653   4.967 -18.326  0.00  0.00    +0.000 HD
ATOM     12  H   UNL     1       9.575   3.416 -19.172  0.00  0.00    +0.000 HD
ATOM     13  H   UNL     1       9.133   4.900 -20.025  0.00  0.00    +0.000 HD
ENDBRANCH   8  10
BRANCH   8  14
ATOM     14  C   UNL     1       7.237   2.857 -18.257  0.00  0.00    +0.000 C 
ATOM     15  H   UNL     1       7.574   2.616 -17.243  0.00  0.00    +0.000 HD
ATOM     16  H   UNL     1       6.159   2.692 -18.281  0.00  0.00    +0.000 HD
ATOM     17  H   UNL     1       7.696   2.144 -18.950  0.00  0.00    +0.000 HD
ENDBRANCH   8  14
ENDBRANCH   4   7
ENDBRANCH   1   4
BRANCH   1  18
ATOM     18  C   UNL     1       3.429   6.079 -19.630  0.00  0.00    +0.000 C 
ATOM     19  C   UNL     1       2.152   6.321 -19.277  0.00  0.00    +0.000 C 
ATOM     20  H   UNL     1       1.983   6.925 -18.386  0.00  0.00    +0.000 HD
BRANCH  18  21
ATOM     21  C   UNL     1       3.727   5.259 -20.860  0.00  0.00    +0.000 C 
ATOM     22  H   UNL     1       3.477   5.834 -21.758  0.00  0.00    +0.000 HD
ATOM     23  H   UNL     1       3.131   4.342 -20.866  0.00  0.00    +0.000 HD
ATOM     24  H   UNL     1       4.766   4.943 -20.962  0.00  0.00    +0.000 HD
ENDBRANCH  18  21
BRANCH  19  25
ATOM     25  C   UNL     1       0.904   5.869 -19.967  0.00  0.00    +0.000 C 
ATOM     26  H   UNL     1       1.127   5.746 -21.034  0.00  0.00    +0.000 HD
ATOM     27  H   UNL     1       0.089   6.594 -19.891  0.00  0.00    +0.000 HD
BRANCH  25  28
ATOM     28  O   UNL     1       0.516   4.614 -19.424  0.00  0.00    +0.000 OA
BRANCH  28  30
ATOM     29  O   UNL     1      -0.612   3.553 -21.139  0.00  0.00    +0.000 OA
ATOM     30  C   UNL     1       0.306   3.612 -20.331  0.00  0.00    +0.000 C 
BRANCH  30  31
ATOM     31  C   UNL     1       1.376   2.572 -20.198  0.00  0.00    +0.000 C 
ATOM     32  H   UNL     1       1.111   1.866 -19.408  0.00  0.00    +0.000 HD
ATOM     33  H   UNL     1       2.333   3.051 -19.982  0.00  0.00    +0.000 HD
ATOM     34  H   UNL     1       1.467   2.022 -21.140  0.00  0.00    +0.000 HD
ENDBRANCH  30  31
ENDBRANCH  28  30
ENDBRANCH  25  28
ENDBRANCH  19  25
ENDBRANCH   1  18
TORSDOF 10
ENDMDL
MODEL 3
REMARK VINA RESULT:    -4.738      3.097      6.832
REMARK INTER + INTRA:          -7.544
REMARK INTER:                  -6.714
REMARK INTRA:                  -0.830
REMARK UNBOUND:                -0.590
REMARK  Name = 1549026
REMARK  10 active torsions:
REMARK  status: ('A' for Active; 'I' for Inactive)
REMARK    1  A    between atoms: O_1  and  C_10
REMARK    2  A    between atoms: O_1  and  C_13
REMARK    3  A    between atoms: C_3  and  C_4
REMARK    4  A    between atoms: C_3  and  C_5
REMARK    5  A    between atoms: C_4  and  C_6
REMARK    6  A    between atoms: C_5  and  C_8
REMARK    7  A    between atoms: C_7  and  C_10
REMARK    8  A    between atoms: C_9  and  C_11
REMARK    9  A    between atoms: C_9  and  C_12
REMARK   10  A    between atoms: C_13  and  C_14
REMARK                            x       y       z     vdW  Elec       q    Type
REMARK                         _______ _______ _______ _____ _____    ______ ____
ROOT
ATOM      1  C   UNL     1      -1.139 -16.403   1.255  0.00  0.00    +0.000 C 
ATOM      2  H   UNL     1      -0.882 -17.032   2.116  0.00  0.00    +0.000 HD
ATOM      3  H   UNL     1      -0.198 -15.947   0.921  0.00  0.00    +0.000 HD
ENDROOT
BRANCH   1   4
ATOM      4  C   UNL     1      -1.691 -17.293   0.133  0.00  0.00    +0.000 C 
ATOM      5  H   UNL     1      -2.652 -17.716   0.436  0.00  0.00    +0.000 HD
ATOM      6  H   UNL     1      -1.016 -18.150   0.016  0.00  0.00    +0.000 HD
BRANCH   4   7
ATOM      7  C   UNL     1      -1.755 -16.582  -1.191  0.00  0.00    +0.000 C 
ATOM      8  C   UNL     1      -2.834 -16.048  -1.795  0.00  0.00    +0.000 C 
ATOM      9  H   UNL     1      -0.801 -16.524  -1.711  0.00  0.00    +0.000 HD
BRANCH   8  10
ATOM     10  C   UNL     1      -2.697 -15.376  -3.136  0.00  0.00    +0.000 C 
ATOM     11  H   UNL     1      -2.491 -16.120  -3.913  0.00  0.00    +0.000 HD
ATOM     12  H   UNL     1      -3.604 -14.835  -3.427  0.00  0.00    +0.000 HD
ATOM     13  H   UNL     1      -1.873 -14.656  -3.117  0.00  0.00    +0.000 HD
ENDBRANCH   8  10
BRANCH   8  14
ATOM     14  C   UNL     1      -4.228 -16.038  -1.237  0.00  0.00    +0.000 C 
ATOM     15  H   UNL     1      -4.198 -15.842  -0.160  0.00  0.00    +0.000 HD
ATOM     16  H   UNL     1      -4.878 -15.283  -1.681  0.00  0.00    +0.000 HD
ATOM     17  H   UNL     1      -4.700 -17.014  -1.394  0.00  0.00    +0.000 HD
ENDBRANCH   8  14
ENDBRANCH   4   7
ENDBRANCH   1   4
BRANCH   1  18
ATOM     18  C   UNL     1      -2.102 -15.325   1.707  0.00  0.00    +0.000 C 
ATOM     19  C   UNL     1      -3.352 -15.548   2.155  0.00  0.00    +0.000 C 
ATOM     20  H   UNL     1      -3.682 -16.583   2.227  0.00  0.00    +0.000 HD
BRANCH  18  21
ATOM     21  C   UNL     1      -1.581 -13.914   1.596  0.00  0.00    +0.000 C 
ATOM     22  H   UNL     1      -0.794 -13.750   2.341  0.00  0.00    +0.000 HD
ATOM     23  H   UNL     1      -2.381 -13.192   1.784  0.00  0.00    +0.000 HD
ATOM     24  H   UNL     1      -1.161 -13.654   0.625  0.00  0.00    +0.000 HD
ENDBRANCH  18  21
BRANCH  19  25
ATOM     25  C   UNL     1      -4.368 -14.539   2.588  0.00  0.00    +0.000 C 
ATOM     26  H   UNL     1      -4.014 -13.544   2.288  0.00  0.00    +0.000 HD
ATOM     27  H   UNL     1      -4.510 -14.515   3.672  0.00  0.00    +0.000 HD
BRANCH  25  28
ATOM     28  O   UNL     1      -5.594 -14.817   1.924  0.00  0.00    +0.000 OA
BRANCH  28  30
ATOM     29  O   UNL     1      -7.012 -13.392   3.062  0.00  0.00    +0.000 OA
ATOM     30  C   UNL     1      -6.557 -13.851   2.022  0.00  0.00    +0.000 C 
BRANCH  30  31
ATOM     31  C   UNL     1      -6.991 -13.422   0.654  0.00  0.00    +0.000 C 
ATOM     32  H   UNL     1      -7.895 -13.962   0.365  0.00  0.00    +0.000 HD
ATOM     33  H   UNL     1      -6.187 -13.605  -0.063  0.00  0.00    +0.000 HD
ATOM     34  H   UNL     1      -7.212 -12.351   0.663  0.00  0.00    +0.000 HD
ENDBRANCH  30  31
ENDBRANCH  28  30
ENDBRANCH  25  28
ENDBRANCH  19  25
ENDBRANCH   1  18
TORSDOF 10
ENDMDL
MODEL 4
REMARK VINA RESULT:    -4.723     22.441     24.598
REMARK INTER + INTRA:          -7.523
REMARK INTER:                  -6.921
REMARK INTRA:                  -0.601
REMARK UNBOUND:                -0.590
REMARK  Name = 1549026
REMARK  10 active torsions:
REMARK  status: ('A' for Active; 'I' for Inactive)
REMARK    1  A    between atoms: O_1  and  C_10
REMARK    2  A    between atoms: O_1  and  C_13
REMARK    3  A    between atoms: C_3  and  C_4
REMARK    4  A    between atoms: C_3  and  C_5
REMARK    5  A    between atoms: C_4  and  C_6
REMARK    6  A    between atoms: C_5  and  C_8
REMARK    7  A    between atoms: C_7  and  C_10
REMARK    8  A    between atoms: C_9  and  C_11
REMARK    9  A    between atoms: C_9  and  C_12
REMARK   10  A    between atoms: C_13  and  C_14
REMARK                            x       y       z     vdW  Elec       q    Type
REMARK                         _______ _______ _______ _____ _____    ______ ____
ROOT
ATOM      1  C   UNL     1      16.081  -4.556  -1.628  0.00  0.00    +0.000 C 
ATOM      2  H   UNL     1      16.905  -4.143  -1.034  0.00  0.00    +0.000 HD
ATOM      3  H   UNL     1      15.280  -3.806  -1.597  0.00  0.00    +0.000 HD
ENDROOT
BRANCH   1   4
ATOM      4  C   UNL     1      16.547  -4.731  -3.079  0.00  0.00    +0.000 C 
ATOM      5  H   UNL     1      16.430  -3.789  -3.621  0.00  0.00    +0.000 HD
ATOM      6  H   UNL     1      15.868  -5.439  -3.572  0.00  0.00    +0.000 HD
BRANCH   4   7
ATOM      7  C   UNL     1      17.938  -5.294  -3.177  0.00  0.00    +0.000 C 
ATOM      8  C   UNL     1      18.415  -6.179  -4.072  0.00  0.00    +0.000 C 
ATOM      9  H   UNL     1      18.617  -4.939  -2.402  0.00  0.00    +0.000 HD
BRANCH   8  10
ATOM     10  C   UNL     1      19.850  -6.632  -4.002  0.00  0.00    +0.000 C 
ATOM     11  H   UNL     1      20.461  -6.065  -4.712  0.00  0.00    +0.000 HD
ATOM     12  H   UNL     1      20.284  -6.493  -3.006  0.00  0.00    +0.000 HD
ATOM     13  H   UNL     1      19.923  -7.696  -4.251  0.00  0.00    +0.000 HD
ENDBRANCH   8  10
BRANCH   8  14
ATOM     14  C   UNL     1      17.631  -6.782  -5.202  0.00  0.00    +0.000 C 
ATOM     15  H   UNL     1      17.612  -7.873  -5.104  0.00  0.00    +0.000 HD
ATOM     16  H   UNL     1      16.592  -6.449  -5.248  0.00  0.00    +0.000 HD
ATOM     17  H   UNL     1      18.101  -6.532  -6.159  0.00  0.00    +0.000 HD
ENDBRANCH   8  14
ENDBRANCH   4   7
ENDBRANCH   1   4
BRANCH   1  18
ATOM     18  C   UNL     1      15.608  -5.841  -0.980  0.00  0.00    +0.000 C 
ATOM     19  C   UNL     1      15.718  -6.128   0.331  0.00  0.00    +0.000 C 
ATOM     20  H   UNL     1      16.150  -5.365   0.977  0.00  0.00    +0.000 HD
BRANCH  18  21
ATOM     21  C   UNL     1      15.008  -6.851  -1.925  0.00  0.00    +0.000 C 
ATOM     22  H   UNL     1      15.801  -7.318  -2.520  0.00  0.00    +0.000 HD
ATOM     23  H   UNL     1      14.308  -6.369  -2.612  0.00  0.00    +0.000 HD
ATOM     24  H   UNL     1      14.453  -7.658  -1.445  0.00  0.00    +0.000 HD
ENDBRANCH  18  21
BRANCH  19  25
ATOM     25  C   UNL     1      15.307  -7.382   1.037  0.00  0.00    +0.000 C 
ATOM     26  H   UNL     1      15.385  -8.216   0.328  0.00  0.00    +0.000 HD
ATOM     27  H   UNL     1      14.271  -7.353   1.385  0.00  0.00    +0.000 HD
BRANCH  25  28
ATOM     28  O   UNL     1      16.199  -7.605   2.120  0.00  0.00    +0.000 OA
BRANCH  28  30
ATOM     29  O   UNL     1      16.645  -9.503   3.359  0.00  0.00    +0.000 OA
ATOM     30  C   UNL     1      16.611  -8.897   2.296  0.00  0.00    +0.000 C 
BRANCH  30  31
ATOM     31  C   UNL     1      17.024  -9.485   0.981  0.00  0.00    +0.000 C 
ATOM     32  H   UNL     1      17.336 -10.522   1.120  0.00  0.00    +0.000 HD
ATOM     33  H   UNL     1      17.834  -8.893   0.550  0.00  0.00    +0.000 HD
ATOM     34  H   UNL     1      16.174  -9.466   0.292  0.00  0.00    +0.000 HD
ENDBRANCH  30  31
ENDBRANCH  28  30
ENDBRANCH  25  28
ENDBRANCH  19  25
ENDBRANCH   1  18
TORSDOF 10
ENDMDL
MODEL 5
REMARK VINA RESULT:    -4.695     23.331     26.127
REMARK INTER + INTRA:          -7.481
REMARK INTER:                  -6.829
REMARK INTRA:                  -0.651
REMARK UNBOUND:                -0.590
REMARK  Name = 1549026
REMARK  10 active torsions:
REMARK  status: ('A' for Active; 'I' for Inactive)
REMARK    1  A    between atoms: O_1  and  C_10
REMARK    2  A    between atoms: O_1  and  C_13
REMARK    3  A    between atoms: C_3  and  C_4
REMARK    4  A    between atoms: C_3  and  C_5
REMARK    5  A    between atoms: C_4  and  C_6
REMARK    6  A    between atoms: C_5  and  C_8
REMARK    7  A    between atoms: C_7  and  C_10
REMARK    8  A    between atoms: C_9  and  C_11
REMARK    9  A    between atoms: C_9  and  C_12
REMARK   10  A    between atoms: C_13  and  C_14
REMARK                            x       y       z     vdW  Elec       q    Type
REMARK                         _______ _______ _______ _____ _____    ______ ____
ROOT
ATOM      1  C   UNL     1      16.215  -6.066  -3.424  0.00  0.00    +0.000 C 
ATOM      2  H   UNL     1      15.960  -7.090  -3.126  0.00  0.00    +0.000 HD
ATOM      3  H   UNL     1      15.451  -5.764  -4.153  0.00  0.00    +0.000 HD
ENDROOT
BRANCH   1   4
ATOM      4  C   UNL     1      16.126  -5.149  -2.197  0.00  0.00    +0.000 C 
ATOM      5  H   UNL     1      15.619  -4.220  -2.466  0.00  0.00    +0.000 HD
ATOM      6  H   UNL     1      17.146  -4.857  -1.916  0.00  0.00    +0.000 HD
BRANCH   4   7
ATOM      7  C   UNL     1      15.506  -5.832  -1.009  0.00  0.00    +0.000 C 
ATOM      8  C   UNL     1      16.085  -6.690  -0.149  0.00  0.00    +0.000 C 
ATOM      9  H   UNL     1      14.452  -5.599  -0.862  0.00  0.00    +0.000 HD
BRANCH   8  10
ATOM     10  C   UNL     1      15.290  -7.280   0.986  0.00  0.00    +0.000 C 
ATOM     11  H   UNL     1      15.955  -7.797   1.686  0.00  0.00    +0.000 HD
ATOM     12  H   UNL     1      14.740  -6.520   1.552  0.00  0.00    +0.000 HD
ATOM     13  H   UNL     1      14.560  -8.001   0.603  0.00  0.00    +0.000 HD
ENDBRANCH   8  10
BRANCH   8  14
ATOM     14  C   UNL     1      17.519  -7.135  -0.196  0.00  0.00    +0.000 C 
ATOM     15  H   UNL     1      17.603  -8.066  -0.766  0.00  0.00    +0.000 HD
ATOM     16  H   UNL     1      18.191  -6.414  -0.664  0.00  0.00    +0.000 HD
ATOM     17  H   UNL     1      17.887  -7.320   0.819  0.00  0.00    +0.000 HD
ENDBRANCH   8  14
ENDBRANCH   4   7
ENDBRANCH   1   4
BRANCH   1  18
ATOM     18  C   UNL     1      17.579  -6.073  -4.082  0.00  0.00    +0.000 C 
ATOM     19  C   UNL     1      18.677  -5.473  -3.583  0.00  0.00    +0.000 C 
ATOM     20  H   UNL     1      18.582  -4.973  -2.620  0.00  0.00    +0.000 HD
BRANCH  18  21
ATOM     21  C   UNL     1      17.649  -6.793  -5.405  0.00  0.00    +0.000 C 
ATOM     22  H   UNL     1      17.852  -7.857  -5.237  0.00  0.00    +0.000 HD
ATOM     23  H   UNL     1      18.455  -6.388  -6.022  0.00  0.00    +0.000 HD
ATOM     24  H   UNL     1      16.744  -6.732  -6.010  0.00  0.00    +0.000 HD
ENDBRANCH  18  21
BRANCH  19  25
ATOM     25  C   UNL     1      20.045  -5.410  -4.186  0.00  0.00    +0.000 C 
ATOM     26  H   UNL     1      19.941  -5.450  -5.278  0.00  0.00    +0.000 HD
ATOM     27  H   UNL     1      20.679  -6.251  -3.893  0.00  0.00    +0.000 HD
BRANCH  25  28
ATOM     28  O   UNL     1      20.644  -4.174  -3.820  0.00  0.00    +0.000 OA
BRANCH  28  30
ATOM     29  O   UNL     1      21.072  -3.485  -1.656  0.00  0.00    +0.000 OA
ATOM     30  C   UNL     1      21.329  -4.173  -2.636  0.00  0.00    +0.000 C 
BRANCH  30  31
ATOM     31  C   UNL     1      22.464  -5.149  -2.702  0.00  0.00    +0.000 C 
ATOM     32  H   UNL     1      22.108  -6.149  -2.445  0.00  0.00    +0.000 HD
ATOM     33  H   UNL     1      23.260  -4.837  -2.023  0.00  0.00    +0.000 HD
ATOM     34  H   UNL     1      22.864  -5.173  -3.720  0.00  0.00    +0.000 HD
ENDBRANCH  30  31
ENDBRANCH  28  30
ENDBRANCH  25  28
ENDBRANCH  19  25
ENDBRANCH   1  18
TORSDOF 10
ENDMDL
MODEL 6
REMARK VINA RESULT:    -4.617     27.003     29.976
REMARK INTER + INTRA:          -7.367
REMARK INTER:                  -6.503
REMARK INTRA:                  -0.864
REMARK UNBOUND:                -0.590
REMARK  Name = 1549026
REMARK  10 active torsions:
REMARK  status: ('A' for Active; 'I' for Inactive)
REMARK    1  A    between atoms: O_1  and  C_10
REMARK    2  A    between atoms: O_1  and  C_13
REMARK    3  A    between atoms: C_3  and  C_4
REMARK    4  A    between atoms: C_3  and  C_5
REMARK    5  A    between atoms: C_4  and  C_6
REMARK    6  A    between atoms: C_5  and  C_8
REMARK    7  A    between atoms: C_7  and  C_10
REMARK    8  A    between atoms: C_9  and  C_11
REMARK    9  A    between atoms: C_9  and  C_12
REMARK   10  A    between atoms: C_13  and  C_14
REMARK                            x       y       z     vdW  Elec       q    Type
REMARK                         _______ _______ _______ _____ _____    ______ ____
ROOT
ATOM      1  C   UNL     1      15.006   6.336  -2.887  0.00  0.00    +0.000 C 
ATOM      2  H   UNL     1      14.152   6.092  -3.531  0.00  0.00    +0.000 HD
ATOM      3  H   UNL     1      15.871   5.819  -3.322  0.00  0.00    +0.000 HD
ENDROOT
BRANCH   1   4
ATOM      4  C   UNL     1      15.252   7.850  -2.932  0.00  0.00    +0.000 C 
ATOM      5  H   UNL     1      14.809   8.323  -2.053  0.00  0.00    +0.000 HD
ATOM      6  H   UNL     1      14.705   8.258  -3.792  0.00  0.00    +0.000 HD
BRANCH   4   7
ATOM      7  C   UNL     1      16.704   8.195  -3.113  0.00  0.00    +0.000 C 
ATOM      8  C   UNL     1      17.634   8.402  -2.161  0.00  0.00    +0.000 C 
ATOM      9  H   UNL     1      17.009   8.305  -4.153  0.00  0.00    +0.000 HD
BRANCH   8  10
ATOM     10  C   UNL     1      19.049   8.749  -2.544  0.00  0.00    +0.000 C 
ATOM     11  H   UNL     1      19.514   9.357  -1.761  0.00  0.00    +0.000 HD
ATOM     12  H   UNL     1      19.673   7.861  -2.689  0.00  0.00    +0.000 HD
ATOM     13  H   UNL     1      19.059   9.318  -3.479  0.00  0.00    +0.000 HD
ENDBRANCH   8  10
BRANCH   8  14
ATOM     14  C   UNL     1      17.399   8.304  -0.681  0.00  0.00    +0.000 C 
ATOM     15  H   UNL     1      16.338   8.120  -0.482  0.00  0.00    +0.000 HD
ATOM     16  H   UNL     1      17.958   7.501  -0.196  0.00  0.00    +0.000 HD
ATOM     17  H   UNL     1      17.682   9.244  -0.195  0.00  0.00    +0.000 HD
ENDBRANCH   8  14
ENDBRANCH   4   7
ENDBRANCH   1   4
BRANCH   1  18
ATOM     18  C   UNL     1      14.735   5.804  -1.495  0.00  0.00    +0.000 C 
ATOM     19  C   UNL     1      13.625   6.059  -0.776  0.00  0.00    +0.000 C 
ATOM     20  H   UNL     1      12.852   6.668  -1.244  0.00  0.00    +0.000 HD
BRANCH  18  21
ATOM     21  C   UNL     1      15.835   4.958  -0.907  0.00  0.00    +0.000 C 
ATOM     22  H   UNL     1      16.135   5.364   0.065  0.00  0.00    +0.000 HD
ATOM     23  H   UNL     1      16.713   4.958  -1.560  0.00  0.00    +0.000 HD
ATOM     24  H   UNL     1      15.577   3.910  -0.749  0.00  0.00    +0.000 HD
ENDBRANCH  18  21
BRANCH  19  25
ATOM     25  C   UNL     1      13.300   5.599   0.610  0.00  0.00    +0.000 C 
ATOM     26  H   UNL     1      12.612   6.326   1.060  0.00  0.00    +0.000 HD
ATOM     27  H   UNL     1      14.180   5.547   1.258  0.00  0.00    +0.000 HD
BRANCH  25  28
ATOM     28  O   UNL     1      12.656   4.335   0.528  0.00  0.00    +0.000 OA
BRANCH  28  30
ATOM     29  O   UNL     1      13.931   2.409   0.545  0.00  0.00    +0.000 OA
ATOM     30  C   UNL     1      13.313   3.293   1.123  0.00  0.00    +0.000 C 
BRANCH  30  31
ATOM     31  C   UNL     1      13.168   3.382   2.612  0.00  0.00    +0.000 C 
ATOM     32  H   UNL     1      12.111   3.338   2.885  0.00  0.00    +0.000 HD
ATOM     33  H   UNL     1      13.622   4.308   2.972  0.00  0.00    +0.000 HD
ATOM     34  H   UNL     1      13.683   2.536   3.077  0.00  0.00    +0.000 HD
ENDBRANCH  30  31
ENDBRANCH  28  30
ENDBRANCH  25  28
ENDBRANCH  19  25
ENDBRANCH   1  18
TORSDOF 10
ENDMDL
MODEL 7
REMARK VINA RESULT:    -4.528      2.517      3.121
REMARK INTER + INTRA:          -7.235
REMARK INTER:                  -6.720
REMARK INTRA:                  -0.515
REMARK UNBOUND:                -0.590
REMARK  Name = 1549026
REMARK  10 active torsions:
REMARK  status: ('A' for Active; 'I' for Inactive)
REMARK    1  A    between atoms: O_1  and  C_10
REMARK    2  A    between atoms: O_1  and  C_13
REMARK    3  A    between atoms: C_3  and  C_4
REMARK    4  A    between atoms: C_3  and  C_5
REMARK    5  A    between atoms: C_4  and  C_6
REMARK    6  A    between atoms: C_5  and  C_8
REMARK    7  A    between atoms: C_7  and  C_10
REMARK    8  A    between atoms: C_9  and  C_11
REMARK    9  A    between atoms: C_9  and  C_12
REMARK   10  A    between atoms: C_13  and  C_14
REMARK                            x       y       z     vdW  Elec       q    Type
REMARK                         _______ _______ _______ _____ _____    ______ ____
ROOT
ATOM      1  C   UNL     1      -7.694 -13.607   4.113  0.00  0.00    +0.000 C 
ATOM      2  H   UNL     1      -8.229 -14.499   3.764  0.00  0.00    +0.000 HD
ATOM      3  H   UNL     1      -7.982 -12.795   3.432  0.00  0.00    +0.000 HD
ENDROOT
BRANCH   1   4
ATOM      4  C   UNL     1      -8.168 -13.262   5.532  0.00  0.00    +0.000 C 
ATOM      5  H   UNL     1      -9.200 -12.908   5.500  0.00  0.00    +0.000 HD
ATOM      6  H   UNL     1      -7.575 -12.411   5.890  0.00  0.00    +0.000 HD
BRANCH   4   7
ATOM      7  C   UNL     1      -7.967 -14.395   6.500  0.00  0.00    +0.000 C 
ATOM      8  C   UNL     1      -8.566 -15.601   6.503  0.00  0.00    +0.000 C 
ATOM      9  H   UNL     1      -7.258 -14.178   7.298  0.00  0.00    +0.000 HD
BRANCH   8  10
ATOM     10  C   UNL     1      -8.235 -16.610   7.571  0.00  0.00    +0.000 C 
ATOM     11  H   UNL     1      -8.382 -17.626   7.190  0.00  0.00    +0.000 HD
ATOM     12  H   UNL     1      -7.199 -16.532   7.915  0.00  0.00    +0.000 HD
ATOM     13  H   UNL     1      -8.885 -16.468   8.441  0.00  0.00    +0.000 HD
ENDBRANCH   8  10
BRANCH   8  14
ATOM     14  C   UNL     1      -9.571 -16.075   5.494  0.00  0.00    +0.000 C 
ATOM     15  H   UNL     1      -9.058 -16.426   4.592  0.00  0.00    +0.000 HD
ATOM     16  H   UNL     1     -10.198 -16.897   5.844  0.00  0.00    +0.000 HD
ATOM     17  H   UNL     1     -10.235 -15.251   5.211  0.00  0.00    +0.000 HD
ENDBRANCH   8  14
ENDBRANCH   4   7
ENDBRANCH   1   4
BRANCH   1  18
ATOM     18  C   UNL     1      -6.204 -13.860   4.013  0.00  0.00    +0.000 C 
ATOM     19  C   UNL     1      -5.628 -15.077   4.025  0.00  0.00    +0.000 C 
ATOM     20  H   UNL     1      -6.286 -15.944   4.080  0.00  0.00    +0.000 HD
BRANCH  18  21
ATOM     21  C   UNL     1      -5.348 -12.622   3.927  0.00  0.00    +0.000 C 
ATOM     22  H   UNL     1      -5.977 -11.730   4.026  0.00  0.00    +0.000 HD
ATOM     23  H   UNL     1      -4.839 -12.572   2.960  0.00  0.00    +0.000 HD
ATOM     24  H   UNL     1      -4.567 -12.548   4.684  0.00  0.00    +0.000 HD
ENDBRANCH  18  21
BRANCH  19  25
ATOM     25  C   UNL     1      -4.169 -15.406   3.962  0.00  0.00    +0.000 C 
ATOM     26  H   UNL     1      -3.639 -14.536   3.556  0.00  0.00    +0.000 HD
ATOM     27  H   UNL     1      -3.952 -16.251   3.303  0.00  0.00    +0.000 HD
BRANCH  25  28
ATOM     28  O   UNL     1      -3.706 -15.661   5.281  0.00  0.00    +0.000 OA
BRANCH  28  30
ATOM     29  O   UNL     1      -2.250 -17.341   4.652  0.00  0.00    +0.000 OA
ATOM     30  C   UNL     1      -3.020 -16.832   5.455  0.00  0.00    +0.000 C 
BRANCH  30  31
ATOM     31  C   UNL     1      -3.347 -17.420   6.794  0.00  0.00    +0.000 C 
ATOM     32  H   UNL     1      -2.570 -17.157   7.515  0.00  0.00    +0.000 HD
ATOM     33  H   UNL     1      -3.442 -18.505   6.708  0.00  0.00    +0.000 HD
ATOM     34  H   UNL     1      -4.300 -17.014   7.146  0.00  0.00    +0.000 HD
ENDBRANCH  30  31
ENDBRANCH  28  30
ENDBRANCH  25  28
ENDBRANCH  19  25
ENDBRANCH   1  18
TORSDOF 10
ENDMDL
MODEL 8
REMARK VINA RESULT:    -4.471      3.013      5.201
REMARK INTER + INTRA:          -7.152
REMARK INTER:                  -6.458
REMARK INTRA:                  -0.694
REMARK UNBOUND:                -0.590
REMARK  Name = 1549026
REMARK  10 active torsions:
REMARK  status: ('A' for Active; 'I' for Inactive)
REMARK    1  A    between atoms: O_1  and  C_10
REMARK    2  A    between atoms: O_1  and  C_13
REMARK    3  A    between atoms: C_3  and  C_4
REMARK    4  A    between atoms: C_3  and  C_5
REMARK    5  A    between atoms: C_4  and  C_6
REMARK    6  A    between atoms: C_5  and  C_8
REMARK    7  A    between atoms: C_7  and  C_10
REMARK    8  A    between atoms: C_9  and  C_11
REMARK    9  A    between atoms: C_9  and  C_12
REMARK   10  A    between atoms: C_13  and  C_14
REMARK                            x       y       z     vdW  Elec       q    Type
REMARK                         _______ _______ _______ _____ _____    ______ ____
ROOT
ATOM      1  C   UNL     1      -8.694 -16.524   7.122  0.00  0.00    +0.000 C 
ATOM      2  H   UNL     1      -9.487 -16.005   7.673  0.00  0.00    +0.000 HD
ATOM      3  H   UNL     1      -8.110 -17.070   7.874  0.00  0.00    +0.000 HD
ENDROOT
BRANCH   1   4
ATOM      4  C   UNL     1      -9.333 -17.531   6.155  0.00  0.00    +0.000 C 
ATOM      5  H   UNL     1      -9.506 -18.478   6.671  0.00  0.00    +0.000 HD
ATOM      6  H   UNL     1      -8.603 -17.754   5.366  0.00  0.00    +0.000 HD
BRANCH   4   7
ATOM      7  C   UNL     1     -10.569 -16.991   5.491  0.00  0.00    +0.000 C 
ATOM      8  C   UNL     1     -11.826 -17.468   5.564  0.00  0.00    +0.000 C 
ATOM      9  H   UNL     1     -10.392 -16.118   4.864  0.00  0.00    +0.000 HD
BRANCH   8  10
ATOM     10  C   UNL     1     -12.941 -16.787   4.814  0.00  0.00    +0.000 C 
ATOM     11  H   UNL     1     -12.748 -15.711   4.743  0.00  0.00    +0.000 HD
ATOM     12  H   UNL     1     -13.056 -17.171   3.795  0.00  0.00    +0.000 HD
ATOM     13  H   UNL     1     -13.893 -16.936   5.334  0.00  0.00    +0.000 HD
ENDBRANCH   8  10
BRANCH   8  14
ATOM     14  C   UNL     1     -12.259 -18.660   6.367  0.00  0.00    +0.000 C 
ATOM     15  H   UNL     1     -11.423 -19.359   6.481  0.00  0.00    +0.000 HD
ATOM     16  H   UNL     1     -12.608 -18.416   7.372  0.00  0.00    +0.000 HD
ATOM     17  H   UNL     1     -13.073 -19.182   5.853  0.00  0.00    +0.000 HD
ENDBRANCH   8  14
ENDBRANCH   4   7
ENDBRANCH   1   4
BRANCH   1  18
ATOM     18  C   UNL     1      -7.819 -15.494   6.438  0.00  0.00    +0.000 C 
ATOM     19  C   UNL     1      -8.154 -14.203   6.250  0.00  0.00    +0.000 C 
ATOM     20  H   UNL     1      -9.112 -13.869   6.648  0.00  0.00    +0.000 HD
BRANCH  18  21
ATOM     21  C   UNL     1      -6.502 -16.013   5.922  0.00  0.00    +0.000 C 
ATOM     22  H   UNL     1      -6.679 -16.819   5.201  0.00  0.00    +0.000 HD
ATOM     23  H   UNL     1      -5.899 -16.416   6.740  0.00  0.00    +0.000 HD
ATOM     24  H   UNL     1      -5.878 -15.271   5.423  0.00  0.00    +0.000 HD
ENDBRANCH  18  21
BRANCH  19  25
ATOM     25  C   UNL     1      -7.362 -13.137   5.560  0.00  0.00    +0.000 C 
ATOM     26  H   UNL     1      -6.320 -13.475   5.491  0.00  0.00    +0.000 HD
ATOM     27  H   UNL     1      -7.357 -12.190   6.106  0.00  0.00    +0.000 HD
BRANCH  25  28
ATOM     28  O   UNL     1      -7.884 -12.963   4.249  0.00  0.00    +0.000 OA
BRANCH  28  30
ATOM     29  O   UNL     1      -7.493 -14.032   2.239  0.00  0.00    +0.000 OA
ATOM     30  C   UNL     1      -7.101 -13.429   3.229  0.00  0.00    +0.000 C 
BRANCH  30  31
ATOM     31  C   UNL     1      -5.665 -13.095   3.495  0.00  0.00    +0.000 C 
ATOM     32  H   UNL     1      -5.590 -12.460   4.381  0.00  0.00    +0.000 HD
ATOM     33  H   UNL     1      -5.235 -12.594   2.625  0.00  0.00    +0.000 HD
ATOM     34  H   UNL     1      -5.105 -14.017   3.680  0.00  0.00    +0.000 HD
ENDBRANCH  30  31
ENDBRANCH  28  30
ENDBRANCH  25  28
ENDBRANCH  19  25
ENDBRANCH   1  18
TORSDOF 10
ENDMDL
MODEL 9
REMARK VINA RESULT:    -4.444     26.438     28.958
REMARK INTER + INTRA:          -7.113
REMARK INTER:                  -6.619
REMARK INTRA:                  -0.494
REMARK UNBOUND:                -0.590
REMARK  Name = 1549026
REMARK  10 active torsions:
REMARK  status: ('A' for Active; 'I' for Inactive)
REMARK    1  A    between atoms: O_1  and  C_10
REMARK    2  A    between atoms: O_1  and  C_13
REMARK    3  A    between atoms: C_3  and  C_4
REMARK    4  A    between atoms: C_3  and  C_5
REMARK    5  A    between atoms: C_4  and  C_6
REMARK    6  A    between atoms: C_5  and  C_8
REMARK    7  A    between atoms: C_7  and  C_10
REMARK    8  A    between atoms: C_9  and  C_11
REMARK    9  A    between atoms: C_9  and  C_12
REMARK   10  A    between atoms: C_13  and  C_14
REMARK                            x       y       z     vdW  Elec       q    Type
REMARK                         _______ _______ _______ _____ _____    ______ ____
ROOT
ATOM      1  C   UNL     1      15.125   3.342  -0.151  0.00  0.00    +0.000 C 
ATOM      2  H   UNL     1      16.022   3.392   0.478  0.00  0.00    +0.000 HD
ATOM      3  H   UNL     1      15.337   2.590  -0.922  0.00  0.00    +0.000 HD
ENDROOT
BRANCH   1   4
ATOM      4  C   UNL     1      13.941   2.865   0.701  0.00  0.00    +0.000 C 
ATOM      5  H   UNL     1      13.557   1.923   0.304  0.00  0.00    +0.000 HD
ATOM      6  H   UNL     1      13.124   3.589   0.582  0.00  0.00    +0.000 HD
BRANCH   4   7
ATOM      7  C   UNL     1      14.274   2.792   2.165  0.00  0.00    +0.000 C 
ATOM      8  C   UNL     1      13.506   3.155   3.210  0.00  0.00    +0.000 C 
ATOM      9  H   UNL     1      15.273   2.413   2.376  0.00  0.00    +0.000 HD
BRANCH   8  10
ATOM     10  C   UNL     1      14.023   3.011   4.618  0.00  0.00    +0.000 C 
ATOM     11  H   UNL     1      14.501   3.942   4.942  0.00  0.00    +0.000 HD
ATOM     12  H   UNL     1      13.228   2.779   5.334  0.00  0.00    +0.000 HD
ATOM     13  H   UNL     1      14.762   2.204   4.669  0.00  0.00    +0.000 HD
ENDBRANCH   8  10
BRANCH   8  14
ATOM     14  C   UNL     1      12.111   3.703   3.117  0.00  0.00    +0.000 C 
ATOM     15  H   UNL     1      11.950   4.148   2.129  0.00  0.00    +0.000 HD
ATOM     16  H   UNL     1      11.330   2.954   3.259  0.00  0.00    +0.000 HD
ATOM     17  H   UNL     1      11.964   4.482   3.872  0.00  0.00    +0.000 HD
ENDBRANCH   8  14
ENDBRANCH   4   7
ENDBRANCH   1   4
BRANCH   1  18
ATOM     18  C   UNL     1      14.905   4.694  -0.798  0.00  0.00    +0.000 C 
ATOM     19  C   UNL     1      15.798   5.326  -1.583  0.00  0.00    +0.000 C 
ATOM     20  H   UNL     1      16.735   4.811  -1.794  0.00  0.00    +0.000 HD
BRANCH  18  21
ATOM     21  C   UNL     1      13.586   5.350  -0.478  0.00  0.00    +0.000 C 
ATOM     22  H   UNL     1      13.121   4.849   0.378  0.00  0.00    +0.000 HD
ATOM     23  H   UNL     1      12.902   5.274  -1.328  0.00  0.00    +0.000 HD
ATOM     24  H   UNL     1      13.646   6.411  -0.233  0.00  0.00    +0.000 HD
ENDBRANCH  18  21
BRANCH  19  25
ATOM     25  C   UNL     1      15.669   6.670  -2.228  0.00  0.00    +0.000 C 
ATOM     26  H   UNL     1      15.130   7.331  -1.538  0.00  0.00    +0.000 HD
ATOM     27  H   UNL     1      15.094   6.642  -3.158  0.00  0.00    +0.000 HD
BRANCH  25  28
ATOM     28  O   UNL     1      16.971   7.191  -2.454  0.00  0.00    +0.000 OA
BRANCH  28  30
ATOM     29  O   UNL     1      18.027   8.942  -3.529  0.00  0.00    +0.000 OA
ATOM     30  C   UNL     1      17.025   8.413  -3.066  0.00  0.00    +0.000 C 
BRANCH  30  31
ATOM     31  C   UNL     1      15.660   9.031  -3.094  0.00  0.00    +0.000 C 
ATOM     32  H   UNL     1      15.621   9.875  -2.401  0.00  0.00    +0.000 HD
ATOM     33  H   UNL     1      14.910   8.282  -2.832  0.00  0.00    +0.000 HD
ATOM     34  H   UNL     1      15.449   9.399  -4.102  0.00  0.00    +0.000 HD
ENDBRANCH  30  31
ENDBRANCH  28  30
ENDBRANCH  25  28
ENDBRANCH  19  25
ENDBRANCH   1  18
TORSDOF 10
ENDMDL
MODEL 10
REMARK VINA RESULT:    -4.410     29.429     30.986
REMARK INTER + INTRA:          -7.063
REMARK INTER:                  -6.473
REMARK INTRA:                  -0.590
REMARK UNBOUND:                -0.590
REMARK  Name = 1549026
REMARK  10 active torsions:
REMARK  status: ('A' for Active; 'I' for Inactive)
REMARK    1  A    between atoms: O_1  and  C_10
REMARK    2  A    between atoms: O_1  and  C_13
REMARK    3  A    between atoms: C_3  and  C_4
REMARK    4  A    between atoms: C_3  and  C_5
REMARK    5  A    between atoms: C_4  and  C_6
REMARK    6  A    between atoms: C_5  and  C_8
REMARK    7  A    between atoms: C_7  and  C_10
REMARK    8  A    between atoms: C_9  and  C_11
REMARK    9  A    between atoms: C_9  and  C_12
REMARK   10  A    between atoms: C_13  and  C_14
REMARK                            x       y       z     vdW  Elec       q    Type
REMARK                         _______ _______ _______ _____ _____    ______ ____
ROOT
ATOM      1  C   UNL     1      -1.562   6.297  25.678  0.00  0.00    +0.000 C 
ATOM      2  H   UNL     1      -1.956   6.876  26.522  0.00  0.00    +0.000 HD
ATOM      3  H   UNL     1      -0.778   5.651  26.093  0.00  0.00    +0.000 HD
ENDROOT
BRANCH   1   4
ATOM      4  C   UNL     1      -2.684   5.419  25.106  0.00  0.00    +0.000 C 
ATOM      5  H   UNL     1      -2.259   4.504  24.686  0.00  0.00    +0.000 HD
ATOM      6  H   UNL     1      -3.133   5.950  24.257  0.00  0.00    +0.000 HD
BRANCH   4   7
ATOM      7  C   UNL     1      -3.776   5.152  26.104  0.00  0.00    +0.000 C 
ATOM      8  C   UNL     1      -5.051   4.793  25.864  0.00  0.00    +0.000 C 
ATOM      9  H   UNL     1      -3.475   5.295  27.141  0.00  0.00    +0.000 HD
BRANCH   8  10
ATOM     10  C   UNL     1      -6.008   4.576  27.007  0.00  0.00    +0.000 C 
ATOM     11  H   UNL     1      -6.810   5.322  26.976  0.00  0.00    +0.000 HD
ATOM     12  H   UNL     1      -6.474   3.586  26.981  0.00  0.00    +0.000 HD
ATOM     13  H   UNL     1      -5.482   4.671  27.963  0.00  0.00    +0.000 HD
ENDBRANCH   8  10
BRANCH   8  14
ATOM     14  C   UNL     1      -5.647   4.558  24.506  0.00  0.00    +0.000 C 
ATOM     15  H   UNL     1      -6.306   3.683  24.532  0.00  0.00    +0.000 HD
ATOM     16  H   UNL     1      -6.242   5.393  24.132  0.00  0.00    +0.000 HD
ATOM     17  H   UNL     1      -4.853   4.366  23.776  0.00  0.00    +0.000 HD
ENDBRANCH   8  14
ENDBRANCH   4   7
ENDBRANCH   1   4
BRANCH   1  18
ATOM     18  C   UNL     1      -0.961   7.252  24.668  0.00  0.00    +0.000 C 
ATOM     19  C   UNL     1      -0.154   8.286  24.972  0.00  0.00    +0.000 C 
ATOM     20  H   UNL     1       0.112   8.425  26.019  0.00  0.00    +0.000 HD
BRANCH  18  21
ATOM     21  C   UNL     1      -1.355   7.000  23.234  0.00  0.00    +0.000 C 
ATOM     22  H   UNL     1      -2.132   7.712  22.933  0.00  0.00    +0.000 HD
ATOM     23  H   UNL     1      -1.757   5.990  23.117  0.00  0.00    +0.000 HD
ATOM     24  H   UNL     1      -0.544   7.089  22.511  0.00  0.00    +0.000 HD
ENDBRANCH  18  21
BRANCH  19  25
ATOM     25  C   UNL     1       0.450   9.288  24.039  0.00  0.00    +0.000 C 
ATOM     26  H   UNL     1       0.305   8.931  23.011  0.00  0.00    +0.000 HD
ATOM     27  H   UNL     1       1.527   9.411  24.186  0.00  0.00    +0.000 HD
BRANCH  25  28
ATOM     28  O   UNL     1      -0.228  10.526  24.203  0.00  0.00    +0.000 OA
BRANCH  28  30
ATOM     29  O   UNL     1      -0.874  11.023  22.041  0.00  0.00    +0.000 OA
ATOM     30  C   UNL     1      -1.129  10.845  23.225  0.00  0.00    +0.000 C 
BRANCH  30  31
ATOM     31  C   UNL     1      -2.503  10.951  23.813  0.00  0.00    +0.000 C 
ATOM     32  H   UNL     1      -2.704  11.984  24.105  0.00  0.00    +0.000 HD
ATOM     33  H   UNL     1      -2.589  10.284  24.674  0.00  0.00    +0.000 HD
ATOM     34  H   UNL     1      -3.243  10.651  23.064  0.00  0.00    +0.000 HD
ENDBRANCH  30  31
ENDBRANCH  28  30
ENDBRANCH  25  28
ENDBRANCH  19  25
ENDBRANCH   1  18
TORSDOF 10
ENDMDL
