MODEL 1
REMARK VINA RESULT:    -6.515      0.000      0.000
REMARK INTER + INTRA:          -7.718
REMARK INTER:                  -7.239
REMARK INTRA:                  -0.479
REMARK UNBOUND:                -0.251
REMARK  Name = 4763
REMARK  3 active torsions:
REMARK  status: ('A' for Active; 'I' for Inactive)
REMARK    1  A    between atoms: C_6  and  C_7
REMARK    2  A    between atoms: C_6  and  C_8
REMARK    3  A    between atoms: C_7  and  C_11
REMARK                            x       y       z     vdW  Elec       q    Type
REMARK                         _______ _______ _______ _____ _____    ______ ____
ROOT
ATOM      1  O   UNL     1       0.945   4.603 -19.430  0.00  0.00    +0.000 OA
ATOM      2  O   UNL     1       4.092   5.771 -22.852  0.00  0.00    +0.000 OA
ATOM      3  O   UNL     1       1.931   1.731 -22.860  0.00  0.00    +0.000 OA
ATOM      4  N   UNL     1       1.488   3.177 -21.132  0.00  0.00    +0.000 N 
ATOM      5  N   UNL     1       3.024   3.748 -22.807  0.00  0.00    +0.000 N 
ATOM      6  C   UNL     1       2.747   5.293 -20.895  0.00  0.00    +0.000 C 
ATOM      7  C   UNL     1       1.640   4.349 -20.416  0.00  0.00    +0.000 C 
ATOM      8  C   UNL     1       3.344   4.983 -22.270  0.00  0.00    +0.000 C 
ATOM      9  C   UNL     1       2.140   2.809 -22.300  0.00  0.00    +0.000 C 
ATOM     10  H   UNL     1       0.797   2.521 -20.780  0.00  0.00    +0.000 HD
ATOM     11  H   UNL     1       3.468   3.515 -23.692  0.00  0.00    +0.000 HD
ENDROOT
BRANCH   6  12
ATOM     12  C   UNL     1       3.854   5.294 -19.878  0.00  0.00    +0.000 A 
ATOM     13  C   UNL     1       4.737   4.223 -19.824  0.00  0.00    +0.000 A 
ATOM     14  C   UNL     1       3.982   6.365 -19.004  0.00  0.00    +0.000 A 
ATOM     15  C   UNL     1       5.765   4.223 -18.881  0.00  0.00    +0.000 A 
ATOM     16  C   UNL     1       5.009   6.366 -18.060  0.00  0.00    +0.000 A 
ATOM     17  C   UNL     1       5.901   5.294 -17.998  0.00  0.00    +0.000 A 
ATOM     18  H   UNL     1       4.649   3.376 -20.498  0.00  0.00    +0.000 HD
ATOM     19  H   UNL     1       3.343   7.238 -18.977  0.00  0.00    +0.000 HD
ATOM     20  H   UNL     1       6.458   3.388 -18.833  0.00  0.00    +0.000 HD
ATOM     21  H   UNL     1       5.118   7.200 -17.373  0.00  0.00    +0.000 HD
ATOM     22  H   UNL     1       6.701   5.295 -17.264  0.00  0.00    +0.000 HD
ENDBRANCH   6  12
BRANCH   6  23
ATOM     23  C   UNL     1       2.144   6.702 -20.968  0.00  0.00    +0.000 C 
ATOM     24  H   UNL     1       2.902   7.472 -21.170  0.00  0.00    +0.000 HD
ATOM     25  H   UNL     1       1.611   6.977 -20.047  0.00  0.00    +0.000 HD
BRANCH  23  26
ATOM     26  C   UNL     1       1.112   6.797 -22.071  0.00  0.00    +0.000 C 
ATOM     27  H   UNL     1       1.561   6.750 -23.069  0.00  0.00    +0.000 HD
ATOM     28  H   UNL     1       0.347   6.017 -22.002  0.00  0.00    +0.000 HD
ATOM     29  H   UNL     1       0.590   7.758 -22.003  0.00  0.00    +0.000 HD
ENDBRANCH  23  26
ENDBRANCH   6  23
TORSDOF 3
ENDMDL
MODEL 2
REMARK VINA RESULT:    -6.077      2.192      3.928
REMARK INTER + INTRA:          -7.216
REMARK INTER:                  -6.707
REMARK INTRA:                  -0.508
REMARK UNBOUND:                -0.251
REMARK  Name = 4763
REMARK  3 active torsions:
REMARK  status: ('A' for Active; 'I' for Inactive)
REMARK    1  A    between atoms: C_6  and  C_7
REMARK    2  A    between atoms: C_6  and  C_8
REMARK    3  A    between atoms: C_7  and  C_11
REMARK                            x       y       z     vdW  Elec       q    Type
REMARK                         _______ _______ _______ _____ _____    ______ ____
ROOT
ATOM      1  O   UNL     1       1.397   7.066 -22.430  0.00  0.00    +0.000 OA
ATOM      2  O   UNL     1       0.909   3.028 -19.893  0.00  0.00    +0.000 OA
ATOM      3  O   UNL     1      -0.128   7.119 -18.111  0.00  0.00    +0.000 OA
ATOM      4  N   UNL     1       0.676   7.062 -20.260  0.00  0.00    +0.000 N 
ATOM      5  N   UNL     1       0.435   5.089 -19.020  0.00  0.00    +0.000 N 
ATOM      6  C   UNL     1       1.476   4.946 -21.260  0.00  0.00    +0.000 C 
ATOM      7  C   UNL     1       1.176   6.442 -21.390  0.00  0.00    +0.000 C 
ATOM      8  C   UNL     1       0.910   4.254 -20.017  0.00  0.00    +0.000 C 
ATOM      9  C   UNL     1       0.305   6.468 -19.064  0.00  0.00    +0.000 C 
ATOM     10  H   UNL     1       0.534   8.066 -20.325  0.00  0.00    +0.000 HD
ATOM     11  H   UNL     1       0.115   4.634 -18.169  0.00  0.00    +0.000 HD
ENDROOT
BRANCH   6  12
ATOM     12  C   UNL     1       2.965   4.748 -21.287  0.00  0.00    +0.000 A 
ATOM     13  C   UNL     1       3.720   5.068 -20.165  0.00  0.00    +0.000 A 
ATOM     14  C   UNL     1       3.571   4.247 -22.432  0.00  0.00    +0.000 A 
ATOM     15  C   UNL     1       5.103   4.884 -20.190  0.00  0.00    +0.000 A 
ATOM     16  C   UNL     1       4.953   4.063 -22.456  0.00  0.00    +0.000 A 
ATOM     17  C   UNL     1       5.720   4.382 -21.335  0.00  0.00    +0.000 A 
ATOM     18  H   UNL     1       3.263   5.464 -19.263  0.00  0.00    +0.000 HD
ATOM     19  H   UNL     1       3.061   3.970 -23.346  0.00  0.00    +0.000 HD
ATOM     20  H   UNL     1       5.699   5.133 -19.316  0.00  0.00    +0.000 HD
ATOM     21  H   UNL     1       5.435   3.671 -23.348  0.00  0.00    +0.000 HD
ATOM     22  H   UNL     1       6.796   4.239 -21.354  0.00  0.00    +0.000 HD
ENDBRANCH   6  12
BRANCH   6  23
ATOM     23  C   UNL     1       0.864   4.250 -22.484  0.00  0.00    +0.000 C 
ATOM     24  H   UNL     1       1.043   3.166 -22.483  0.00  0.00    +0.000 HD
ATOM     25  H   UNL     1       1.243   4.661 -23.430  0.00  0.00    +0.000 HD
BRANCH  23  26
ATOM     26  C   UNL     1      -0.635   4.452 -22.532  0.00  0.00    +0.000 C 
ATOM     27  H   UNL     1      -1.033   4.860 -21.598  0.00  0.00    +0.000 HD
ATOM     28  H   UNL     1      -0.947   5.105 -23.353  0.00  0.00    +0.000 HD
ATOM     29  H   UNL     1      -1.129   3.486 -22.692  0.00  0.00    +0.000 HD
ENDBRANCH  23  26
ENDBRANCH   6  23
TORSDOF 3
ENDMDL
MODEL 3
REMARK VINA RESULT:    -5.948     21.701     24.034
REMARK INTER + INTRA:          -7.068
REMARK INTER:                  -6.538
REMARK INTRA:                  -0.530
REMARK UNBOUND:                -0.251
REMARK  Name = 4763
REMARK  3 active torsions:
REMARK  status: ('A' for Active; 'I' for Inactive)
REMARK    1  A    between atoms: C_6  and  C_7
REMARK    2  A    between atoms: C_6  and  C_8
REMARK    3  A    between atoms: C_7  and  C_11
REMARK                            x       y       z     vdW  Elec       q    Type
REMARK                         _______ _______ _______ _____ _____    ______ ____
ROOT
ATOM      1  O   UNL     1      17.445   7.505  -2.132  0.00  0.00    +0.000 OA
ATOM      2  O   UNL     1      12.941   7.377  -0.495  0.00  0.00    +0.000 OA
ATOM      3  O   UNL     1      15.740  10.876   0.461  0.00  0.00    +0.000 OA
ATOM      4  N   UNL     1      16.577   9.152  -0.804  0.00  0.00    +0.000 N 
ATOM      5  N   UNL     1      14.375   9.091  -0.005  0.00  0.00    +0.000 N 
ATOM      6  C   UNL     1      15.241   7.109  -1.206  0.00  0.00    +0.000 C 
ATOM      7  C   UNL     1      16.514   7.927  -1.442  0.00  0.00    +0.000 C 
ATOM      8  C   UNL     1      14.075   7.857  -0.556  0.00  0.00    +0.000 C 
ATOM      9  C   UNL     1      15.577   9.777  -0.073  0.00  0.00    +0.000 C 
ATOM     10  H   UNL     1      17.445   9.669  -0.908  0.00  0.00    +0.000 HD
ATOM     11  H   UNL     1      13.616   9.563   0.481  0.00  0.00    +0.000 HD
ENDROOT
BRANCH   6  12
ATOM     12  C   UNL     1      15.583   5.917  -0.357  0.00  0.00    +0.000 A 
ATOM     13  C   UNL     1      16.078   6.109   0.927  0.00  0.00    +0.000 A 
ATOM     14  C   UNL     1      15.400   4.637  -0.865  0.00  0.00    +0.000 A 
ATOM     15  C   UNL     1      16.395   5.002   1.715  0.00  0.00    +0.000 A 
ATOM     16  C   UNL     1      15.717   3.531  -0.077  0.00  0.00    +0.000 A 
ATOM     17  C   UNL     1      16.215   3.714   1.214  0.00  0.00    +0.000 A 
ATOM     18  H   UNL     1      16.230   7.102   1.338  0.00  0.00    +0.000 HD
ATOM     19  H   UNL     1      15.019   4.397  -1.849  0.00  0.00    +0.000 HD
ATOM     20  H   UNL     1      16.784   5.145   2.720  0.00  0.00    +0.000 HD
ATOM     21  H   UNL     1      15.576   2.527  -0.465  0.00  0.00    +0.000 HD
ATOM     22  H   UNL     1      16.462   2.853   1.827  0.00  0.00    +0.000 HD
ENDBRANCH   6  12
BRANCH   6  23
ATOM     23  C   UNL     1      14.757   6.616  -2.576  0.00  0.00    +0.000 C 
ATOM     24  H   UNL     1      13.827   6.034  -2.507  0.00  0.00    +0.000 HD
ATOM     25  H   UNL     1      15.510   6.001  -3.089  0.00  0.00    +0.000 HD
BRANCH  23  26
ATOM     26  C   UNL     1      14.486   7.777  -3.509  0.00  0.00    +0.000 C 
ATOM     27  H   UNL     1      13.533   8.271  -3.295  0.00  0.00    +0.000 HD
ATOM     28  H   UNL     1      15.278   8.532  -3.485  0.00  0.00    +0.000 HD
ATOM     29  H   UNL     1      14.429   7.412  -4.541  0.00  0.00    +0.000 HD
ENDBRANCH  23  26
ENDBRANCH   6  23
TORSDOF 3
ENDMDL
MODEL 4
REMARK VINA RESULT:    -5.946     24.902     26.623
REMARK INTER + INTRA:          -7.066
REMARK INTER:                  -6.539
REMARK INTRA:                  -0.527
REMARK UNBOUND:                -0.251
REMARK  Name = 4763
REMARK  3 active torsions:
REMARK  status: ('A' for Active; 'I' for Inactive)
REMARK    1  A    between atoms: C_6  and  C_7
REMARK    2  A    between atoms: C_6  and  C_8
REMARK    3  A    between atoms: C_7  and  C_11
REMARK                            x       y       z     vdW  Elec       q    Type
REMARK                         _______ _______ _______ _____ _____    ______ ____
ROOT
ATOM      1  O   UNL     1     -14.743  -3.010  -4.239  0.00  0.00    +0.000 OA
ATOM      2  O   UNL     1     -14.631  -7.394  -6.175  0.00  0.00    +0.000 OA
ATOM      3  O   UNL     1     -15.234  -3.652  -8.748  0.00  0.00    +0.000 OA
ATOM      4  N   UNL     1     -15.024  -3.367  -6.480  0.00  0.00    +0.000 N 
ATOM      5  N   UNL     1     -14.967  -5.510  -7.427  0.00  0.00    +0.000 N 
ATOM      6  C   UNL     1     -14.912  -5.317  -4.961  0.00  0.00    +0.000 C 
ATOM      7  C   UNL     1     -14.871  -3.801  -5.176  0.00  0.00    +0.000 C 
ATOM      8  C   UNL     1     -14.809  -6.176  -6.224  0.00  0.00    +0.000 C 
ATOM      9  C   UNL     1     -15.092  -4.144  -7.627  0.00  0.00    +0.000 C 
ATOM     10  H   UNL     1     -15.059  -2.361  -6.618  0.00  0.00    +0.000 HD
ATOM     11  H   UNL     1     -14.960  -6.087  -8.264  0.00  0.00    +0.000 HD
ENDROOT
BRANCH   6  12
ATOM     12  C   UNL     1     -16.184  -5.668  -4.241  0.00  0.00    +0.000 A 
ATOM     13  C   UNL     1     -16.124  -6.146  -2.938  0.00  0.00    +0.000 A 
ATOM     14  C   UNL     1     -17.404  -5.509  -4.885  0.00  0.00    +0.000 A 
ATOM     15  C   UNL     1     -17.304  -6.472  -2.269  0.00  0.00    +0.000 A 
ATOM     16  C   UNL     1     -18.583  -5.835  -4.216  0.00  0.00    +0.000 A 
ATOM     17  C   UNL     1     -18.534  -6.316  -2.907  0.00  0.00    +0.000 A 
ATOM     18  H   UNL     1     -15.178  -6.279  -2.421  0.00  0.00    +0.000 HD
ATOM     19  H   UNL     1     -17.542  -5.142  -5.893  0.00  0.00    +0.000 HD
ATOM     20  H   UNL     1     -17.265  -6.847  -1.250  0.00  0.00    +0.000 HD
ATOM     21  H   UNL     1     -19.542  -5.713  -4.712  0.00  0.00    +0.000 HD
ATOM     22  H   UNL     1     -19.453  -6.569  -2.387  0.00  0.00    +0.000 HD
ENDBRANCH   6  12
BRANCH   6  23
ATOM     23  C   UNL     1     -13.721  -5.682  -4.066  0.00  0.00    +0.000 C 
ATOM     24  H   UNL     1     -13.660  -6.761  -3.870  0.00  0.00    +0.000 HD
ATOM     25  H   UNL     1     -13.748  -5.158  -3.100  0.00  0.00    +0.000 HD
BRANCH  23  26
ATOM     26  C   UNL     1     -12.412  -5.273  -4.706  0.00  0.00    +0.000 C 
ATOM     27  H   UNL     1     -12.235  -5.782  -5.658  0.00  0.00    +0.000 HD
ATOM     28  H   UNL     1     -12.344  -4.194  -4.876  0.00  0.00    +0.000 HD
ATOM     29  H   UNL     1     -11.581  -5.541  -4.043  0.00  0.00    +0.000 HD
ENDBRANCH  23  26
ENDBRANCH   6  23
TORSDOF 3
ENDMDL
MODEL 5
REMARK VINA RESULT:    -5.819     18.517     19.739
REMARK INTER + INTRA:          -6.920
REMARK INTER:                  -6.676
REMARK INTRA:                  -0.245
REMARK UNBOUND:                -0.251
REMARK  Name = 4763
REMARK  3 active torsions:
REMARK  status: ('A' for Active; 'I' for Inactive)
REMARK    1  A    between atoms: C_6  and  C_7
REMARK    2  A    between atoms: C_6  and  C_8
REMARK    3  A    between atoms: C_7  and  C_11
REMARK                            x       y       z     vdW  Elec       q    Type
REMARK                         _______ _______ _______ _____ _____    ______ ____
ROOT
ATOM      1  O   UNL     1       9.806  18.590 -11.823  0.00  0.00    +0.000 OA
ATOM      2  O   UNL     1      13.150  21.960 -11.156  0.00  0.00    +0.000 OA
ATOM      3  O   UNL     1      10.346  22.048 -14.779  0.00  0.00    +0.000 OA
ATOM      4  N   UNL     1      10.127  20.306 -13.300  0.00  0.00    +0.000 N 
ATOM      5  N   UNL     1      11.759  21.956 -12.973  0.00  0.00    +0.000 N 
ATOM      6  C   UNL     1      11.718  20.025 -11.426  0.00  0.00    +0.000 C 
ATOM      7  C   UNL     1      10.462  19.572 -12.177  0.00  0.00    +0.000 C 
ATOM      8  C   UNL     1      12.273  21.398 -11.815  0.00  0.00    +0.000 C 
ATOM      9  C   UNL     1      10.724  21.472 -13.757  0.00  0.00    +0.000 C 
ATOM     10  H   UNL     1       9.331  19.971 -13.835  0.00  0.00    +0.000 HD
ATOM     11  H   UNL     1      12.170  22.838 -13.267  0.00  0.00    +0.000 HD
ENDROOT
BRANCH   6  12
ATOM     12  C   UNL     1      12.795  18.996 -11.622  0.00  0.00    +0.000 A 
ATOM     13  C   UNL     1      13.723  19.159 -12.643  0.00  0.00    +0.000 A 
ATOM     14  C   UNL     1      12.852  17.893 -10.780  0.00  0.00    +0.000 A 
ATOM     15  C   UNL     1      14.723  18.204 -12.825  0.00  0.00    +0.000 A 
ATOM     16  C   UNL     1      13.852  16.938 -10.961  0.00  0.00    +0.000 A 
ATOM     17  C   UNL     1      14.788  17.093 -11.985  0.00  0.00    +0.000 A 
ATOM     18  H   UNL     1      13.691  20.014 -13.312  0.00  0.00    +0.000 HD
ATOM     19  H   UNL     1      12.174  17.688  -9.961  0.00  0.00    +0.000 HD
ATOM     20  H   UNL     1      15.452  18.325 -13.622  0.00  0.00    +0.000 HD
ATOM     21  H   UNL     1      13.904  16.072 -10.307  0.00  0.00    +0.000 HD
ATOM     22  H   UNL     1      15.567  16.350 -12.125  0.00  0.00    +0.000 HD
ENDBRANCH   6  12
BRANCH   6  23
ATOM     23  C   UNL     1      11.359  20.086  -9.935  0.00  0.00    +0.000 C 
ATOM     24  H   UNL     1      12.235  20.285  -9.302  0.00  0.00    +0.000 HD
ATOM     25  H   UNL     1      10.883  19.161  -9.582  0.00  0.00    +0.000 HD
BRANCH  23  26
ATOM     26  C   UNL     1      10.354  21.184  -9.661  0.00  0.00    +0.000 C 
ATOM     27  H   UNL     1      10.682  21.862  -8.867  0.00  0.00    +0.000 HD
ATOM     28  H   UNL     1      10.126  21.780 -10.550  0.00  0.00    +0.000 HD
ATOM     29  H   UNL     1       9.409  20.740  -9.328  0.00  0.00    +0.000 HD
ENDBRANCH  23  26
ENDBRANCH   6  23
TORSDOF 3
ENDMDL
MODEL 6
REMARK VINA RESULT:    -5.773      2.485      4.811
REMARK INTER + INTRA:          -6.867
REMARK INTER:                  -6.360
REMARK INTRA:                  -0.507
REMARK UNBOUND:                -0.251
REMARK  Name = 4763
REMARK  3 active torsions:
REMARK  status: ('A' for Active; 'I' for Inactive)
REMARK    1  A    between atoms: C_6  and  C_7
REMARK    2  A    between atoms: C_6  and  C_8
REMARK    3  A    between atoms: C_7  and  C_11
REMARK                            x       y       z     vdW  Elec       q    Type
REMARK                         _______ _______ _______ _____ _____    ______ ____
ROOT
ATOM      1  O   UNL     1      -0.278   3.144 -21.267  0.00  0.00    +0.000 OA
ATOM      2  O   UNL     1       3.998   5.279 -20.901  0.00  0.00    +0.000 OA
ATOM      3  O   UNL     1       0.452   6.552 -18.294  0.00  0.00    +0.000 OA
ATOM      4  N   UNL     1       0.107   4.873 -19.822  0.00  0.00    +0.000 N 
ATOM      5  N   UNL     1       2.198   5.916 -19.640  0.00  0.00    +0.000 N 
ATOM      6  C   UNL     1       1.874   4.243 -21.435  0.00  0.00    +0.000 C 
ATOM      7  C   UNL     1       0.481   4.017 -20.841  0.00  0.00    +0.000 C 
ATOM      8  C   UNL     1       2.798   5.172 -20.642  0.00  0.00    +0.000 C 
ATOM      9  C   UNL     1       0.888   5.834 -19.196  0.00  0.00    +0.000 C 
ATOM     10  H   UNL     1      -0.839   4.766 -19.469  0.00  0.00    +0.000 HD
ATOM     11  H   UNL     1       2.797   6.578 -19.153  0.00  0.00    +0.000 HD
ENDROOT
BRANCH   6  12
ATOM     12  C   UNL     1       1.723   4.787 -22.828  0.00  0.00    +0.000 A 
ATOM     13  C   UNL     1       1.965   3.960 -23.917  0.00  0.00    +0.000 A 
ATOM     14  C   UNL     1       1.341   6.110 -23.010  0.00  0.00    +0.000 A 
ATOM     15  C   UNL     1       1.824   4.464 -25.210  0.00  0.00    +0.000 A 
ATOM     16  C   UNL     1       1.201   6.614 -24.303  0.00  0.00    +0.000 A 
ATOM     17  C   UNL     1       1.442   5.791 -25.404  0.00  0.00    +0.000 A 
ATOM     18  H   UNL     1       2.267   2.924 -23.792  0.00  0.00    +0.000 HD
ATOM     19  H   UNL     1       1.131   6.821 -22.222  0.00  0.00    +0.000 HD
ATOM     20  H   UNL     1       2.013   3.823 -26.067  0.00  0.00    +0.000 HD
ATOM     21  H   UNL     1       0.902   7.648 -24.455  0.00  0.00    +0.000 HD
ATOM     22  H   UNL     1       1.332   6.184 -26.410  0.00  0.00    +0.000 HD
ENDBRANCH   6  12
BRANCH   6  23
ATOM     23  C   UNL     1       2.564   2.875 -21.511  0.00  0.00    +0.000 C 
ATOM     24  H   UNL     1       3.541   2.926 -22.013  0.00  0.00    +0.000 HD
ATOM     25  H   UNL     1       1.950   2.126 -22.032  0.00  0.00    +0.000 HD
BRANCH  23  26
ATOM     26  C   UNL     1       2.804   2.306 -20.130  0.00  0.00    +0.000 C 
ATOM     27  H   UNL     1       3.339   3.003 -19.478  0.00  0.00    +0.000 HD
ATOM     28  H   UNL     1       1.877   2.010 -19.628  0.00  0.00    +0.000 HD
ATOM     29  H   UNL     1       3.422   1.405 -20.207  0.00  0.00    +0.000 HD
ENDBRANCH  23  26
ENDBRANCH   6  23
TORSDOF 3
ENDMDL
MODEL 7
REMARK VINA RESULT:    -5.748     22.709     24.161
REMARK INTER + INTRA:          -6.839
REMARK INTER:                  -6.469
REMARK INTRA:                  -0.370
REMARK UNBOUND:                -0.251
REMARK  Name = 4763
REMARK  3 active torsions:
REMARK  status: ('A' for Active; 'I' for Inactive)
REMARK    1  A    between atoms: C_6  and  C_7
REMARK    2  A    between atoms: C_6  and  C_8
REMARK    3  A    between atoms: C_7  and  C_11
REMARK                            x       y       z     vdW  Elec       q    Type
REMARK                         _______ _______ _______ _____ _____    ______ ____
ROOT
ATOM      1  O   UNL     1      17.495   6.654   0.851  0.00  0.00    +0.000 OA
ATOM      2  O   UNL     1      14.083   7.502  -2.408  0.00  0.00    +0.000 OA
ATOM      3  O   UNL     1      14.808  10.356   1.102  0.00  0.00    +0.000 OA
ATOM      4  N   UNL     1      16.112   8.471   0.970  0.00  0.00    +0.000 N 
ATOM      5  N   UNL     1      14.446   8.888  -0.624  0.00  0.00    +0.000 N 
ATOM      6  C   UNL     1      15.677   6.745  -0.748  0.00  0.00    +0.000 C 
ATOM      7  C   UNL     1      16.523   7.274   0.413  0.00  0.00    +0.000 C 
ATOM      8  C   UNL     1      14.676   7.733  -1.352  0.00  0.00    +0.000 C 
ATOM      9  C   UNL     1      15.097   9.305   0.526  0.00  0.00    +0.000 C 
ATOM     10  H   UNL     1      16.634   8.793   1.780  0.00  0.00    +0.000 HD
ATOM     11  H   UNL     1      13.737   9.517  -0.992  0.00  0.00    +0.000 HD
ENDROOT
BRANCH   6  12
ATOM     12  C   UNL     1      14.932   5.525  -0.286  0.00  0.00    +0.000 A 
ATOM     13  C   UNL     1      13.699   5.669   0.338  0.00  0.00    +0.000 A 
ATOM     14  C   UNL     1      15.483   4.266  -0.489  0.00  0.00    +0.000 A 
ATOM     15  C   UNL     1      13.007   4.536   0.766  0.00  0.00    +0.000 A 
ATOM     16  C   UNL     1      14.791   3.134  -0.060  0.00  0.00    +0.000 A 
ATOM     17  C   UNL     1      13.552   3.268   0.568  0.00  0.00    +0.000 A 
ATOM     18  H   UNL     1      13.256   6.646   0.507  0.00  0.00    +0.000 HD
ATOM     19  H   UNL     1      16.433   4.062  -0.966  0.00  0.00    +0.000 HD
ATOM     20  H   UNL     1      12.042   4.642   1.256  0.00  0.00    +0.000 HD
ATOM     21  H   UNL     1      15.214   2.145  -0.215  0.00  0.00    +0.000 HD
ATOM     22  H   UNL     1      13.014   2.387   0.901  0.00  0.00    +0.000 HD
ENDBRANCH   6  12
BRANCH   6  23
ATOM     23  C   UNL     1      16.645   6.338  -1.868  0.00  0.00    +0.000 C 
ATOM     24  H   UNL     1      16.133   5.840  -2.703  0.00  0.00    +0.000 HD
ATOM     25  H   UNL     1      17.443   5.673  -1.508  0.00  0.00    +0.000 HD
BRANCH  23  26
ATOM     26  C   UNL     1      17.356   7.545  -2.440  0.00  0.00    +0.000 C 
ATOM     27  H   UNL     1      18.388   7.323  -2.731  0.00  0.00    +0.000 HD
ATOM     28  H   UNL     1      16.839   7.969  -3.306  0.00  0.00    +0.000 HD
ATOM     29  H   UNL     1      17.404   8.335  -1.682  0.00  0.00    +0.000 HD
ENDBRANCH  23  26
ENDBRANCH   6  23
TORSDOF 3
ENDMDL
MODEL 8
REMARK VINA RESULT:    -5.685     37.098     38.950
REMARK INTER + INTRA:          -6.766
REMARK INTER:                  -6.516
REMARK INTRA:                  -0.251
REMARK UNBOUND:                -0.251
REMARK  Name = 4763
REMARK  3 active torsions:
REMARK  status: ('A' for Active; 'I' for Inactive)
REMARK    1  A    between atoms: C_6  and  C_7
REMARK    2  A    between atoms: C_6  and  C_8
REMARK    3  A    between atoms: C_7  and  C_11
REMARK                            x       y       z     vdW  Elec       q    Type
REMARK                         _______ _______ _______ _____ _____    ______ ____
ROOT
ATOM      1  O   UNL     1      -8.058  14.381  15.816  0.00  0.00    +0.000 OA
ATOM      2  O   UNL     1      -6.578   9.887  15.046  0.00  0.00    +0.000 OA
ATOM      3  O   UNL     1     -10.162  10.800  17.751  0.00  0.00    +0.000 OA
ATOM      4  N   UNL     1      -9.062  12.575  16.798  0.00  0.00    +0.000 N 
ATOM      5  N   UNL     1      -8.341  10.378  16.420  0.00  0.00    +0.000 N 
ATOM      6  C   UNL     1      -6.986  12.232  15.496  0.00  0.00    +0.000 C 
ATOM      7  C   UNL     1      -8.076  13.167  16.030  0.00  0.00    +0.000 C 
ATOM      8  C   UNL     1      -7.274  10.733  15.611  0.00  0.00    +0.000 C 
ATOM      9  C   UNL     1      -9.245  11.223  17.043  0.00  0.00    +0.000 C 
ATOM     10  H   UNL     1      -9.751  13.202  17.204  0.00  0.00    +0.000 HD
ATOM     11  H   UNL     1      -8.496   9.381  16.546  0.00  0.00    +0.000 HD
ENDROOT
BRANCH   6  12
ATOM     12  C   UNL     1      -5.699  12.532  16.212  0.00  0.00    +0.000 A 
ATOM     13  C   UNL     1      -5.733  12.957  17.534  0.00  0.00    +0.000 A 
ATOM     14  C   UNL     1      -4.491  12.380  15.544  0.00  0.00    +0.000 A 
ATOM     15  C   UNL     1      -4.538  13.236  18.198  0.00  0.00    +0.000 A 
ATOM     16  C   UNL     1      -3.297  12.659  16.208  0.00  0.00    +0.000 A 
ATOM     17  C   UNL     1      -3.320  13.087  17.537  0.00  0.00    +0.000 A 
ATOM     18  H   UNL     1      -6.669  13.084  18.069  0.00  0.00    +0.000 HD
ATOM     19  H   UNL     1      -4.373  12.053  14.519  0.00  0.00    +0.000 HD
ATOM     20  H   UNL     1      -4.557  13.570  19.232  0.00  0.00    +0.000 HD
ATOM     21  H   UNL     1      -2.347  12.542  15.694  0.00  0.00    +0.000 HD
ATOM     22  H   UNL     1      -2.390  13.303  18.053  0.00  0.00    +0.000 HD
ENDBRANCH   6  12
BRANCH   6  23
ATOM     23  C   UNL     1      -6.807  12.546  14.005  0.00  0.00    +0.000 C 
ATOM     24  H   UNL     1      -5.987  11.972  13.552  0.00  0.00    +0.000 HD
ATOM     25  H   UNL     1      -6.620  13.614  13.823  0.00  0.00    +0.000 HD
BRANCH  23  26
ATOM     26  C   UNL     1      -8.061  12.221  13.224  0.00  0.00    +0.000 C 
ATOM     27  H   UNL     1      -8.672  13.107  13.025  0.00  0.00    +0.000 HD
ATOM     28  H   UNL     1      -7.849  11.729  12.269  0.00  0.00    +0.000 HD
ATOM     29  H   UNL     1      -8.685  11.530  13.803  0.00  0.00    +0.000 HD
ENDBRANCH  23  26
ENDBRANCH   6  23
TORSDOF 3
ENDMDL
MODEL 9
REMARK VINA RESULT:    -5.653     22.307     24.175
REMARK INTER + INTRA:          -6.730
REMARK INTER:                  -6.193
REMARK INTRA:                  -0.537
REMARK UNBOUND:                -0.251
REMARK  Name = 4763
REMARK  3 active torsions:
REMARK  status: ('A' for Active; 'I' for Inactive)
REMARK    1  A    between atoms: C_6  and  C_7
REMARK    2  A    between atoms: C_6  and  C_8
REMARK    3  A    between atoms: C_7  and  C_11
REMARK                            x       y       z     vdW  Elec       q    Type
REMARK                         _______ _______ _______ _____ _____    ______ ____
ROOT
ATOM      1  O   UNL     1      16.383   6.176   1.692  0.00  0.00    +0.000 OA
ATOM      2  O   UNL     1      12.054   7.932   0.617  0.00  0.00    +0.000 OA
ATOM      3  O   UNL     1      12.650   3.521   1.705  0.00  0.00    +0.000 OA
ATOM      4  N   UNL     1      14.507   4.869   1.651  0.00  0.00    +0.000 N 
ATOM      5  N   UNL     1      12.390   5.727   1.129  0.00  0.00    +0.000 N 
ATOM      6  C   UNL     1      14.353   7.211   0.869  0.00  0.00    +0.000 C 
ATOM      7  C   UNL     1      15.180   6.060   1.449  0.00  0.00    +0.000 C 
ATOM      8  C   UNL     1      12.835   7.012   0.868  0.00  0.00    +0.000 C 
ATOM      9  C   UNL     1      13.150   4.629   1.501  0.00  0.00    +0.000 C 
ATOM     10  H   UNL     1      15.067   4.086   1.977  0.00  0.00    +0.000 HD
ATOM     11  H   UNL     1      11.386   5.579   1.068  0.00  0.00    +0.000 HD
ENDROOT
BRANCH   6  12
ATOM     12  C   UNL     1      14.807   7.469  -0.540  0.00  0.00    +0.000 A 
ATOM     13  C   UNL     1      15.390   8.689  -0.860  0.00  0.00    +0.000 A 
ATOM     14  C   UNL     1      14.641   6.485  -1.506  0.00  0.00    +0.000 A 
ATOM     15  C   UNL     1      15.812   8.928  -2.168  0.00  0.00    +0.000 A 
ATOM     16  C   UNL     1      15.062   6.724  -2.813  0.00  0.00    +0.000 A 
ATOM     17  C   UNL     1      15.648   7.947  -3.145  0.00  0.00    +0.000 A 
ATOM     18  H   UNL     1      15.525   9.470  -0.118  0.00  0.00    +0.000 HD
ATOM     19  H   UNL     1      14.201   5.510  -1.344  0.00  0.00    +0.000 HD
ATOM     20  H   UNL     1      16.268   9.880  -2.426  0.00  0.00    +0.000 HD
ATOM     21  H   UNL     1      14.936   5.960  -3.575  0.00  0.00    +0.000 HD
ATOM     22  H   UNL     1      15.977   8.133  -4.163  0.00  0.00    +0.000 HD
ENDBRANCH   6  12
BRANCH   6  23
ATOM     23  C   UNL     1      14.647   8.455   1.718  0.00  0.00    +0.000 C 
ATOM     24  H   UNL     1      14.112   9.344   1.357  0.00  0.00    +0.000 HD
ATOM     25  H   UNL     1      15.720   8.691   1.755  0.00  0.00    +0.000 HD
BRANCH  23  26
ATOM     26  C   UNL     1      14.234   8.243   3.158  0.00  0.00    +0.000 C 
ATOM     27  H   UNL     1      13.311   7.662   3.247  0.00  0.00    +0.000 HD
ATOM     28  H   UNL     1      15.009   7.749   3.752  0.00  0.00    +0.000 HD
ATOM     29  H   UNL     1      14.044   9.214   3.632  0.00  0.00    +0.000 HD
ENDBRANCH  23  26
ENDBRANCH   6  23
TORSDOF 3
ENDMDL
MODEL 10
REMARK VINA RESULT:    -5.531     22.839     24.627
REMARK INTER + INTRA:          -6.590
REMARK INTER:                  -6.055
REMARK INTRA:                  -0.535
REMARK UNBOUND:                -0.251
REMARK  Name = 4763
REMARK  3 active torsions:
REMARK  status: ('A' for Active; 'I' for Inactive)
REMARK    1  A    between atoms: C_6  and  C_7
REMARK    2  A    between atoms: C_6  and  C_8
REMARK    3  A    between atoms: C_7  and  C_11
REMARK                            x       y       z     vdW  Elec       q    Type
REMARK                         _______ _______ _______ _____ _____    ______ ____
ROOT
ATOM      1  O   UNL     1     -13.829  -6.615  -7.170  0.00  0.00    +0.000 OA
ATOM      2  O   UNL     1     -14.343  -2.707  -4.442  0.00  0.00    +0.000 OA
ATOM      3  O   UNL     1     -17.796  -5.646  -5.094  0.00  0.00    +0.000 OA
ATOM      4  N   UNL     1     -15.806  -6.083  -6.153  0.00  0.00    +0.000 N 
ATOM      5  N   UNL     1     -16.058  -4.174  -4.817  0.00  0.00    +0.000 N 
ATOM      6  C   UNL     1     -13.937  -4.465  -6.058  0.00  0.00    +0.000 C 
ATOM      7  C   UNL     1     -14.496  -5.819  -6.505  0.00  0.00    +0.000 C 
ATOM      8  C   UNL     1     -14.773  -3.703  -5.027  0.00  0.00    +0.000 C 
ATOM      9  C   UNL     1     -16.634  -5.319  -5.344  0.00  0.00    +0.000 C 
ATOM     10  H   UNL     1     -16.199  -6.953  -6.501  0.00  0.00    +0.000 HD
ATOM     11  H   UNL     1     -16.636  -3.634  -4.178  0.00  0.00    +0.000 HD
ENDROOT
BRANCH   6  12
ATOM     12  C   UNL     1     -13.754  -3.595  -7.269  0.00  0.00    +0.000 A 
ATOM     13  C   UNL     1     -14.859  -3.238  -8.031  0.00  0.00    +0.000 A 
ATOM     14  C   UNL     1     -12.482  -3.156  -7.613  0.00  0.00    +0.000 A 
ATOM     15  C   UNL     1     -14.689  -2.430  -9.155  0.00  0.00    +0.000 A 
ATOM     16  C   UNL     1     -12.312  -2.348  -8.737  0.00  0.00    +0.000 A 
ATOM     17  C   UNL     1     -13.416  -1.984  -9.509  0.00  0.00    +0.000 A 
ATOM     18  H   UNL     1     -15.860  -3.575  -7.779  0.00  0.00    +0.000 HD
ATOM     19  H   UNL     1     -11.570  -3.383  -7.077  0.00  0.00    +0.000 HD
ATOM     20  H   UNL     1     -15.549  -2.147  -9.757  0.00  0.00    +0.000 HD
ATOM     21  H   UNL     1     -11.320  -1.999  -9.013  0.00  0.00    +0.000 HD
ATOM     22  H   UNL     1     -13.283  -1.355 -10.383  0.00  0.00    +0.000 HD
ENDBRANCH   6  12
BRANCH   6  23
ATOM     23  C   UNL     1     -12.564  -4.726  -5.425  0.00  0.00    +0.000 C 
ATOM     24  H   UNL     1     -12.074  -3.801  -5.091  0.00  0.00    +0.000 HD
ATOM     25  H   UNL     1     -11.881  -5.248  -6.110  0.00  0.00    +0.000 HD
BRANCH  23  26
ATOM     26  C   UNL     1     -12.683  -5.627  -4.215  0.00  0.00    +0.000 C 
ATOM     27  H   UNL     1     -11.771  -6.205  -4.033  0.00  0.00    +0.000 HD
ATOM     28  H   UNL     1     -12.929  -5.077  -3.302  0.00  0.00    +0.000 HD
ATOM     29  H   UNL     1     -13.490  -6.351  -4.375  0.00  0.00    +0.000 HD
ENDBRANCH  23  26
ENDBRANCH   6  23
TORSDOF 3
ENDMDL
