MODEL 1
REMARK VINA RESULT:    -4.181      0.000      0.000
REMARK INTER + INTRA:          -5.735
REMARK INTER:                  -5.384
REMARK INTRA:                  -0.351
REMARK UNBOUND:                -0.210
REMARK  Name = 8130
REMARK  6 active torsions:
REMARK  status: ('A' for Active; 'I' for Inactive)
REMARK    1  A    between atoms: C_2  and  C_3
REMARK    2  A    between atoms: C_2  and  C_4
REMARK    3  A    between atoms: C_3  and  C_5
REMARK    4  A    between atoms: C_4  and  C_6
REMARK    5  A    between atoms: C_5  and  C_7
REMARK    6  A    between atoms: C_6  and  C_8
REMARK                            x       y       z     vdW  Elec       q    Type
REMARK                         _______ _______ _______ _____ _____    ______ ____
ROOT
ATOM      1  C   UNL     1       0.484  -5.300  -7.847  0.00  0.00    +0.000 C 
ATOM      2  H   UNL     1      -0.444  -4.989  -7.353  0.00  0.00    +0.000 HD
ATOM      3  H   UNL     1       0.254  -6.203  -8.426  0.00  0.00    +0.000 HD
ENDROOT
BRANCH   1   4
ATOM      4  C   UNL     1       0.963  -4.195  -8.791  0.00  0.00    +0.000 C 
ATOM      5  H   UNL     1       0.517  -4.337  -9.782  0.00  0.00    +0.000 HD
ATOM      6  H   UNL     1       2.051  -4.264  -8.911  0.00  0.00    +0.000 HD
BRANCH   4   7
ATOM      7  C   UNL     1       0.591  -2.810  -8.259  0.00  0.00    +0.000 C 
ATOM      8  H   UNL     1       1.340  -2.477  -7.532  0.00  0.00    +0.000 HD
ATOM      9  H   UNL     1       0.590  -2.083  -9.081  0.00  0.00    +0.000 HD
BRANCH   7  10
ATOM     10  C   UNL     1      -0.779  -2.816  -7.599  0.00  0.00    +0.000 C 
ATOM     11  H   UNL     1      -0.936  -1.886  -7.043  0.00  0.00    +0.000 HD
ATOM     12  H   UNL     1      -0.873  -3.651  -6.898  0.00  0.00    +0.000 HD
ATOM     13  H   UNL     1      -1.574  -2.902  -8.346  0.00  0.00    +0.000 HD
ENDBRANCH   7  10
ENDBRANCH   4   7
ENDBRANCH   1   4
BRANCH   1  14
ATOM     14  C   UNL     1       1.542  -5.626  -6.791  0.00  0.00    +0.000 C 
ATOM     15  H   UNL     1       2.464  -5.072  -7.016  0.00  0.00    +0.000 HD
ATOM     16  H   UNL     1       1.797  -6.692  -6.853  0.00  0.00    +0.000 HD
BRANCH  14  17
ATOM     17  C   UNL     1       1.075  -5.294  -5.378  0.00  0.00    +0.000 C 
ATOM     18  H   UNL     1       1.105  -4.215  -5.202  0.00  0.00    +0.000 HD
ATOM     19  H   UNL     1       1.718  -5.783  -4.638  0.00  0.00    +0.000 HD
BRANCH  17  21
ATOM     20  O   UNL     1      -1.220  -5.040  -4.690  0.00  0.00    +0.000 OA
ATOM     21  C   UNL     1      -0.337  -5.762  -5.141  0.00  0.00    +0.000 C 
ATOM     22  H   UNL     1      -0.536  -6.820  -5.389  0.00  0.00    +0.000 HD
ENDBRANCH  17  21
ENDBRANCH  14  17
ENDBRANCH   1  14
TORSDOF 6
ENDMDL
MODEL 2
REMARK VINA RESULT:    -3.860      1.388      2.129
REMARK INTER + INTRA:          -5.311
REMARK INTER:                  -5.182
REMARK INTRA:                  -0.129
REMARK UNBOUND:                -0.210
REMARK  Name = 8130
REMARK  6 active torsions:
REMARK  status: ('A' for Active; 'I' for Inactive)
REMARK    1  A    between atoms: C_2  and  C_3
REMARK    2  A    between atoms: C_2  and  C_4
REMARK    3  A    between atoms: C_3  and  C_5
REMARK    4  A    between atoms: C_4  and  C_6
REMARK    5  A    between atoms: C_5  and  C_7
REMARK    6  A    between atoms: C_6  and  C_8
REMARK                            x       y       z     vdW  Elec       q    Type
REMARK                         _______ _______ _______ _____ _____    ______ ____
ROOT
ATOM      1  C   UNL     1      -0.250  -3.547  -7.849  0.00  0.00    +0.000 C 
ATOM      2  H   UNL     1      -0.851  -3.582  -6.933  0.00  0.00    +0.000 HD
ATOM      3  H   UNL     1      -0.892  -3.143  -8.642  0.00  0.00    +0.000 HD
ENDROOT
BRANCH   1   4
ATOM      4  C   UNL     1       0.953  -2.625  -7.645  0.00  0.00    +0.000 C 
ATOM      5  H   UNL     1       1.779  -2.946  -8.291  0.00  0.00    +0.000 HD
ATOM      6  H   UNL     1       1.302  -2.705  -6.608  0.00  0.00    +0.000 HD
BRANCH   4   7
ATOM      7  C   UNL     1       0.598  -1.171  -7.957  0.00  0.00    +0.000 C 
ATOM      8  H   UNL     1      -0.358  -1.127  -8.490  0.00  0.00    +0.000 HD
ATOM      9  H   UNL     1       0.475  -0.608  -7.023  0.00  0.00    +0.000 HD
BRANCH   7  10
ATOM     10  C   UNL     1       1.674  -0.504  -8.800  0.00  0.00    +0.000 C 
ATOM     11  H   UNL     1       2.657  -0.925  -8.563  0.00  0.00    +0.000 HD
ATOM     12  H   UNL     1       1.711   0.573  -8.609  0.00  0.00    +0.000 HD
ATOM     13  H   UNL     1       1.488  -0.658  -9.868  0.00  0.00    +0.000 HD
ENDBRANCH   7  10
ENDBRANCH   4   7
ENDBRANCH   1   4
BRANCH   1  14
ATOM     14  C   UNL     1       0.193  -4.963  -8.225  0.00  0.00    +0.000 C 
ATOM     15  H   UNL     1       1.289  -5.025  -8.183  0.00  0.00    +0.000 HD
ATOM     16  H   UNL     1      -0.091  -5.167  -9.265  0.00  0.00    +0.000 HD
BRANCH  14  17
ATOM     17  C   UNL     1      -0.416  -6.024  -7.314  0.00  0.00    +0.000 C 
ATOM     18  H   UNL     1       0.302  -6.826  -7.117  0.00  0.00    +0.000 HD
ATOM     19  H   UNL     1      -1.305  -6.463  -7.778  0.00  0.00    +0.000 HD
BRANCH  17  21
ATOM     20  O   UNL     1      -0.260  -5.694  -4.932  0.00  0.00    +0.000 OA
ATOM     21  C   UNL     1      -0.830  -5.439  -5.988  0.00  0.00    +0.000 C 
ATOM     22  H   UNL     1      -1.703  -4.764  -6.018  0.00  0.00    +0.000 HD
ENDBRANCH  17  21
ENDBRANCH  14  17
ENDBRANCH   1  14
TORSDOF 6
ENDMDL
MODEL 3
REMARK VINA RESULT:    -3.845     15.118     16.919
REMARK INTER + INTRA:          -5.292
REMARK INTER:                  -5.007
REMARK INTRA:                  -0.284
REMARK UNBOUND:                -0.210
REMARK  Name = 8130
REMARK  6 active torsions:
REMARK  status: ('A' for Active; 'I' for Inactive)
REMARK    1  A    between atoms: C_2  and  C_3
REMARK    2  A    between atoms: C_2  and  C_4
REMARK    3  A    between atoms: C_3  and  C_5
REMARK    4  A    between atoms: C_4  and  C_6
REMARK    5  A    between atoms: C_5  and  C_7
REMARK    6  A    between atoms: C_6  and  C_8
REMARK                            x       y       z     vdW  Elec       q    Type
REMARK                         _______ _______ _______ _____ _____    ______ ____
ROOT
ATOM      1  C   UNL     1      -7.853 -13.048   4.888  0.00  0.00    +0.000 C 
ATOM      2  H   UNL     1      -8.394 -13.823   4.333  0.00  0.00    +0.000 HD
ATOM      3  H   UNL     1      -8.352 -12.093   4.679  0.00  0.00    +0.000 HD
ENDROOT
BRANCH   1   4
ATOM      4  C   UNL     1      -7.920 -13.343   6.388  0.00  0.00    +0.000 C 
ATOM      5  H   UNL     1      -8.837 -12.913   6.809  0.00  0.00    +0.000 HD
ATOM      6  H   UNL     1      -7.074 -12.861   6.893  0.00  0.00    +0.000 HD
BRANCH   4   7
ATOM      7  C   UNL     1      -7.892 -14.847   6.660  0.00  0.00    +0.000 C 
ATOM      8  H   UNL     1      -6.896 -15.247   6.438  0.00  0.00    +0.000 HD
ATOM      9  H   UNL     1      -8.088 -15.038   7.722  0.00  0.00    +0.000 HD
BRANCH   7  10
ATOM     10  C   UNL     1      -8.926 -15.584   5.824  0.00  0.00    +0.000 C 
ATOM     11  H   UNL     1      -8.653 -15.546   4.764  0.00  0.00    +0.000 HD
ATOM     12  H   UNL     1      -9.916 -15.131   5.936  0.00  0.00    +0.000 HD
ATOM     13  H   UNL     1      -8.993 -16.636   6.119  0.00  0.00    +0.000 HD
ENDBRANCH   7  10
ENDBRANCH   4   7
ENDBRANCH   1   4
BRANCH   1  14
ATOM     14  C   UNL     1      -6.404 -12.984   4.399  0.00  0.00    +0.000 C 
ATOM     15  H   UNL     1      -5.729 -13.249   5.223  0.00  0.00    +0.000 HD
ATOM     16  H   UNL     1      -6.163 -11.950   4.119  0.00  0.00    +0.000 HD
BRANCH  14  17
ATOM     17  C   UNL     1      -6.151 -13.905   3.210  0.00  0.00    +0.000 C 
ATOM     18  H   UNL     1      -5.948 -14.926   3.547  0.00  0.00    +0.000 HD
ATOM     19  H   UNL     1      -5.290 -13.555   2.631  0.00  0.00    +0.000 HD
BRANCH  17  21
ATOM     20  O   UNL     1      -7.357 -13.414   1.183  0.00  0.00    +0.000 OA
ATOM     21  C   UNL     1      -7.340 -13.951   2.286  0.00  0.00    +0.000 C 
ATOM     22  H   UNL     1      -8.221 -14.494   2.670  0.00  0.00    +0.000 HD
ENDBRANCH  17  21
ENDBRANCH  14  17
ENDBRANCH   1  14
TORSDOF 6
ENDMDL
MODEL 4
REMARK VINA RESULT:    -3.805     16.010     16.924
REMARK INTER + INTRA:          -5.239
REMARK INTER:                  -5.075
REMARK INTRA:                  -0.163
REMARK UNBOUND:                -0.210
REMARK  Name = 8130
REMARK  6 active torsions:
REMARK  status: ('A' for Active; 'I' for Inactive)
REMARK    1  A    between atoms: C_2  and  C_3
REMARK    2  A    between atoms: C_2  and  C_4
REMARK    3  A    between atoms: C_3  and  C_5
REMARK    4  A    between atoms: C_4  and  C_6
REMARK    5  A    between atoms: C_5  and  C_7
REMARK    6  A    between atoms: C_6  and  C_8
REMARK                            x       y       z     vdW  Elec       q    Type
REMARK                         _______ _______ _______ _____ _____    ______ ____
ROOT
ATOM      1  C   UNL     1      15.430  -6.177  -2.718  0.00  0.00    +0.000 C 
ATOM      2  H   UNL     1      14.490  -5.657  -2.937  0.00  0.00    +0.000 HD
ATOM      3  H   UNL     1      15.450  -7.083  -3.337  0.00  0.00    +0.000 HD
ENDROOT
BRANCH   1   4
ATOM      4  C   UNL     1      16.615  -5.281  -3.085  0.00  0.00    +0.000 C 
ATOM      5  H   UNL     1      16.908  -4.682  -2.215  0.00  0.00    +0.000 HD
ATOM      6  H   UNL     1      16.313  -4.581  -3.873  0.00  0.00    +0.000 HD
BRANCH   4   7
ATOM      7  C   UNL     1      17.810  -6.107  -3.562  0.00  0.00    +0.000 C 
ATOM      8  H   UNL     1      18.723  -5.503  -3.514  0.00  0.00    +0.000 HD
ATOM      9  H   UNL     1      17.956  -6.969  -2.899  0.00  0.00    +0.000 HD
BRANCH   7  10
ATOM     10  C   UNL     1      17.612  -6.603  -4.986  0.00  0.00    +0.000 C 
ATOM     11  H   UNL     1      18.380  -7.340  -5.241  0.00  0.00    +0.000 HD
ATOM     12  H   UNL     1      17.682  -5.778  -5.702  0.00  0.00    +0.000 HD
ATOM     13  H   UNL     1      16.633  -7.079  -5.103  0.00  0.00    +0.000 HD
ENDBRANCH   7  10
ENDBRANCH   4   7
ENDBRANCH   1   4
BRANCH   1  14
ATOM     14  C   UNL     1      15.468  -6.568  -1.239  0.00  0.00    +0.000 C 
ATOM     15  H   UNL     1      16.240  -7.333  -1.083  0.00  0.00    +0.000 HD
ATOM     16  H   UNL     1      14.511  -7.031  -0.964  0.00  0.00    +0.000 HD
BRANCH  14  17
ATOM     17  C   UNL     1      15.737  -5.375  -0.328  0.00  0.00    +0.000 C 
ATOM     18  H   UNL     1      14.996  -4.586  -0.493  0.00  0.00    +0.000 HD
ATOM     19  H   UNL     1      16.732  -4.961  -0.523  0.00  0.00    +0.000 HD
BRANCH  17  21
ATOM     20  O   UNL     1      15.202  -6.828   1.518  0.00  0.00    +0.000 OA
ATOM     21  C   UNL     1      15.678  -5.767   1.125  0.00  0.00    +0.000 C 
ATOM     22  H   UNL     1      16.084  -5.026   1.836  0.00  0.00    +0.000 HD
ENDBRANCH  17  21
ENDBRANCH  14  17
ENDBRANCH   1  14
TORSDOF 6
ENDMDL
MODEL 5
REMARK VINA RESULT:    -3.730     17.249     18.320
REMARK INTER + INTRA:          -5.139
REMARK INTER:                  -4.965
REMARK INTRA:                  -0.175
REMARK UNBOUND:                -0.210
REMARK  Name = 8130
REMARK  6 active torsions:
REMARK  status: ('A' for Active; 'I' for Inactive)
REMARK    1  A    between atoms: C_2  and  C_3
REMARK    2  A    between atoms: C_2  and  C_4
REMARK    3  A    between atoms: C_3  and  C_5
REMARK    4  A    between atoms: C_4  and  C_6
REMARK    5  A    between atoms: C_5  and  C_7
REMARK    6  A    between atoms: C_6  and  C_8
REMARK                            x       y       z     vdW  Elec       q    Type
REMARK                         _______ _______ _______ _____ _____    ______ ____
ROOT
ATOM      1  C   UNL     1      17.322  -6.010  -2.916  0.00  0.00    +0.000 C 
ATOM      2  H   UNL     1      18.054  -6.086  -2.104  0.00  0.00    +0.000 HD
ATOM      3  H   UNL     1      16.696  -6.910  -2.871  0.00  0.00    +0.000 HD
ENDROOT
BRANCH   1   4
ATOM      4  C   UNL     1      16.451  -4.769  -2.714  0.00  0.00    +0.000 C 
ATOM      5  H   UNL     1      15.763  -4.659  -3.561  0.00  0.00    +0.000 HD
ATOM      6  H   UNL     1      17.087  -3.876  -2.693  0.00  0.00    +0.000 HD
BRANCH   4   7
ATOM      7  C   UNL     1      15.648  -4.859  -1.415  0.00  0.00    +0.000 C 
ATOM      8  H   UNL     1      16.136  -4.265  -0.635  0.00  0.00    +0.000 HD
ATOM      9  H   UNL     1      14.647  -4.438  -1.566  0.00  0.00    +0.000 HD
BRANCH   7  10
ATOM     10  C   UNL     1      15.516  -6.298  -0.941  0.00  0.00    +0.000 C 
ATOM     11  H   UNL     1      15.166  -6.324   0.096  0.00  0.00    +0.000 HD
ATOM     12  H   UNL     1      16.479  -6.817  -0.988  0.00  0.00    +0.000 HD
ATOM     13  H   UNL     1      14.797  -6.849  -1.556  0.00  0.00    +0.000 HD
ENDBRANCH   7  10
ENDBRANCH   4   7
ENDBRANCH   1   4
BRANCH   1  14
ATOM     14  C   UNL     1      18.052  -5.963  -4.261  0.00  0.00    +0.000 C 
ATOM     15  H   UNL     1      17.893  -4.982  -4.728  0.00  0.00    +0.000 HD
ATOM     16  H   UNL     1      17.609  -6.705  -4.938  0.00  0.00    +0.000 HD
BRANCH  14  17
ATOM     17  C   UNL     1      19.547  -6.230  -4.121  0.00  0.00    +0.000 C 
ATOM     18  H   UNL     1      19.896  -6.906  -4.907  0.00  0.00    +0.000 HD
ATOM     19  H   UNL     1      19.765  -6.686  -3.150  0.00  0.00    +0.000 HD
BRANCH  17  21
ATOM     20  O   UNL     1      19.890  -3.852  -3.936  0.00  0.00    +0.000 OA
ATOM     21  C   UNL     1      20.345  -4.956  -4.220  0.00  0.00    +0.000 C 
ATOM     22  H   UNL     1      21.381  -5.069  -4.584  0.00  0.00    +0.000 HD
ENDBRANCH  17  21
ENDBRANCH  14  17
ENDBRANCH   1  14
TORSDOF 6
ENDMDL
MODEL 6
REMARK VINA RESULT:    -3.520     32.519     33.523
REMARK INTER + INTRA:          -4.862
REMARK INTER:                  -4.625
REMARK INTRA:                  -0.238
REMARK UNBOUND:                -0.210
REMARK  Name = 8130
REMARK  6 active torsions:
REMARK  status: ('A' for Active; 'I' for Inactive)
REMARK    1  A    between atoms: C_2  and  C_3
REMARK    2  A    between atoms: C_2  and  C_4
REMARK    3  A    between atoms: C_3  and  C_5
REMARK    4  A    between atoms: C_4  and  C_6
REMARK    5  A    between atoms: C_5  and  C_7
REMARK    6  A    between atoms: C_6  and  C_8
REMARK                            x       y       z     vdW  Elec       q    Type
REMARK                         _______ _______ _______ _____ _____    ______ ____
ROOT
ATOM      1  C   UNL     1      -2.114   6.101  25.415  0.00  0.00    +0.000 C 
ATOM      2  H   UNL     1      -2.344   7.160  25.583  0.00  0.00    +0.000 HD
ATOM      3  H   UNL     1      -1.200   5.876  25.979  0.00  0.00    +0.000 HD
ENDROOT
BRANCH   1   4
ATOM      4  C   UNL     1      -3.263   5.234  25.934  0.00  0.00    +0.000 C 
ATOM      5  H   UNL     1      -4.024   5.871  26.401  0.00  0.00    +0.000 HD
ATOM      6  H   UNL     1      -2.887   4.556  26.710  0.00  0.00    +0.000 HD
BRANCH   4   7
ATOM      7  C   UNL     1      -3.900   4.422  24.806  0.00  0.00    +0.000 C 
ATOM      8  H   UNL     1      -3.466   4.716  23.844  0.00  0.00    +0.000 HD
ATOM      9  H   UNL     1      -3.685   3.356  24.947  0.00  0.00    +0.000 HD
BRANCH   7  10
ATOM     10  C   UNL     1      -5.407   4.623  24.758  0.00  0.00    +0.000 C 
ATOM     11  H   UNL     1      -5.774   4.968  25.730  0.00  0.00    +0.000 HD
ATOM     12  H   UNL     1      -5.919   3.687  24.514  0.00  0.00    +0.000 HD
ATOM     13  H   UNL     1      -5.679   5.371  24.007  0.00  0.00    +0.000 HD
ENDBRANCH   7  10
ENDBRANCH   4   7
ENDBRANCH   1   4
BRANCH   1  14
ATOM     14  C   UNL     1      -1.866   5.861  23.924  0.00  0.00    +0.000 C 
ATOM     15  H   UNL     1      -2.754   5.394  23.478  0.00  0.00    +0.000 HD
ATOM     16  H   UNL     1      -1.045   5.142  23.806  0.00  0.00    +0.000 HD
BRANCH  14  17
ATOM     17  C   UNL     1      -1.530   7.146  23.176  0.00  0.00    +0.000 C 
ATOM     18  H   UNL     1      -2.318   7.396  22.458  0.00  0.00    +0.000 HD
ATOM     19  H   UNL     1      -0.587   7.036  22.630  0.00  0.00    +0.000 HD
BRANCH  17  21
ATOM     20  O   UNL     1      -1.804   9.436  23.877  0.00  0.00    +0.000 OA
ATOM     21  C   UNL     1      -1.381   8.310  24.121  0.00  0.00    +0.000 C 
ATOM     22  H   UNL     1      -0.845   8.094  25.062  0.00  0.00    +0.000 HD
ENDBRANCH  17  21
ENDBRANCH  14  17
ENDBRANCH   1  14
TORSDOF 6
ENDMDL
MODEL 7
REMARK VINA RESULT:    -3.510     17.364     18.373
REMARK INTER + INTRA:          -4.849
REMARK INTER:                  -4.678
REMARK INTRA:                  -0.171
REMARK UNBOUND:                -0.210
REMARK  Name = 8130
REMARK  6 active torsions:
REMARK  status: ('A' for Active; 'I' for Inactive)
REMARK    1  A    between atoms: C_2  and  C_3
REMARK    2  A    between atoms: C_2  and  C_4
REMARK    3  A    between atoms: C_3  and  C_5
REMARK    4  A    between atoms: C_4  and  C_6
REMARK    5  A    between atoms: C_5  and  C_7
REMARK    6  A    between atoms: C_6  and  C_8
REMARK                            x       y       z     vdW  Elec       q    Type
REMARK                         _______ _______ _______ _____ _____    ______ ____
ROOT
ATOM      1  C   UNL     1      16.365  -4.660  -2.449  0.00  0.00    +0.000 C 
ATOM      2  H   UNL     1      16.808  -3.868  -3.064  0.00  0.00    +0.000 HD
ATOM      3  H   UNL     1      15.313  -4.395  -2.288  0.00  0.00    +0.000 HD
ENDROOT
BRANCH   1   4
ATOM      4  C   UNL     1      16.449  -5.997  -3.189  0.00  0.00    +0.000 C 
ATOM      5  H   UNL     1      15.607  -6.086  -3.886  0.00  0.00    +0.000 HD
ATOM      6  H   UNL     1      16.362  -6.819  -2.468  0.00  0.00    +0.000 HD
BRANCH   4   7
ATOM      7  C   UNL     1      17.764  -6.125  -3.959  0.00  0.00    +0.000 C 
ATOM      8  H   UNL     1      18.203  -5.133  -4.114  0.00  0.00    +0.000 HD
ATOM      9  H   UNL     1      18.483  -6.710  -3.373  0.00  0.00    +0.000 HD
BRANCH   7  10
ATOM     10  C   UNL     1      17.556  -6.798  -5.307  0.00  0.00    +0.000 C 
ATOM     11  H   UNL     1      18.447  -6.676  -5.932  0.00  0.00    +0.000 HD
ATOM     12  H   UNL     1      16.706  -6.357  -5.838  0.00  0.00    +0.000 HD
ATOM     13  H   UNL     1      17.370  -7.869  -5.186  0.00  0.00    +0.000 HD
ENDBRANCH   7  10
ENDBRANCH   4   7
ENDBRANCH   1   4
BRANCH   1  14
ATOM     14  C   UNL     1      17.087  -4.726  -1.101  0.00  0.00    +0.000 C 
ATOM     15  H   UNL     1      17.599  -5.693  -1.008  0.00  0.00    +0.000 HD
ATOM     16  H   UNL     1      16.346  -4.687  -0.292  0.00  0.00    +0.000 HD
BRANCH  14  17
ATOM     17  C   UNL     1      18.093  -3.593  -0.924  0.00  0.00    +0.000 C 
ATOM     18  H   UNL     1      18.261  -3.384   0.137  0.00  0.00    +0.000 HD
ATOM     19  H   UNL     1      17.728  -2.679  -1.403  0.00  0.00    +0.000 HD
BRANCH  17  21
ATOM     20  O   UNL     1      20.175  -3.100  -2.032  0.00  0.00    +0.000 OA
ATOM     21  C   UNL     1      19.423  -3.937  -1.543  0.00  0.00    +0.000 C 
ATOM     22  H   UNL     1      19.684  -5.009  -1.544  0.00  0.00    +0.000 HD
ENDBRANCH  17  21
ENDBRANCH  14  17
ENDBRANCH   1  14
TORSDOF 6
ENDMDL
MODEL 8
REMARK VINA RESULT:    -3.463     16.711     17.858
REMARK INTER + INTRA:          -4.786
REMARK INTER:                  -4.521
REMARK INTRA:                  -0.265
REMARK UNBOUND:                -0.210
REMARK  Name = 8130
REMARK  6 active torsions:
REMARK  status: ('A' for Active; 'I' for Inactive)
REMARK    1  A    between atoms: C_2  and  C_3
REMARK    2  A    between atoms: C_2  and  C_4
REMARK    3  A    between atoms: C_3  and  C_5
REMARK    4  A    between atoms: C_4  and  C_6
REMARK    5  A    between atoms: C_5  and  C_7
REMARK    6  A    between atoms: C_6  and  C_8
REMARK                            x       y       z     vdW  Elec       q    Type
REMARK                         _______ _______ _______ _____ _____    ______ ____
ROOT
ATOM      1  C   UNL     1      17.917  -6.377  -1.403  0.00  0.00    +0.000 C 
ATOM      2  H   UNL     1      18.609  -6.545  -0.570  0.00  0.00    +0.000 HD
ATOM      3  H   UNL     1      17.630  -7.363  -1.788  0.00  0.00    +0.000 HD
ENDROOT
BRANCH   1   4
ATOM      4  C   UNL     1      16.673  -5.641  -0.902  0.00  0.00    +0.000 C 
ATOM      5  H   UNL     1      16.541  -4.711  -1.468  0.00  0.00    +0.000 HD
ATOM      6  H   UNL     1      16.812  -5.363   0.150  0.00  0.00    +0.000 HD
BRANCH   4   7
ATOM      7  C   UNL     1      15.420  -6.506  -1.044  0.00  0.00    +0.000 C 
ATOM      8  H   UNL     1      15.594  -7.489  -0.595  0.00  0.00    +0.000 HD
ATOM      9  H   UNL     1      14.585  -6.044  -0.503  0.00  0.00    +0.000 HD
BRANCH   7  10
ATOM     10  C   UNL     1      15.028  -6.683  -2.503  0.00  0.00    +0.000 C 
ATOM     11  H   UNL     1      15.843  -6.354  -3.156  0.00  0.00    +0.000 HD
ATOM     12  H   UNL     1      14.140  -6.092  -2.745  0.00  0.00    +0.000 HD
ATOM     13  H   UNL     1      14.816  -7.732  -2.728  0.00  0.00    +0.000 HD
ENDBRANCH   7  10
ENDBRANCH   4   7
ENDBRANCH   1   4
BRANCH   1  14
ATOM     14  C   UNL     1      18.624  -5.585  -2.505  0.00  0.00    +0.000 C 
ATOM     15  H   UNL     1      19.567  -5.178  -2.115  0.00  0.00    +0.000 HD
ATOM     16  H   UNL     1      18.005  -4.722  -2.784  0.00  0.00    +0.000 HD
BRANCH  14  17
ATOM     17  C   UNL     1      18.904  -6.432  -3.742  0.00  0.00    +0.000 C 
ATOM     18  H   UNL     1      18.909  -7.497  -3.490  0.00  0.00    +0.000 HD
ATOM     19  H   UNL     1      19.878  -6.173  -4.171  0.00  0.00    +0.000 HD
BRANCH  17  21
ATOM     20  O   UNL     1      17.449  -7.107  -5.540  0.00  0.00    +0.000 OA
ATOM     21  C   UNL     1      17.860  -6.214  -4.806  0.00  0.00    +0.000 C 
ATOM     22  H   UNL     1      17.486  -5.180  -4.901  0.00  0.00    +0.000 HD
ENDBRANCH  17  21
ENDBRANCH  14  17
ENDBRANCH   1  14
TORSDOF 6
ENDMDL
MODEL 9
REMARK VINA RESULT:    -3.422     17.961     18.758
REMARK INTER + INTRA:          -4.732
REMARK INTER:                  -4.522
REMARK INTRA:                  -0.210
REMARK UNBOUND:                -0.210
REMARK  Name = 8130
REMARK  6 active torsions:
REMARK  status: ('A' for Active; 'I' for Inactive)
REMARK    1  A    between atoms: C_2  and  C_3
REMARK    2  A    between atoms: C_2  and  C_4
REMARK    3  A    between atoms: C_3  and  C_5
REMARK    4  A    between atoms: C_4  and  C_6
REMARK    5  A    between atoms: C_5  and  C_7
REMARK    6  A    between atoms: C_6  and  C_8
REMARK                            x       y       z     vdW  Elec       q    Type
REMARK                         _______ _______ _______ _____ _____    ______ ____
ROOT
ATOM      1  C   UNL     1      15.782   4.748  -0.464  0.00  0.00    +0.000 C 
ATOM      2  H   UNL     1      15.321   5.402   0.285  0.00  0.00    +0.000 HD
ATOM      3  H   UNL     1      16.868   4.797  -0.312  0.00  0.00    +0.000 HD
ENDROOT
BRANCH   1   4
ATOM      4  C   UNL     1      15.302   3.310  -0.259  0.00  0.00    +0.000 C 
ATOM      5  H   UNL     1      16.158   2.663  -0.032  0.00  0.00    +0.000 HD
ATOM      6  H   UNL     1      14.853   2.939  -1.189  0.00  0.00    +0.000 HD
BRANCH   4   7
ATOM      7  C   UNL     1      14.281   3.220   0.875  0.00  0.00    +0.000 C 
ATOM      8  H   UNL     1      14.154   2.176   1.181  0.00  0.00    +0.000 HD
ATOM      9  H   UNL     1      14.645   3.773   1.749  0.00  0.00    +0.000 HD
BRANCH   7  10
ATOM     10  C   UNL     1      12.932   3.786   0.456  0.00  0.00    +0.000 C 
ATOM     11  H   UNL     1      12.897   3.916  -0.630  0.00  0.00    +0.000 HD
ATOM     12  H   UNL     1      12.755   4.762   0.921  0.00  0.00    +0.000 HD
ATOM     13  H   UNL     1      12.118   3.114   0.744  0.00  0.00    +0.000 HD
ENDBRANCH   7  10
ENDBRANCH   4   7
ENDBRANCH   1   4
BRANCH   1  14
ATOM     14  C   UNL     1      15.440   5.253  -1.867  0.00  0.00    +0.000 C 
ATOM     15  H   UNL     1      14.915   4.464  -2.421  0.00  0.00    +0.000 HD
ATOM     16  H   UNL     1      16.370   5.454  -2.415  0.00  0.00    +0.000 HD
BRANCH  14  17
ATOM     17  C   UNL     1      14.584   6.516  -1.838  0.00  0.00    +0.000 C 
ATOM     18  H   UNL     1      14.701   7.042  -0.886  0.00  0.00    +0.000 HD
ATOM     19  H   UNL     1      13.527   6.264  -1.966  0.00  0.00    +0.000 HD
BRANCH  17  21
ATOM     20  O   UNL     1      14.229   7.744  -3.880  0.00  0.00    +0.000 OA
ATOM     21  C   UNL     1      14.969   7.467  -2.941  0.00  0.00    +0.000 C 
ATOM     22  H   UNL     1      15.981   7.900  -2.866  0.00  0.00    +0.000 HD
ENDBRANCH  17  21
ENDBRANCH  14  17
ENDBRANCH   1  14
TORSDOF 6
ENDMDL
MODEL 10
REMARK VINA RESULT:    -3.415     16.134     16.806
REMARK INTER + INTRA:          -4.722
REMARK INTER:                  -4.573
REMARK INTRA:                  -0.149
REMARK UNBOUND:                -0.210
REMARK  Name = 8130
REMARK  6 active torsions:
REMARK  status: ('A' for Active; 'I' for Inactive)
REMARK    1  A    between atoms: C_2  and  C_3
REMARK    2  A    between atoms: C_2  and  C_4
REMARK    3  A    between atoms: C_3  and  C_5
REMARK    4  A    between atoms: C_4  and  C_6
REMARK    5  A    between atoms: C_5  and  C_7
REMARK    6  A    between atoms: C_6  and  C_8
REMARK                            x       y       z     vdW  Elec       q    Type
REMARK                         _______ _______ _______ _____ _____    ______ ____
ROOT
ATOM      1  C   UNL     1       5.852   5.220 -17.640  0.00  0.00    +0.000 C 
ATOM      2  H   UNL     1       6.375   6.041 -17.135  0.00  0.00    +0.000 HD
ATOM      3  H   UNL     1       5.199   4.748 -16.896  0.00  0.00    +0.000 HD
ENDROOT
BRANCH   1   4
ATOM      4  C   UNL     1       5.005   5.774 -18.787  0.00  0.00    +0.000 C 
ATOM      5  H   UNL     1       4.338   4.990 -19.165  0.00  0.00    +0.000 HD
ATOM      6  H   UNL     1       5.660   6.070 -19.615  0.00  0.00    +0.000 HD
BRANCH   4   7
ATOM      7  C   UNL     1       4.174   6.976 -18.335  0.00  0.00    +0.000 C 
ATOM      8  H   UNL     1       4.289   7.798 -19.050  0.00  0.00    +0.000 HD
ATOM      9  H   UNL     1       3.111   6.708 -18.316  0.00  0.00    +0.000 HD
BRANCH   7  10
ATOM     10  C   UNL     1       4.590   7.452 -16.952  0.00  0.00    +0.000 C 
ATOM     11  H   UNL     1       5.220   8.344 -17.032  0.00  0.00    +0.000 HD
ATOM     12  H   UNL     1       5.161   6.680 -16.427  0.00  0.00    +0.000 HD
ATOM     13  H   UNL     1       3.716   7.708 -16.345  0.00  0.00    +0.000 HD
ENDBRANCH   7  10
ENDBRANCH   4   7
ENDBRANCH   1   4
BRANCH   1  14
ATOM     14  C   UNL     1       6.872   4.198 -18.146  0.00  0.00    +0.000 C 
ATOM     15  H   UNL     1       6.364   3.461 -18.782  0.00  0.00    +0.000 HD
ATOM     16  H   UNL     1       7.281   3.643 -17.292  0.00  0.00    +0.000 HD
BRANCH  14  17
ATOM     17  C   UNL     1       8.011   4.849 -18.924  0.00  0.00    +0.000 C 
ATOM     18  H   UNL     1       8.118   5.902 -18.647  0.00  0.00    +0.000 HD
ATOM     19  H   UNL     1       7.821   4.792 -20.000  0.00  0.00    +0.000 HD
BRANCH  17  21
ATOM     20  O   UNL     1      10.330   4.759 -18.276  0.00  0.00    +0.000 OA
ATOM     21  C   UNL     1       9.325   4.164 -18.651  0.00  0.00    +0.000 C 
ATOM     22  H   UNL     1       9.339   3.074 -18.824  0.00  0.00    +0.000 HD
ENDBRANCH  17  21
ENDBRANCH  14  17
ENDBRANCH   1  14
TORSDOF 6
ENDMDL
