MODEL 1
REMARK VINA RESULT:    -4.203      0.000      0.000
REMARK INTER + INTRA:          -5.872
REMARK INTER:                  -5.582
REMARK INTRA:                  -0.290
REMARK UNBOUND:                -0.195
REMARK  Name = 8094
REMARK  7 active torsions:
REMARK  status: ('A' for Active; 'I' for Inactive)
REMARK    1  A    between atoms: O_1  and  C_9
REMARK    2  A    between atoms: C_3  and  C_4
REMARK    3  A    between atoms: C_3  and  C_5
REMARK    4  A    between atoms: C_4  and  C_6
REMARK    5  A    between atoms: C_5  and  C_7
REMARK    6  A    between atoms: C_6  and  C_8
REMARK    7  A    between atoms: C_7  and  C_9
REMARK                            x       y       z     vdW  Elec       q    Type
REMARK                         _______ _______ _______ _____ _____    ______ ____
ROOT
ATOM      1  C   UNL     1      17.047  -4.838  -3.143  0.00  0.00    +0.000 C 
ATOM      2  H   UNL     1      16.791  -4.684  -4.199  0.00  0.00    +0.000 HD
ATOM      3  H   UNL     1      17.630  -3.967  -2.820  0.00  0.00    +0.000 HD
ENDROOT
BRANCH   1   4
ATOM      4  C   UNL     1      17.895  -6.104  -2.999  0.00  0.00    +0.000 C 
ATOM      5  H   UNL     1      18.678  -5.932  -2.250  0.00  0.00    +0.000 HD
ATOM      6  H   UNL     1      17.266  -6.917  -2.617  0.00  0.00    +0.000 HD
BRANCH   4   7
ATOM      7  C   UNL     1      18.549  -6.548  -4.309  0.00  0.00    +0.000 C 
ATOM      8  H   UNL     1      19.151  -7.448  -4.127  0.00  0.00    +0.000 HD
ATOM      9  H   UNL     1      19.239  -5.769  -4.652  0.00  0.00    +0.000 HD
BRANCH   7  10
ATOM     10  C   UNL     1      17.550  -6.842  -5.417  0.00  0.00    +0.000 C 
ATOM     11  H   UNL     1      17.479  -7.920  -5.589  0.00  0.00    +0.000 HD
ATOM     12  H   UNL     1      17.856  -6.366  -6.354  0.00  0.00    +0.000 HD
ATOM     13  H   UNL     1      16.555  -6.472  -5.153  0.00  0.00    +0.000 HD
ENDBRANCH   7  10
ENDBRANCH   4   7
ENDBRANCH   1   4
BRANCH   1  14
ATOM     14  C   UNL     1      15.764  -4.934  -2.309  0.00  0.00    +0.000 C 
ATOM     15  H   UNL     1      14.897  -4.699  -2.939  0.00  0.00    +0.000 HD
ATOM     16  H   UNL     1      15.787  -4.178  -1.515  0.00  0.00    +0.000 HD
BRANCH  14  17
ATOM     17  C   UNL     1      15.574  -6.319  -1.688  0.00  0.00    +0.000 C 
ATOM     18  H   UNL     1      16.374  -6.987  -2.027  0.00  0.00    +0.000 HD
ATOM     19  H   UNL     1      14.611  -6.731  -2.009  0.00  0.00    +0.000 HD
BRANCH  17  21
ATOM     20  O   UNL     1      15.073  -7.135   0.552  0.00  0.00    +0.000 OA
ATOM     21  C   UNL     1      15.594  -6.302  -0.176  0.00  0.00    +0.000 C 
BRANCH  21  22
ATOM     22  O   UNL     1      16.299  -5.241   0.298  0.00  0.00    +0.000 OA
ATOM     23  H   UNL     1      15.749  -4.430   0.347  0.00  0.00    +0.000 HD
ENDBRANCH  21  22
ENDBRANCH  17  21
ENDBRANCH  14  17
ENDBRANCH   1  14
TORSDOF 7
ENDMDL
MODEL 2
REMARK VINA RESULT:    -4.112      3.452      5.029
REMARK INTER + INTRA:          -5.749
REMARK INTER:                  -5.492
REMARK INTRA:                  -0.257
REMARK UNBOUND:                -0.195
REMARK  Name = 8094
REMARK  7 active torsions:
REMARK  status: ('A' for Active; 'I' for Inactive)
REMARK    1  A    between atoms: O_1  and  C_9
REMARK    2  A    between atoms: C_3  and  C_4
REMARK    3  A    between atoms: C_3  and  C_5
REMARK    4  A    between atoms: C_4  and  C_6
REMARK    5  A    between atoms: C_5  and  C_7
REMARK    6  A    between atoms: C_6  and  C_8
REMARK    7  A    between atoms: C_7  and  C_9
REMARK                            x       y       z     vdW  Elec       q    Type
REMARK                         _______ _______ _______ _____ _____    ______ ____
ROOT
ATOM      1  C   UNL     1      17.142  -6.181  -4.256  0.00  0.00    +0.000 C 
ATOM      2  H   UNL     1      16.610  -5.806  -5.139  0.00  0.00    +0.000 HD
ATOM      3  H   UNL     1      16.607  -7.072  -3.906  0.00  0.00    +0.000 HD
ENDROOT
BRANCH   1   4
ATOM      4  C   UNL     1      17.131  -5.115  -3.157  0.00  0.00    +0.000 C 
ATOM      5  H   UNL     1      17.986  -5.274  -2.489  0.00  0.00    +0.000 HD
ATOM      6  H   UNL     1      17.266  -4.127  -3.613  0.00  0.00    +0.000 HD
BRANCH   4   7
ATOM      7  C   UNL     1      15.846  -5.113  -2.327  0.00  0.00    +0.000 C 
ATOM      8  H   UNL     1      15.120  -4.426  -2.782  0.00  0.00    +0.000 HD
ATOM      9  H   UNL     1      16.062  -4.726  -1.324  0.00  0.00    +0.000 HD
BRANCH   7  10
ATOM     10  C   UNL     1      15.206  -6.486  -2.195  0.00  0.00    +0.000 C 
ATOM     11  H   UNL     1      14.118  -6.393  -2.121  0.00  0.00    +0.000 HD
ATOM     12  H   UNL     1      15.567  -7.000  -1.299  0.00  0.00    +0.000 HD
ATOM     13  H   UNL     1      15.437  -7.109  -3.064  0.00  0.00    +0.000 HD
ENDBRANCH   7  10
ENDBRANCH   4   7
ENDBRANCH   1   4
BRANCH   1  14
ATOM     14  C   UNL     1      18.576  -6.562  -4.641  0.00  0.00    +0.000 C 
ATOM     15  H   UNL     1      18.803  -6.176  -5.642  0.00  0.00    +0.000 HD
ATOM     16  H   UNL     1      18.661  -7.654  -4.701  0.00  0.00    +0.000 HD
BRANCH  14  17
ATOM     17  C   UNL     1      19.610  -6.025  -3.649  0.00  0.00    +0.000 C 
ATOM     18  H   UNL     1      20.133  -6.863  -3.174  0.00  0.00    +0.000 HD
ATOM     19  H   UNL     1      19.101  -5.442  -2.874  0.00  0.00    +0.000 HD
BRANCH  17  21
ATOM     20  O   UNL     1      21.650  -5.524  -4.884  0.00  0.00    +0.000 OA
ATOM     21  C   UNL     1      20.650  -5.137  -4.294  0.00  0.00    +0.000 C 
BRANCH  21  22
ATOM     22  O   UNL     1      20.329  -3.823  -4.164  0.00  0.00    +0.000 OA
ATOM     23  H   UNL     1      19.692  -3.533  -4.852  0.00  0.00    +0.000 HD
ENDBRANCH  21  22
ENDBRANCH  17  21
ENDBRANCH  14  17
ENDBRANCH   1  14
TORSDOF 7
ENDMDL
MODEL 3
REMARK VINA RESULT:    -4.034     26.008     27.030
REMARK INTER + INTRA:          -5.645
REMARK INTER:                  -5.468
REMARK INTRA:                  -0.177
REMARK UNBOUND:                -0.195
REMARK  Name = 8094
REMARK  7 active torsions:
REMARK  status: ('A' for Active; 'I' for Inactive)
REMARK    1  A    between atoms: O_1  and  C_9
REMARK    2  A    between atoms: C_3  and  C_4
REMARK    3  A    between atoms: C_3  and  C_5
REMARK    4  A    between atoms: C_4  and  C_6
REMARK    5  A    between atoms: C_5  and  C_7
REMARK    6  A    between atoms: C_6  and  C_8
REMARK    7  A    between atoms: C_7  and  C_9
REMARK                            x       y       z     vdW  Elec       q    Type
REMARK                         _______ _______ _______ _____ _____    ______ ____
ROOT
ATOM      1  C   UNL     1      12.275  18.464 -11.916  0.00  0.00    +0.000 C 
ATOM      2  H   UNL     1      11.953  17.697 -12.632  0.00  0.00    +0.000 HD
ATOM      3  H   UNL     1      13.031  19.080 -12.417  0.00  0.00    +0.000 HD
ENDROOT
BRANCH   1   4
ATOM      4  C   UNL     1      12.895  17.793 -10.688  0.00  0.00    +0.000 C 
ATOM      5  H   UNL     1      13.744  18.394 -10.337  0.00  0.00    +0.000 HD
ATOM      6  H   UNL     1      12.160  17.780  -9.875  0.00  0.00    +0.000 HD
BRANCH   4   7
ATOM      7  C   UNL     1      13.374  16.365 -10.954  0.00  0.00    +0.000 C 
ATOM      8  H   UNL     1      12.732  15.659 -10.412  0.00  0.00    +0.000 HD
ATOM      9  H   UNL     1      14.388  16.242 -10.555  0.00  0.00    +0.000 HD
BRANCH   7  10
ATOM     10  C   UNL     1      13.380  15.991 -12.428  0.00  0.00    +0.000 C 
ATOM     11  H   UNL     1      13.556  16.878 -13.044  0.00  0.00    +0.000 HD
ATOM     12  H   UNL     1      12.421  15.555 -12.724  0.00  0.00    +0.000 HD
ATOM     13  H   UNL     1      14.168  15.264 -12.643  0.00  0.00    +0.000 HD
ENDBRANCH   7  10
ENDBRANCH   4   7
ENDBRANCH   1   4
BRANCH   1  14
ATOM     14  C   UNL     1      11.079  19.338 -11.523  0.00  0.00    +0.000 C 
ATOM     15  H   UNL     1      10.156  18.748 -11.583  0.00  0.00    +0.000 HD
ATOM     16  H   UNL     1      10.972  20.158 -12.244  0.00  0.00    +0.000 HD
BRANCH  14  17
ATOM     17  C   UNL     1      11.215  19.916 -10.113  0.00  0.00    +0.000 C 
ATOM     18  H   UNL     1      12.128  20.520 -10.050  0.00  0.00    +0.000 HD
ATOM     19  H   UNL     1      11.285  19.096  -9.390  0.00  0.00    +0.000 HD
BRANCH  17  21
ATOM     20  O   UNL     1       9.760  21.867 -10.223  0.00  0.00    +0.000 OA
ATOM     21  C   UNL     1      10.051  20.794  -9.713  0.00  0.00    +0.000 C 
BRANCH  21  22
ATOM     22  O   UNL     1       9.327  20.230  -8.710  0.00  0.00    +0.000 OA
ATOM     23  H   UNL     1       9.597  19.301  -8.543  0.00  0.00    +0.000 HD
ENDBRANCH  21  22
ENDBRANCH  17  21
ENDBRANCH  14  17
ENDBRANCH   1  14
TORSDOF 7
ENDMDL
MODEL 4
REMARK VINA RESULT:    -3.903     23.776     24.560
REMARK INTER + INTRA:          -5.467
REMARK INTER:                  -5.279
REMARK INTRA:                  -0.188
REMARK UNBOUND:                -0.195
REMARK  Name = 8094
REMARK  7 active torsions:
REMARK  status: ('A' for Active; 'I' for Inactive)
REMARK    1  A    between atoms: O_1  and  C_9
REMARK    2  A    between atoms: C_3  and  C_4
REMARK    3  A    between atoms: C_3  and  C_5
REMARK    4  A    between atoms: C_4  and  C_6
REMARK    5  A    between atoms: C_5  and  C_7
REMARK    6  A    between atoms: C_6  and  C_8
REMARK    7  A    between atoms: C_7  and  C_9
REMARK                            x       y       z     vdW  Elec       q    Type
REMARK                         _______ _______ _______ _____ _____    ______ ____
ROOT
ATOM      1  C   UNL     1       3.810   3.348 -20.828  0.00  0.00    +0.000 C 
ATOM      2  H   UNL     1       4.624   2.723 -21.215  0.00  0.00    +0.000 HD
ATOM      3  H   UNL     1       3.341   3.841 -21.688  0.00  0.00    +0.000 HD
ENDROOT
BRANCH   1   4
ATOM      4  C   UNL     1       4.379   4.407 -19.880  0.00  0.00    +0.000 C 
ATOM      5  H   UNL     1       4.541   5.340 -20.434  0.00  0.00    +0.000 HD
ATOM      6  H   UNL     1       3.640   4.627 -19.100  0.00  0.00    +0.000 HD
BRANCH   4   7
ATOM      7  C   UNL     1       5.694   3.987 -19.220  0.00  0.00    +0.000 C 
ATOM      8  H   UNL     1       6.500   4.020 -19.964  0.00  0.00    +0.000 HD
ATOM      9  H   UNL     1       5.615   2.946 -18.885  0.00  0.00    +0.000 HD
BRANCH   7  10
ATOM     10  C   UNL     1       6.083   4.856 -18.035  0.00  0.00    +0.000 C 
ATOM     11  H   UNL     1       5.226   4.994 -17.368  0.00  0.00    +0.000 HD
ATOM     12  H   UNL     1       6.420   5.842 -18.367  0.00  0.00    +0.000 HD
ATOM     13  H   UNL     1       6.891   4.393 -17.460  0.00  0.00    +0.000 HD
ENDBRANCH   7  10
ENDBRANCH   4   7
ENDBRANCH   1   4
BRANCH   1  14
ATOM     14  C   UNL     1       2.776   2.467 -20.116  0.00  0.00    +0.000 C 
ATOM     15  H   UNL     1       2.843   2.625 -19.032  0.00  0.00    +0.000 HD
ATOM     16  H   UNL     1       3.012   1.411 -20.292  0.00  0.00    +0.000 HD
BRANCH  14  17
ATOM     17  C   UNL     1       1.347   2.753 -20.578  0.00  0.00    +0.000 C 
ATOM     18  H   UNL     1       0.755   1.831 -20.536  0.00  0.00    +0.000 HD
ATOM     19  H   UNL     1       1.365   3.113 -21.613  0.00  0.00    +0.000 HD
BRANCH  17  21
ATOM     20  O   UNL     1       0.873   4.994 -19.748  0.00  0.00    +0.000 OA
ATOM     21  C   UNL     1       0.644   3.793 -19.735  0.00  0.00    +0.000 C 
BRANCH  21  22
ATOM     22  O   UNL     1      -0.317   3.231 -18.955  0.00  0.00    +0.000 OA
ATOM     23  H   UNL     1       0.065   2.787 -18.168  0.00  0.00    +0.000 HD
ENDBRANCH  21  22
ENDBRANCH  17  21
ENDBRANCH  14  17
ENDBRANCH   1  14
TORSDOF 7
ENDMDL
MODEL 5
REMARK VINA RESULT:    -3.895      1.734      2.180
REMARK INTER + INTRA:          -5.456
REMARK INTER:                  -5.067
REMARK INTRA:                  -0.389
REMARK UNBOUND:                -0.195
REMARK  Name = 8094
REMARK  7 active torsions:
REMARK  status: ('A' for Active; 'I' for Inactive)
REMARK    1  A    between atoms: O_1  and  C_9
REMARK    2  A    between atoms: C_3  and  C_4
REMARK    3  A    between atoms: C_3  and  C_5
REMARK    4  A    between atoms: C_4  and  C_6
REMARK    5  A    between atoms: C_5  and  C_7
REMARK    6  A    between atoms: C_6  and  C_8
REMARK    7  A    between atoms: C_7  and  C_9
REMARK                            x       y       z     vdW  Elec       q    Type
REMARK                         _______ _______ _______ _____ _____    ______ ____
ROOT
ATOM      1  C   UNL     1      19.125  -4.915  -2.551  0.00  0.00    +0.000 C 
ATOM      2  H   UNL     1      20.116  -4.595  -2.208  0.00  0.00    +0.000 HD
ATOM      3  H   UNL     1      18.829  -5.773  -1.935  0.00  0.00    +0.000 HD
ENDROOT
BRANCH   1   4
ATOM      4  C   UNL     1      19.201  -5.343  -4.019  0.00  0.00    +0.000 C 
ATOM      5  H   UNL     1      18.671  -4.609  -4.638  0.00  0.00    +0.000 HD
ATOM      6  H   UNL     1      20.249  -5.331  -4.343  0.00  0.00    +0.000 HD
BRANCH   4   7
ATOM      7  C   UNL     1      18.612  -6.731  -4.278  0.00  0.00    +0.000 C 
ATOM      8  H   UNL     1      18.195  -7.129  -3.344  0.00  0.00    +0.000 HD
ATOM      9  H   UNL     1      19.413  -7.414  -4.585  0.00  0.00    +0.000 HD
BRANCH   7  10
ATOM     10  C   UNL     1      17.526  -6.740  -5.344  0.00  0.00    +0.000 C 
ATOM     11  H   UNL     1      16.559  -6.992  -4.898  0.00  0.00    +0.000 HD
ATOM     12  H   UNL     1      17.748  -7.478  -6.120  0.00  0.00    +0.000 HD
ATOM     13  H   UNL     1      17.438  -5.758  -5.818  0.00  0.00    +0.000 HD
ENDBRANCH   7  10
ENDBRANCH   4   7
ENDBRANCH   1   4
BRANCH   1  14
ATOM     14  C   UNL     1      18.118  -3.775  -2.360  0.00  0.00    +0.000 C 
ATOM     15  H   UNL     1      17.639  -3.542  -3.318  0.00  0.00    +0.000 HD
ATOM     16  H   UNL     1      18.648  -2.867  -2.047  0.00  0.00    +0.000 HD
BRANCH  14  17
ATOM     17  C   UNL     1      17.040  -4.114  -1.329  0.00  0.00    +0.000 C 
ATOM     18  H   UNL     1      16.485  -3.206  -1.064  0.00  0.00    +0.000 HD
ATOM     19  H   UNL     1      17.514  -4.513  -0.425  0.00  0.00    +0.000 HD
BRANCH  17  21
ATOM     20  O   UNL     1      15.675  -6.129  -1.209  0.00  0.00    +0.000 OA
ATOM     21  C   UNL     1      16.043  -5.138  -1.823  0.00  0.00    +0.000 C 
BRANCH  21  22
ATOM     22  O   UNL     1      15.566  -4.810  -3.054  0.00  0.00    +0.000 OA
ATOM     23  H   UNL     1      15.221  -3.892  -3.079  0.00  0.00    +0.000 HD
ENDBRANCH  21  22
ENDBRANCH  17  21
ENDBRANCH  14  17
ENDBRANCH   1  14
TORSDOF 7
ENDMDL
MODEL 6
REMARK VINA RESULT:    -3.884     36.307     37.371
REMARK INTER + INTRA:          -5.441
REMARK INTER:                  -5.129
REMARK INTRA:                  -0.312
REMARK UNBOUND:                -0.195
REMARK  Name = 8094
REMARK  7 active torsions:
REMARK  status: ('A' for Active; 'I' for Inactive)
REMARK    1  A    between atoms: O_1  and  C_9
REMARK    2  A    between atoms: C_3  and  C_4
REMARK    3  A    between atoms: C_3  and  C_5
REMARK    4  A    between atoms: C_4  and  C_6
REMARK    5  A    between atoms: C_5  and  C_7
REMARK    6  A    between atoms: C_6  and  C_8
REMARK    7  A    between atoms: C_7  and  C_9
REMARK                            x       y       z     vdW  Elec       q    Type
REMARK                         _______ _______ _______ _____ _____    ______ ____
ROOT
ATOM      1  C   UNL     1      -2.763   5.257  26.772  0.00  0.00    +0.000 C 
ATOM      2  H   UNL     1      -3.240   6.110  27.269  0.00  0.00    +0.000 HD
ATOM      3  H   UNL     1      -1.682   5.350  26.931  0.00  0.00    +0.000 HD
ENDROOT
BRANCH   1   4
ATOM      4  C   UNL     1      -3.063   5.302  25.271  0.00  0.00    +0.000 C 
ATOM      5  H   UNL     1      -3.448   6.295  25.008  0.00  0.00    +0.000 HD
ATOM      6  H   UNL     1      -2.129   5.167  24.713  0.00  0.00    +0.000 HD
BRANCH   4   7
ATOM      7  C   UNL     1      -4.073   4.243  24.823  0.00  0.00    +0.000 C 
ATOM      8  H   UNL     1      -4.124   3.447  25.577  0.00  0.00    +0.000 HD
ATOM      9  H   UNL     1      -3.721   3.778  23.894  0.00  0.00    +0.000 HD
BRANCH   7  10
ATOM     10  C   UNL     1      -5.471   4.795  24.595  0.00  0.00    +0.000 C 
ATOM     11  H   UNL     1      -6.210   3.988  24.638  0.00  0.00    +0.000 HD
ATOM     12  H   UNL     1      -5.547   5.275  23.615  0.00  0.00    +0.000 HD
ATOM     13  H   UNL     1      -5.728   5.534  25.360  0.00  0.00    +0.000 HD
ENDBRANCH   7  10
ENDBRANCH   4   7
ENDBRANCH   1   4
BRANCH   1  14
ATOM     14  C   UNL     1      -3.262   3.949  27.396  0.00  0.00    +0.000 C 
ATOM     15  H   UNL     1      -2.410   3.382  27.791  0.00  0.00    +0.000 HD
ATOM     16  H   UNL     1      -3.719   3.324  26.619  0.00  0.00    +0.000 HD
BRANCH  14  17
ATOM     17  C   UNL     1      -4.273   4.185  28.518  0.00  0.00    +0.000 C 
ATOM     18  H   UNL     1      -4.666   5.207  28.450  0.00  0.00    +0.000 HD
ATOM     19  H   UNL     1      -3.776   4.063  29.487  0.00  0.00    +0.000 HD
BRANCH  17  21
ATOM     20  O   UNL     1      -5.492   2.131  28.997  0.00  0.00    +0.000 OA
ATOM     21  C   UNL     1      -5.448   3.235  28.472  0.00  0.00    +0.000 C 
BRANCH  21  22
ATOM     22  O   UNL     1      -6.491   3.770  27.784  0.00  0.00    +0.000 OA
ATOM     23  H   UNL     1      -7.115   4.242  28.376  0.00  0.00    +0.000 HD
ENDBRANCH  21  22
ENDBRANCH  17  21
ENDBRANCH  14  17
ENDBRANCH   1  14
TORSDOF 7
ENDMDL
MODEL 7
REMARK VINA RESULT:    -3.842     11.561     13.043
REMARK INTER + INTRA:          -5.385
REMARK INTER:                  -5.209
REMARK INTRA:                  -0.176
REMARK UNBOUND:                -0.195
REMARK  Name = 8094
REMARK  7 active torsions:
REMARK  status: ('A' for Active; 'I' for Inactive)
REMARK    1  A    between atoms: O_1  and  C_9
REMARK    2  A    between atoms: C_3  and  C_4
REMARK    3  A    between atoms: C_3  and  C_5
REMARK    4  A    between atoms: C_4  and  C_6
REMARK    5  A    between atoms: C_5  and  C_7
REMARK    6  A    between atoms: C_6  and  C_8
REMARK    7  A    between atoms: C_7  and  C_9
REMARK                            x       y       z     vdW  Elec       q    Type
REMARK                         _______ _______ _______ _____ _____    ______ ____
ROOT
ATOM      1  C   UNL     1      14.963   4.935  -0.945  0.00  0.00    +0.000 C 
ATOM      2  H   UNL     1      15.095   3.848  -0.999  0.00  0.00    +0.000 HD
ATOM      3  H   UNL     1      15.721   5.320  -0.252  0.00  0.00    +0.000 HD
ENDROOT
BRANCH   1   4
ATOM      4  C   UNL     1      13.567   5.259  -0.407  0.00  0.00    +0.000 C 
ATOM      5  H   UNL     1      13.635   6.103   0.291  0.00  0.00    +0.000 HD
ATOM      6  H   UNL     1      12.929   5.585  -1.236  0.00  0.00    +0.000 HD
BRANCH   4   7
ATOM      7  C   UNL     1      12.902   4.078   0.303  0.00  0.00    +0.000 C 
ATOM      8  H   UNL     1      12.114   3.665  -0.338  0.00  0.00    +0.000 HD
ATOM      9  H   UNL     1      12.413   4.435   1.218  0.00  0.00    +0.000 HD
BRANCH   7  10
ATOM     10  C   UNL     1      13.872   2.965   0.669  0.00  0.00    +0.000 C 
ATOM     11  H   UNL     1      14.656   2.880  -0.090  0.00  0.00    +0.000 HD
ATOM     12  H   UNL     1      13.355   2.003   0.735  0.00  0.00    +0.000 HD
ATOM     13  H   UNL     1      14.349   3.165   1.632  0.00  0.00    +0.000 HD
ENDBRANCH   7  10
ENDBRANCH   4   7
ENDBRANCH   1   4
BRANCH   1  14
ATOM     14  C   UNL     1      15.177   5.551  -2.332  0.00  0.00    +0.000 C 
ATOM     15  H   UNL     1      14.230   5.550  -2.886  0.00  0.00    +0.000 HD
ATOM     16  H   UNL     1      15.875   4.928  -2.906  0.00  0.00    +0.000 HD
BRANCH  14  17
ATOM     17  C   UNL     1      15.715   6.982  -2.260  0.00  0.00    +0.000 C 
ATOM     18  H   UNL     1      16.782   6.986  -2.514  0.00  0.00    +0.000 HD
ATOM     19  H   UNL     1      15.594   7.363  -1.241  0.00  0.00    +0.000 HD
BRANCH  17  21
ATOM     20  O   UNL     1      15.269   9.120  -3.339  0.00  0.00    +0.000 OA
ATOM     21  C   UNL     1      15.012   7.932  -3.202  0.00  0.00    +0.000 C 
BRANCH  21  22
ATOM     22  O   UNL     1      14.049   7.295  -3.920  0.00  0.00    +0.000 OA
ATOM     23  H   UNL     1      13.428   7.928  -4.340  0.00  0.00    +0.000 HD
ENDBRANCH  21  22
ENDBRANCH  17  21
ENDBRANCH  14  17
ENDBRANCH   1  14
TORSDOF 7
ENDMDL
MODEL 8
REMARK VINA RESULT:    -3.831     26.394     27.163
REMARK INTER + INTRA:          -5.370
REMARK INTER:                  -5.175
REMARK INTRA:                  -0.196
REMARK UNBOUND:                -0.195
REMARK  Name = 8094
REMARK  7 active torsions:
REMARK  status: ('A' for Active; 'I' for Inactive)
REMARK    1  A    between atoms: O_1  and  C_9
REMARK    2  A    between atoms: C_3  and  C_4
REMARK    3  A    between atoms: C_3  and  C_5
REMARK    4  A    between atoms: C_4  and  C_6
REMARK    5  A    between atoms: C_5  and  C_7
REMARK    6  A    between atoms: C_6  and  C_8
REMARK    7  A    between atoms: C_7  and  C_9
REMARK                            x       y       z     vdW  Elec       q    Type
REMARK                         _______ _______ _______ _____ _____    ______ ____
ROOT
ATOM      1  C   UNL     1       0.584   3.375 -20.026  0.00  0.00    +0.000 C 
ATOM      2  H   UNL     1       0.119   3.211 -19.046  0.00  0.00    +0.000 HD
ATOM      3  H   UNL     1       1.176   2.482 -20.259  0.00  0.00    +0.000 HD
ENDROOT
BRANCH   1   4
ATOM      4  C   UNL     1       1.505   4.596 -19.959  0.00  0.00    +0.000 C 
ATOM      5  H   UNL     1       2.087   4.561 -19.029  0.00  0.00    +0.000 HD
ATOM      6  H   UNL     1       2.225   4.549 -20.784  0.00  0.00    +0.000 HD
BRANCH   4   7
ATOM      7  C   UNL     1       0.754   5.927 -20.024  0.00  0.00    +0.000 C 
ATOM      8  H   UNL     1      -0.198   5.782 -20.550  0.00  0.00    +0.000 HD
ATOM      9  H   UNL     1       1.337   6.644 -20.616  0.00  0.00    +0.000 HD
BRANCH   7  10
ATOM     10  C   UNL     1       0.473   6.534 -18.658  0.00  0.00    +0.000 C 
ATOM     11  H   UNL     1       1.211   6.186 -17.929  0.00  0.00    +0.000 HD
ATOM     12  H   UNL     1      -0.521   6.247 -18.301  0.00  0.00    +0.000 HD
ATOM     13  H   UNL     1       0.522   7.626 -18.699  0.00  0.00    +0.000 HD
ENDBRANCH   7  10
ENDBRANCH   4   7
ENDBRANCH   1   4
BRANCH   1  14
ATOM     14  C   UNL     1      -0.504   3.562 -21.090  0.00  0.00    +0.000 C 
ATOM     15  H   UNL     1      -0.089   4.104 -21.948  0.00  0.00    +0.000 HD
ATOM     16  H   UNL     1      -1.308   4.187 -20.685  0.00  0.00    +0.000 HD
BRANCH  14  17
ATOM     17  C   UNL     1      -1.086   2.231 -21.569  0.00  0.00    +0.000 C 
ATOM     18  H   UNL     1      -2.124   2.379 -21.890  0.00  0.00    +0.000 HD
ATOM     19  H   UNL     1      -1.073   1.511 -20.743  0.00  0.00    +0.000 HD
BRANCH  17  21
ATOM     20  O   UNL     1      -0.027   2.209 -23.763  0.00  0.00    +0.000 OA
ATOM     21  C   UNL     1      -0.324   1.629 -22.727  0.00  0.00    +0.000 C 
BRANCH  21  22
ATOM     22  O   UNL     1       0.027   0.340 -22.473  0.00  0.00    +0.000 OA
ATOM     23  H   UNL     1      -0.646  -0.120 -21.928  0.00  0.00    +0.000 HD
ENDBRANCH  21  22
ENDBRANCH  17  21
ENDBRANCH  14  17
ENDBRANCH   1  14
TORSDOF 7
ENDMDL
MODEL 9
REMARK VINA RESULT:    -3.822     29.761     30.116
REMARK INTER + INTRA:          -5.357
REMARK INTER:                  -5.162
REMARK INTRA:                  -0.195
REMARK UNBOUND:                -0.195
REMARK  Name = 8094
REMARK  7 active torsions:
REMARK  status: ('A' for Active; 'I' for Inactive)
REMARK    1  A    between atoms: O_1  and  C_9
REMARK    2  A    between atoms: C_3  and  C_4
REMARK    3  A    between atoms: C_3  and  C_5
REMARK    4  A    between atoms: C_4  and  C_6
REMARK    5  A    between atoms: C_5  and  C_7
REMARK    6  A    between atoms: C_6  and  C_8
REMARK    7  A    between atoms: C_7  and  C_9
REMARK                            x       y       z     vdW  Elec       q    Type
REMARK                         _______ _______ _______ _____ _____    ______ ____
ROOT
ATOM      1  C   UNL     1     -12.901  -5.288  -6.850  0.00  0.00    +0.000 C 
ATOM      2  H   UNL     1     -12.561  -6.331  -6.840  0.00  0.00    +0.000 HD
ATOM      3  H   UNL     1     -13.989  -5.302  -6.990  0.00  0.00    +0.000 HD
ENDROOT
BRANCH   1   4
ATOM      4  C   UNL     1     -12.245  -4.544  -8.015  0.00  0.00    +0.000 C 
ATOM      5  H   UNL     1     -11.224  -4.920  -8.157  0.00  0.00    +0.000 HD
ATOM      6  H   UNL     1     -12.794  -4.764  -8.938  0.00  0.00    +0.000 HD
BRANCH   4   7
ATOM      7  C   UNL     1     -12.192  -3.028  -7.814  0.00  0.00    +0.000 C 
ATOM      8  H   UNL     1     -11.183  -2.739  -7.493  0.00  0.00    +0.000 HD
ATOM      9  H   UNL     1     -12.875  -2.745  -7.004  0.00  0.00    +0.000 HD
BRANCH   7  10
ATOM     10  C   UNL     1     -12.556  -2.237  -9.060  0.00  0.00    +0.000 C 
ATOM     11  H   UNL     1     -11.654  -1.835  -9.533  0.00  0.00    +0.000 HD
ATOM     12  H   UNL     1     -13.213  -1.398  -8.812  0.00  0.00    +0.000 HD
ATOM     13  H   UNL     1     -13.070  -2.871  -9.789  0.00  0.00    +0.000 HD
ENDBRANCH   7  10
ENDBRANCH   4   7
ENDBRANCH   1   4
BRANCH   1  14
ATOM     14  C   UNL     1     -12.565  -4.623  -5.510  0.00  0.00    +0.000 C 
ATOM     15  H   UNL     1     -13.228  -3.764  -5.349  0.00  0.00    +0.000 HD
ATOM     16  H   UNL     1     -11.543  -4.225  -5.545  0.00  0.00    +0.000 HD
BRANCH  14  17
ATOM     17  C   UNL     1     -12.695  -5.587  -4.330  0.00  0.00    +0.000 C 
ATOM     18  H   UNL     1     -12.162  -5.180  -3.462  0.00  0.00    +0.000 HD
ATOM     19  H   UNL     1     -12.248  -6.550  -4.597  0.00  0.00    +0.000 HD
BRANCH  17  21
ATOM     20  O   UNL     1     -14.962  -4.971  -3.684  0.00  0.00    +0.000 OA
ATOM     21  C   UNL     1     -14.128  -5.835  -3.917  0.00  0.00    +0.000 C 
BRANCH  21  22
ATOM     22  O   UNL     1     -14.403  -7.165  -3.857  0.00  0.00    +0.000 OA
ATOM     23  H   UNL     1     -14.079  -7.641  -4.651  0.00  0.00    +0.000 HD
ENDBRANCH  21  22
ENDBRANCH  17  21
ENDBRANCH  14  17
ENDBRANCH   1  14
TORSDOF 7
ENDMDL
MODEL 10
REMARK VINA RESULT:    -3.815     24.565     26.446
REMARK INTER + INTRA:          -5.348
REMARK INTER:                  -5.191
REMARK INTRA:                  -0.157
REMARK UNBOUND:                -0.195
REMARK  Name = 8094
REMARK  7 active torsions:
REMARK  status: ('A' for Active; 'I' for Inactive)
REMARK    1  A    between atoms: O_1  and  C_9
REMARK    2  A    between atoms: C_3  and  C_4
REMARK    3  A    between atoms: C_3  and  C_5
REMARK    4  A    between atoms: C_4  and  C_6
REMARK    5  A    between atoms: C_5  and  C_7
REMARK    6  A    between atoms: C_6  and  C_8
REMARK    7  A    between atoms: C_7  and  C_9
REMARK                            x       y       z     vdW  Elec       q    Type
REMARK                         _______ _______ _______ _____ _____    ______ ____
ROOT
ATOM      1  C   UNL     1      -7.172 -14.373   5.777  0.00  0.00    +0.000 C 
ATOM      2  H   UNL     1      -6.943 -15.211   5.107  0.00  0.00    +0.000 HD
ATOM      3  H   UNL     1      -6.232 -14.076   6.258  0.00  0.00    +0.000 HD
ENDROOT
BRANCH   1   4
ATOM      4  C   UNL     1      -8.172 -14.825   6.844  0.00  0.00    +0.000 C 
ATOM      5  H   UNL     1      -7.669 -14.864   7.819  0.00  0.00    +0.000 HD
ATOM      6  H   UNL     1      -8.969 -14.078   6.930  0.00  0.00    +0.000 HD
BRANCH   4   7
ATOM      7  C   UNL     1      -8.794 -16.192   6.551  0.00  0.00    +0.000 C 
ATOM      8  H   UNL     1      -8.340 -16.612   5.645  0.00  0.00    +0.000 HD
ATOM      9  H   UNL     1      -9.863 -16.066   6.341  0.00  0.00    +0.000 HD
BRANCH   7  10
ATOM     10  C   UNL     1      -8.634 -17.188   7.689  0.00  0.00    +0.000 C 
ATOM     11  H   UNL     1      -9.461 -17.091   8.399  0.00  0.00    +0.000 HD
ATOM     12  H   UNL     1      -7.698 -17.016   8.229  0.00  0.00    +0.000 HD
ATOM     13  H   UNL     1      -8.628 -18.215   7.311  0.00  0.00    +0.000 HD
ENDBRANCH   7  10
ENDBRANCH   4   7
ENDBRANCH   1   4
BRANCH   1  14
ATOM     14  C   UNL     1      -7.725 -13.197   4.964  0.00  0.00    +0.000 C 
ATOM     15  H   UNL     1      -7.406 -12.252   5.420  0.00  0.00    +0.000 HD
ATOM     16  H   UNL     1      -8.821 -13.208   5.005  0.00  0.00    +0.000 HD
BRANCH  14  17
ATOM     17  C   UNL     1      -7.271 -13.231   3.504  0.00  0.00    +0.000 C 
ATOM     18  H   UNL     1      -7.808 -12.464   2.934  0.00  0.00    +0.000 HD
ATOM     19  H   UNL     1      -7.499 -14.212   3.075  0.00  0.00    +0.000 HD
BRANCH  17  21
ATOM     20  O   UNL     1      -4.968 -13.798   2.947  0.00  0.00    +0.000 OA
ATOM     21  C   UNL     1      -5.789 -12.979   3.335  0.00  0.00    +0.000 C 
BRANCH  21  22
ATOM     22  O   UNL     1      -5.466 -11.696   3.646  0.00  0.00    +0.000 OA
ATOM     23  H   UNL     1      -4.829 -11.651   4.391  0.00  0.00    +0.000 HD
ENDBRANCH  21  22
ENDBRANCH  17  21
ENDBRANCH  14  17
ENDBRANCH   1  14
TORSDOF 7
ENDMDL
