MODEL 1
REMARK VINA RESULT:    -4.225      0.000      0.000
REMARK INTER + INTRA:          -6.359
REMARK INTER:                  -5.772
REMARK INTRA:                  -0.587
REMARK UNBOUND:                -0.405
REMARK  Name = 8908
REMARK  8 active torsions:
REMARK  status: ('A' for Active; 'I' for Inactive)
REMARK    1  A    between atoms: O_1  and  C_7
REMARK    2  A    between atoms: O_1  and  C_9
REMARK    3  A    between atoms: C_3  and  C_4
REMARK    4  A    between atoms: C_3  and  C_5
REMARK    5  A    between atoms: C_4  and  C_6
REMARK    6  A    between atoms: C_5  and  C_7
REMARK    7  A    between atoms: C_6  and  C_8
REMARK    8  A    between atoms: C_9  and  C_10
REMARK                            x       y       z     vdW  Elec       q    Type
REMARK                         _______ _______ _______ _____ _____    ______ ____
ROOT
ATOM      1  C   UNL     1      16.680  -4.395  -1.615  0.00  0.00    +0.000 C 
ATOM      2  H   UNL     1      16.902  -5.107  -0.809  0.00  0.00    +0.000 HD
ATOM      3  H   UNL     1      16.282  -3.491  -1.137  0.00  0.00    +0.000 HD
ENDROOT
BRANCH   1   4
ATOM      4  C   UNL     1      15.604  -4.995  -2.525  0.00  0.00    +0.000 C 
ATOM      5  H   UNL     1      14.699  -4.377  -2.469  0.00  0.00    +0.000 HD
ATOM      6  H   UNL     1      15.954  -4.949  -3.564  0.00  0.00    +0.000 HD
BRANCH   4   7
ATOM      7  C   UNL     1      15.248  -6.441  -2.174  0.00  0.00    +0.000 C 
ATOM      8  H   UNL     1      14.176  -6.608  -2.333  0.00  0.00    +0.000 HD
ATOM      9  H   UNL     1      15.786  -7.127  -2.839  0.00  0.00    +0.000 HD
BRANCH   7  10
ATOM     10  C   UNL     1      15.593  -6.760  -0.727  0.00  0.00    +0.000 C 
ATOM     11  H   UNL     1      14.718  -7.162  -0.209  0.00  0.00    +0.000 HD
ATOM     12  H   UNL     1      16.394  -7.504  -0.671  0.00  0.00    +0.000 HD
ATOM     13  H   UNL     1      15.921  -5.862  -0.195  0.00  0.00    +0.000 HD
ENDBRANCH   7  10
ENDBRANCH   4   7
ENDBRANCH   1   4
BRANCH   1  14
ATOM     14  C   UNL     1      17.973  -4.047  -2.350  0.00  0.00    +0.000 C 
ATOM     15  H   UNL     1      18.346  -3.069  -2.018  0.00  0.00    +0.000 HD
ATOM     16  H   UNL     1      17.782  -3.946  -3.426  0.00  0.00    +0.000 HD
BRANCH  14  17
ATOM     17  C   UNL     1      19.046  -5.104  -2.125  0.00  0.00    +0.000 C 
ATOM     18  H   UNL     1      20.020  -4.726  -2.457  0.00  0.00    +0.000 HD
ATOM     19  H   UNL     1      19.103  -5.358  -1.060  0.00  0.00    +0.000 HD
BRANCH  17  20
ATOM     20  O   UNL     1      18.710  -6.266  -2.871  0.00  0.00    +0.000 OA
BRANCH  20  22
ATOM     21  O   UNL     1      20.017  -5.819  -4.722  0.00  0.00    +0.000 OA
ATOM     22  C   UNL     1      18.978  -6.211  -4.212  0.00  0.00    +0.000 C 
BRANCH  22  23
ATOM     23  C   UNL     1      17.795  -6.707  -4.988  0.00  0.00    +0.000 C 
ATOM     24  H   UNL     1      16.874  -6.494  -4.438  0.00  0.00    +0.000 HD
ATOM     25  H   UNL     1      17.896  -7.779  -5.171  0.00  0.00    +0.000 HD
ATOM     26  H   UNL     1      17.752  -6.191  -5.951  0.00  0.00    +0.000 HD
ENDBRANCH  22  23
ENDBRANCH  20  22
ENDBRANCH  17  20
ENDBRANCH  14  17
ENDBRANCH   1  14
TORSDOF 8
ENDMDL
MODEL 2
REMARK VINA RESULT:    -3.859      2.068      3.883
REMARK INTER + INTRA:          -5.842
REMARK INTER:                  -5.329
REMARK INTRA:                  -0.514
REMARK UNBOUND:                -0.405
REMARK  Name = 8908
REMARK  8 active torsions:
REMARK  status: ('A' for Active; 'I' for Inactive)
REMARK    1  A    between atoms: O_1  and  C_7
REMARK    2  A    between atoms: O_1  and  C_9
REMARK    3  A    between atoms: C_3  and  C_4
REMARK    4  A    between atoms: C_3  and  C_5
REMARK    5  A    between atoms: C_4  and  C_6
REMARK    6  A    between atoms: C_5  and  C_7
REMARK    7  A    between atoms: C_6  and  C_8
REMARK    8  A    between atoms: C_9  and  C_10
REMARK                            x       y       z     vdW  Elec       q    Type
REMARK                         _______ _______ _______ _____ _____    ______ ____
ROOT
ATOM      1  C   UNL     1      15.457  -6.370  -2.670  0.00  0.00    +0.000 C 
ATOM      2  H   UNL     1      15.598  -7.379  -3.078  0.00  0.00    +0.000 HD
ATOM      3  H   UNL     1      14.446  -6.054  -2.953  0.00  0.00    +0.000 HD
ENDROOT
BRANCH   1   4
ATOM      4  C   UNL     1      16.476  -5.426  -3.317  0.00  0.00    +0.000 C 
ATOM      5  H   UNL     1      16.013  -4.936  -4.182  0.00  0.00    +0.000 HD
ATOM      6  H   UNL     1      16.726  -4.633  -2.601  0.00  0.00    +0.000 HD
BRANCH   4   7
ATOM      7  C   UNL     1      17.759  -6.129  -3.762  0.00  0.00    +0.000 C 
ATOM      8  H   UNL     1      18.591  -5.416  -3.767  0.00  0.00    +0.000 HD
ATOM      9  H   UNL     1      18.014  -6.922  -3.049  0.00  0.00    +0.000 HD
BRANCH   7  10
ATOM     10  C   UNL     1      17.607  -6.728  -5.153  0.00  0.00    +0.000 C 
ATOM     11  H   UNL     1      18.368  -7.496  -5.319  0.00  0.00    +0.000 HD
ATOM     12  H   UNL     1      16.623  -7.192  -5.274  0.00  0.00    +0.000 HD
ATOM     13  H   UNL     1      17.724  -5.962  -5.925  0.00  0.00    +0.000 HD
ENDBRANCH   7  10
ENDBRANCH   4   7
ENDBRANCH   1   4
BRANCH   1  14
ATOM     14  C   UNL     1      15.560  -6.424  -1.147  0.00  0.00    +0.000 C 
ATOM     15  H   UNL     1      16.369  -7.101  -0.846  0.00  0.00    +0.000 HD
ATOM     16  H   UNL     1      14.642  -6.845  -0.720  0.00  0.00    +0.000 HD
BRANCH  14  17
ATOM     17  C   UNL     1      15.806  -5.043  -0.555  0.00  0.00    +0.000 C 
ATOM     18  H   UNL     1      16.061  -4.334  -1.351  0.00  0.00    +0.000 HD
ATOM     19  H   UNL     1      14.906  -4.691  -0.036  0.00  0.00    +0.000 HD
BRANCH  17  20
ATOM     20  O   UNL     1      16.883  -5.124   0.369  0.00  0.00    +0.000 OA
BRANCH  20  22
ATOM     21  O   UNL     1      19.015  -5.786  -0.223  0.00  0.00    +0.000 OA
ATOM     22  C   UNL     1      18.133  -4.942  -0.157  0.00  0.00    +0.000 C 
BRANCH  22  23
ATOM     23  C   UNL     1      18.277  -3.535  -0.653  0.00  0.00    +0.000 C 
ATOM     24  H   UNL     1      19.285  -3.169  -0.442  0.00  0.00    +0.000 HD
ATOM     25  H   UNL     1      17.527  -2.897  -0.180  0.00  0.00    +0.000 HD
ATOM     26  H   UNL     1      18.120  -3.515  -1.736  0.00  0.00    +0.000 HD
ENDBRANCH  22  23
ENDBRANCH  20  22
ENDBRANCH  17  20
ENDBRANCH  14  17
ENDBRANCH   1  14
TORSDOF 8
ENDMDL
MODEL 3
REMARK VINA RESULT:    -3.718      2.821      5.078
REMARK INTER + INTRA:          -5.644
REMARK INTER:                  -5.377
REMARK INTRA:                  -0.267
REMARK UNBOUND:                -0.405
REMARK  Name = 8908
REMARK  8 active torsions:
REMARK  status: ('A' for Active; 'I' for Inactive)
REMARK    1  A    between atoms: O_1  and  C_7
REMARK    2  A    between atoms: O_1  and  C_9
REMARK    3  A    between atoms: C_3  and  C_4
REMARK    4  A    between atoms: C_3  and  C_5
REMARK    5  A    between atoms: C_4  and  C_6
REMARK    6  A    between atoms: C_5  and  C_7
REMARK    7  A    between atoms: C_6  and  C_8
REMARK    8  A    between atoms: C_9  and  C_10
REMARK                            x       y       z     vdW  Elec       q    Type
REMARK                         _______ _______ _______ _____ _____    ______ ____
ROOT
ATOM      1  C   UNL     1      15.860  -4.923  -2.245  0.00  0.00    +0.000 C 
ATOM      2  H   UNL     1      15.035  -4.327  -2.655  0.00  0.00    +0.000 HD
ATOM      3  H   UNL     1      16.144  -4.457  -1.293  0.00  0.00    +0.000 HD
ENDROOT
BRANCH   1   4
ATOM      4  C   UNL     1      17.049  -4.859  -3.209  0.00  0.00    +0.000 C 
ATOM      5  H   UNL     1      16.719  -4.418  -4.158  0.00  0.00    +0.000 HD
ATOM      6  H   UNL     1      17.805  -4.182  -2.792  0.00  0.00    +0.000 HD
BRANCH   4   7
ATOM      7  C   UNL     1      17.685  -6.223  -3.481  0.00  0.00    +0.000 C 
ATOM      8  H   UNL     1      18.724  -6.225  -3.130  0.00  0.00    +0.000 HD
ATOM      9  H   UNL     1      17.151  -6.999  -2.920  0.00  0.00    +0.000 HD
BRANCH   7  10
ATOM     10  C   UNL     1      17.659  -6.560  -4.964  0.00  0.00    +0.000 C 
ATOM     11  H   UNL     1      17.352  -7.599  -5.111  0.00  0.00    +0.000 HD
ATOM     12  H   UNL     1      16.952  -5.918  -5.499  0.00  0.00    +0.000 HD
ATOM     13  H   UNL     1      18.648  -6.430  -5.413  0.00  0.00    +0.000 HD
ENDBRANCH   7  10
ENDBRANCH   4   7
ENDBRANCH   1   4
BRANCH   1  14
ATOM     14  C   UNL     1      15.369  -6.346  -1.980  0.00  0.00    +0.000 C 
ATOM     15  H   UNL     1      15.844  -7.046  -2.680  0.00  0.00    +0.000 HD
ATOM     16  H   UNL     1      14.291  -6.417  -2.172  0.00  0.00    +0.000 HD
BRANCH  14  17
ATOM     17  C   UNL     1      15.659  -6.780  -0.550  0.00  0.00    +0.000 C 
ATOM     18  H   UNL     1      14.933  -7.539  -0.234  0.00  0.00    +0.000 HD
ATOM     19  H   UNL     1      16.669  -7.200  -0.483  0.00  0.00    +0.000 HD
BRANCH  17  20
ATOM     20  O   UNL     1      15.560  -5.648   0.303  0.00  0.00    +0.000 OA
BRANCH  20  22
ATOM     21  O   UNL     1      15.506  -5.105   2.548  0.00  0.00    +0.000 OA
ATOM     22  C   UNL     1      15.426  -5.917   1.638  0.00  0.00    +0.000 C 
BRANCH  22  23
ATOM     23  C   UNL     1      15.162  -7.380   1.838  0.00  0.00    +0.000 C 
ATOM     24  H   UNL     1      14.471  -7.521   2.672  0.00  0.00    +0.000 HD
ATOM     25  H   UNL     1      16.103  -7.904   2.022  0.00  0.00    +0.000 HD
ATOM     26  H   UNL     1      14.705  -7.792   0.933  0.00  0.00    +0.000 HD
ENDBRANCH  22  23
ENDBRANCH  20  22
ENDBRANCH  17  20
ENDBRANCH  14  17
ENDBRANCH   1  14
TORSDOF 8
ENDMDL
MODEL 4
REMARK VINA RESULT:    -3.650     23.643     25.513
REMARK INTER + INTRA:          -5.549
REMARK INTER:                  -5.313
REMARK INTRA:                  -0.236
REMARK UNBOUND:                -0.405
REMARK  Name = 8908
REMARK  8 active torsions:
REMARK  status: ('A' for Active; 'I' for Inactive)
REMARK    1  A    between atoms: O_1  and  C_7
REMARK    2  A    between atoms: O_1  and  C_9
REMARK    3  A    between atoms: C_3  and  C_4
REMARK    4  A    between atoms: C_3  and  C_5
REMARK    5  A    between atoms: C_4  and  C_6
REMARK    6  A    between atoms: C_5  and  C_7
REMARK    7  A    between atoms: C_6  and  C_8
REMARK    8  A    between atoms: C_9  and  C_10
REMARK                            x       y       z     vdW  Elec       q    Type
REMARK                         _______ _______ _______ _____ _____    ______ ____
ROOT
ATOM      1  C   UNL     1      -6.249 -13.497   4.365  0.00  0.00    +0.000 C 
ATOM      2  H   UNL     1      -6.018 -14.472   4.812  0.00  0.00    +0.000 HD
ATOM      3  H   UNL     1      -5.460 -12.807   4.688  0.00  0.00    +0.000 HD
ENDROOT
BRANCH   1   4
ATOM      4  C   UNL     1      -7.595 -13.007   4.908  0.00  0.00    +0.000 C 
ATOM      5  H   UNL     1      -7.639 -11.914   4.829  0.00  0.00    +0.000 HD
ATOM      6  H   UNL     1      -8.398 -13.403   4.273  0.00  0.00    +0.000 HD
BRANCH   4   7
ATOM      7  C   UNL     1      -7.850 -13.417   6.360  0.00  0.00    +0.000 C 
ATOM      8  H   UNL     1      -6.965 -13.198   6.968  0.00  0.00    +0.000 HD
ATOM      9  H   UNL     1      -8.681 -12.831   6.770  0.00  0.00    +0.000 HD
BRANCH   7  10
ATOM     10  C   UNL     1      -8.174 -14.900   6.467  0.00  0.00    +0.000 C 
ATOM     11  H   UNL     1      -9.118 -15.043   7.002  0.00  0.00    +0.000 HD
ATOM     12  H   UNL     1      -8.273 -15.352   5.475  0.00  0.00    +0.000 HD
ATOM     13  H   UNL     1      -7.390 -15.434   7.012  0.00  0.00    +0.000 HD
ENDBRANCH   7  10
ENDBRANCH   4   7
ENDBRANCH   1   4
BRANCH   1  14
ATOM     14  C   UNL     1      -6.217 -13.621   2.843  0.00  0.00    +0.000 C 
ATOM     15  H   UNL     1      -5.646 -12.791   2.408  0.00  0.00    +0.000 HD
ATOM     16  H   UNL     1      -7.231 -13.534   2.434  0.00  0.00    +0.000 HD
BRANCH  14  17
ATOM     17  C   UNL     1      -5.605 -14.944   2.403  0.00  0.00    +0.000 C 
ATOM     18  H   UNL     1      -5.377 -15.562   3.279  0.00  0.00    +0.000 HD
ATOM     19  H   UNL     1      -6.305 -15.484   1.755  0.00  0.00    +0.000 HD
BRANCH  17  20
ATOM     20  O   UNL     1      -4.406 -14.681   1.687  0.00  0.00    +0.000 OA
BRANCH  20  22
ATOM     21  O   UNL     1      -3.167 -15.768   3.304  0.00  0.00    +0.000 OA
ATOM     22  C   UNL     1      -3.248 -15.083   2.295  0.00  0.00    +0.000 C 
BRANCH  22  23
ATOM     23  C   UNL     1      -2.066 -14.555   1.539  0.00  0.00    +0.000 C 
ATOM     24  H   UNL     1      -1.152 -15.037   1.897  0.00  0.00    +0.000 HD
ATOM     25  H   UNL     1      -2.003 -13.471   1.660  0.00  0.00    +0.000 HD
ATOM     26  H   UNL     1      -2.186 -14.782   0.476  0.00  0.00    +0.000 HD
ENDBRANCH  22  23
ENDBRANCH  20  22
ENDBRANCH  17  20
ENDBRANCH  14  17
ENDBRANCH   1  14
TORSDOF 8
ENDMDL
MODEL 5
REMARK VINA RESULT:    -3.620     11.541     13.061
REMARK INTER + INTRA:          -5.507
REMARK INTER:                  -5.240
REMARK INTRA:                  -0.267
REMARK UNBOUND:                -0.405
REMARK  Name = 8908
REMARK  8 active torsions:
REMARK  status: ('A' for Active; 'I' for Inactive)
REMARK    1  A    between atoms: O_1  and  C_7
REMARK    2  A    between atoms: O_1  and  C_9
REMARK    3  A    between atoms: C_3  and  C_4
REMARK    4  A    between atoms: C_3  and  C_5
REMARK    5  A    between atoms: C_4  and  C_6
REMARK    6  A    between atoms: C_5  and  C_7
REMARK    7  A    between atoms: C_6  and  C_8
REMARK    8  A    between atoms: C_9  and  C_10
REMARK                            x       y       z     vdW  Elec       q    Type
REMARK                         _______ _______ _______ _____ _____    ______ ____
ROOT
ATOM      1  C   UNL     1      15.098   6.236  -3.051  0.00  0.00    +0.000 C 
ATOM      2  H   UNL     1      16.062   6.246  -3.576  0.00  0.00    +0.000 HD
ATOM      3  H   UNL     1      14.360   5.830  -3.754  0.00  0.00    +0.000 HD
ENDROOT
BRANCH   1   4
ATOM      4  C   UNL     1      14.711   7.675  -2.695  0.00  0.00    +0.000 C 
ATOM      5  H   UNL     1      13.750   7.916  -3.167  0.00  0.00    +0.000 HD
ATOM      6  H   UNL     1      14.556   7.741  -1.611  0.00  0.00    +0.000 HD
BRANCH   4   7
ATOM      7  C   UNL     1      15.755   8.708  -3.122  0.00  0.00    +0.000 C 
ATOM      8  H   UNL     1      15.691   8.875  -4.203  0.00  0.00    +0.000 HD
ATOM      9  H   UNL     1      15.549   9.667  -2.632  0.00  0.00    +0.000 HD
BRANCH   7  10
ATOM     10  C   UNL     1      17.162   8.250  -2.770  0.00  0.00    +0.000 C 
ATOM     11  H   UNL     1      17.845   9.104  -2.756  0.00  0.00    +0.000 HD
ATOM     12  H   UNL     1      17.185   7.779  -1.781  0.00  0.00    +0.000 HD
ATOM     13  H   UNL     1      17.535   7.528  -3.503  0.00  0.00    +0.000 HD
ENDBRANCH   7  10
ENDBRANCH   4   7
ENDBRANCH   1   4
BRANCH   1  14
ATOM     14  C   UNL     1      15.194   5.314  -1.837  0.00  0.00    +0.000 C 
ATOM     15  H   UNL     1      16.247   5.139  -1.577  0.00  0.00    +0.000 HD
ATOM     16  H   UNL     1      14.776   4.328  -2.074  0.00  0.00    +0.000 HD
BRANCH  14  17
ATOM     17  C   UNL     1      14.464   5.897  -0.634  0.00  0.00    +0.000 C 
ATOM     18  H   UNL     1      15.065   5.757   0.273  0.00  0.00    +0.000 HD
ATOM     19  H   UNL     1      14.287   6.967  -0.786  0.00  0.00    +0.000 HD
BRANCH  17  20
ATOM     20  O   UNL     1      13.219   5.227  -0.483  0.00  0.00    +0.000 OA
BRANCH  20  22
ATOM     21  O   UNL     1      12.840   5.396   1.789  0.00  0.00    +0.000 OA
ATOM     22  C   UNL     1      12.955   4.736   0.766  0.00  0.00    +0.000 C 
BRANCH  22  23
ATOM     23  C   UNL     1      12.823   3.244   0.709  0.00  0.00    +0.000 C 
ATOM     24  H   UNL     1      11.793   2.954   0.931  0.00  0.00    +0.000 HD
ATOM     25  H   UNL     1      13.516   2.784   1.418  0.00  0.00    +0.000 HD
ATOM     26  H   UNL     1      13.073   2.897  -0.298  0.00  0.00    +0.000 HD
ENDBRANCH  22  23
ENDBRANCH  20  22
ENDBRANCH  17  20
ENDBRANCH  14  17
ENDBRANCH   1  14
TORSDOF 8
ENDMDL
MODEL 6
REMARK VINA RESULT:    -3.599     32.872     34.440
REMARK INTER + INTRA:          -5.477
REMARK INTER:                  -5.350
REMARK INTRA:                  -0.127
REMARK UNBOUND:                -0.405
REMARK  Name = 8908
REMARK  8 active torsions:
REMARK  status: ('A' for Active; 'I' for Inactive)
REMARK    1  A    between atoms: O_1  and  C_7
REMARK    2  A    between atoms: O_1  and  C_9
REMARK    3  A    between atoms: C_3  and  C_4
REMARK    4  A    between atoms: C_3  and  C_5
REMARK    5  A    between atoms: C_4  and  C_6
REMARK    6  A    between atoms: C_5  and  C_7
REMARK    7  A    between atoms: C_6  and  C_8
REMARK    8  A    between atoms: C_9  and  C_10
REMARK                            x       y       z     vdW  Elec       q    Type
REMARK                         _______ _______ _______ _____ _____    ______ ____
ROOT
ATOM      1  C   UNL     1     -18.341  -5.946  -2.415  0.00  0.00    +0.000 C 
ATOM      2  H   UNL     1     -18.782  -5.969  -1.411  0.00  0.00    +0.000 HD
ATOM      3  H   UNL     1     -18.409  -4.910  -2.767  0.00  0.00    +0.000 HD
ENDROOT
BRANCH   1   4
ATOM      4  C   UNL     1     -19.167  -6.844  -3.342  0.00  0.00    +0.000 C 
ATOM      5  H   UNL     1     -19.649  -6.224  -4.107  0.00  0.00    +0.000 HD
ATOM      6  H   UNL     1     -18.489  -7.527  -3.869  0.00  0.00    +0.000 HD
BRANCH   4   7
ATOM      7  C   UNL     1     -20.234  -7.658  -2.606  0.00  0.00    +0.000 C 
ATOM      8  H   UNL     1     -19.793  -8.583  -2.217  0.00  0.00    +0.000 HD
ATOM      9  H   UNL     1     -20.607  -7.088  -1.747  0.00  0.00    +0.000 HD
BRANCH   7  10
ATOM     10  C   UNL     1     -21.395  -8.007  -3.526  0.00  0.00    +0.000 C 
ATOM     11  H   UNL     1     -21.580  -9.085  -3.508  0.00  0.00    +0.000 HD
ATOM     12  H   UNL     1     -22.311  -7.499  -3.209  0.00  0.00    +0.000 HD
ATOM     13  H   UNL     1     -21.179  -7.716  -4.558  0.00  0.00    +0.000 HD
ENDBRANCH   7  10
ENDBRANCH   4   7
ENDBRANCH   1   4
BRANCH   1  14
ATOM     14  C   UNL     1     -16.871  -6.353  -2.328  0.00  0.00    +0.000 C 
ATOM     15  H   UNL     1     -16.786  -7.399  -2.007  0.00  0.00    +0.000 HD
ATOM     16  H   UNL     1     -16.358  -5.761  -1.560  0.00  0.00    +0.000 HD
BRANCH  14  17
ATOM     17  C   UNL     1     -16.161  -6.172  -3.663  0.00  0.00    +0.000 C 
ATOM     18  H   UNL     1     -16.730  -6.665  -4.460  0.00  0.00    +0.000 HD
ATOM     19  H   UNL     1     -16.067  -5.105  -3.896  0.00  0.00    +0.000 HD
BRANCH  17  20
ATOM     20  O   UNL     1     -14.867  -6.753  -3.578  0.00  0.00    +0.000 OA
BRANCH  20  22
ATOM     21  O   UNL     1     -14.147  -6.488  -5.757  0.00  0.00    +0.000 OA
ATOM     22  C   UNL     1     -13.981  -6.378  -4.551  0.00  0.00    +0.000 C 
BRANCH  22  23
ATOM     23  C   UNL     1     -12.749  -5.800  -3.922  0.00  0.00    +0.000 C 
ATOM     24  H   UNL     1     -11.914  -5.851  -4.626  0.00  0.00    +0.000 HD
ATOM     25  H   UNL     1     -12.513  -6.343  -3.003  0.00  0.00    +0.000 HD
ATOM     26  H   UNL     1     -12.929  -4.751  -3.671  0.00  0.00    +0.000 HD
ENDBRANCH  22  23
ENDBRANCH  20  22
ENDBRANCH  17  20
ENDBRANCH  14  17
ENDBRANCH   1  14
TORSDOF 8
ENDMDL
MODEL 7
REMARK VINA RESULT:    -3.595     23.180     24.185
REMARK INTER + INTRA:          -5.471
REMARK INTER:                  -5.283
REMARK INTRA:                  -0.188
REMARK UNBOUND:                -0.405
REMARK  Name = 8908
REMARK  8 active torsions:
REMARK  status: ('A' for Active; 'I' for Inactive)
REMARK    1  A    between atoms: O_1  and  C_7
REMARK    2  A    between atoms: O_1  and  C_9
REMARK    3  A    between atoms: C_3  and  C_4
REMARK    4  A    between atoms: C_3  and  C_5
REMARK    5  A    between atoms: C_4  and  C_6
REMARK    6  A    between atoms: C_5  and  C_7
REMARK    7  A    between atoms: C_6  and  C_8
REMARK    8  A    between atoms: C_9  and  C_10
REMARK                            x       y       z     vdW  Elec       q    Type
REMARK                         _______ _______ _______ _____ _____    ______ ____
ROOT
ATOM      1  C   UNL     1       5.736   5.292 -19.273  0.00  0.00    +0.000 C 
ATOM      2  H   UNL     1       6.549   5.302 -20.010  0.00  0.00    +0.000 HD
ATOM      3  H   UNL     1       5.497   6.340 -19.053  0.00  0.00    +0.000 HD
ENDROOT
BRANCH   1   4
ATOM      4  C   UNL     1       6.234   4.613 -17.993  0.00  0.00    +0.000 C 
ATOM      5  H   UNL     1       6.745   5.355 -17.367  0.00  0.00    +0.000 HD
ATOM      6  H   UNL     1       5.367   4.260 -17.420  0.00  0.00    +0.000 HD
BRANCH   4   7
ATOM      7  C   UNL     1       7.179   3.440 -18.256  0.00  0.00    +0.000 C 
ATOM      8  H   UNL     1       7.393   2.917 -17.316  0.00  0.00    +0.000 HD
ATOM      9  H   UNL     1       6.697   2.719 -18.927  0.00  0.00    +0.000 HD
BRANCH   7  10
ATOM     10  C   UNL     1       8.488   3.911 -18.873  0.00  0.00    +0.000 C 
ATOM     11  H   UNL     1       8.321   4.811 -19.472  0.00  0.00    +0.000 HD
ATOM     12  H   UNL     1       9.222   4.149 -18.097  0.00  0.00    +0.000 HD
ATOM     13  H   UNL     1       8.913   3.142 -19.524  0.00  0.00    +0.000 HD
ENDBRANCH   7  10
ENDBRANCH   4   7
ENDBRANCH   1   4
BRANCH   1  14
ATOM     14  C   UNL     1       4.511   4.614 -19.883  0.00  0.00    +0.000 C 
ATOM     15  H   UNL     1       4.263   3.704 -19.321  0.00  0.00    +0.000 HD
ATOM     16  H   UNL     1       4.730   4.283 -20.906  0.00  0.00    +0.000 HD
BRANCH  14  17
ATOM     17  C   UNL     1       3.307   5.545 -19.900  0.00  0.00    +0.000 C 
ATOM     18  H   UNL     1       3.064   5.863 -18.879  0.00  0.00    +0.000 HD
ATOM     19  H   UNL     1       3.526   6.430 -20.508  0.00  0.00    +0.000 HD
BRANCH  17  20
ATOM     20  O   UNL     1       2.197   4.852 -20.455  0.00  0.00    +0.000 OA
BRANCH  20  22
ATOM     21  O   UNL     1       0.383   3.884 -19.401  0.00  0.00    +0.000 OA
ATOM     22  C   UNL     1       1.053   4.861 -19.704  0.00  0.00    +0.000 C 
BRANCH  22  23
ATOM     23  C   UNL     1       0.725   6.265 -19.293  0.00  0.00    +0.000 C 
ATOM     24  H   UNL     1       1.590   6.720 -18.803  0.00  0.00    +0.000 HD
ATOM     25  H   UNL     1      -0.140   6.263 -18.625  0.00  0.00    +0.000 HD
ATOM     26  H   UNL     1       0.478   6.854 -20.181  0.00  0.00    +0.000 HD
ENDBRANCH  22  23
ENDBRANCH  20  22
ENDBRANCH  17  20
ENDBRANCH  14  17
ENDBRANCH   1  14
TORSDOF 8
ENDMDL
MODEL 8
REMARK VINA RESULT:    -3.516      1.947      3.099
REMARK INTER + INTRA:          -5.359
REMARK INTER:                  -4.966
REMARK INTRA:                  -0.392
REMARK UNBOUND:                -0.405
REMARK  Name = 8908
REMARK  8 active torsions:
REMARK  status: ('A' for Active; 'I' for Inactive)
REMARK    1  A    between atoms: O_1  and  C_7
REMARK    2  A    between atoms: O_1  and  C_9
REMARK    3  A    between atoms: C_3  and  C_4
REMARK    4  A    between atoms: C_3  and  C_5
REMARK    5  A    between atoms: C_4  and  C_6
REMARK    6  A    between atoms: C_5  and  C_7
REMARK    7  A    between atoms: C_6  and  C_8
REMARK    8  A    between atoms: C_9  and  C_10
REMARK                            x       y       z     vdW  Elec       q    Type
REMARK                         _______ _______ _______ _____ _____    ______ ____
ROOT
ATOM      1  C   UNL     1      17.729  -6.156  -4.266  0.00  0.00    +0.000 C 
ATOM      2  H   UNL     1      17.566  -5.191  -4.764  0.00  0.00    +0.000 HD
ATOM      3  H   UNL     1      17.250  -6.919  -4.892  0.00  0.00    +0.000 HD
ENDROOT
BRANCH   1   4
ATOM      4  C   UNL     1      17.043  -6.130  -2.896  0.00  0.00    +0.000 C 
ATOM      5  H   UNL     1      16.517  -7.080  -2.740  0.00  0.00    +0.000 HD
ATOM      6  H   UNL     1      17.812  -6.063  -2.117  0.00  0.00    +0.000 HD
BRANCH   4   7
ATOM      7  C   UNL     1      16.054  -4.974  -2.734  0.00  0.00    +0.000 C 
ATOM      8  H   UNL     1      16.490  -4.053  -3.138  0.00  0.00    +0.000 HD
ATOM      9  H   UNL     1      15.143  -5.182  -3.308  0.00  0.00    +0.000 HD
BRANCH   7  10
ATOM     10  C   UNL     1      15.694  -4.756  -1.272  0.00  0.00    +0.000 C 
ATOM     11  H   UNL     1      14.609  -4.679  -1.157  0.00  0.00    +0.000 HD
ATOM     12  H   UNL     1      16.044  -5.588  -0.654  0.00  0.00    +0.000 HD
ATOM     13  H   UNL     1      16.142  -3.833  -0.891  0.00  0.00    +0.000 HD
ENDBRANCH   7  10
ENDBRANCH   4   7
ENDBRANCH   1   4
BRANCH   1  14
ATOM     14  C   UNL     1      19.228  -6.436  -4.189  0.00  0.00    +0.000 C 
ATOM     15  H   UNL     1      19.539  -7.067  -5.033  0.00  0.00    +0.000 HD
ATOM     16  H   UNL     1      19.461  -7.011  -3.284  0.00  0.00    +0.000 HD
BRANCH  14  17
ATOM     17  C   UNL     1      20.039  -5.147  -4.193  0.00  0.00    +0.000 C 
ATOM     18  H   UNL     1      20.576  -5.044  -5.143  0.00  0.00    +0.000 HD
ATOM     19  H   UNL     1      19.374  -4.286  -4.061  0.00  0.00    +0.000 HD
BRANCH  17  20
ATOM     20  O   UNL     1      20.975  -5.190  -3.124  0.00  0.00    +0.000 OA
BRANCH  20  22
ATOM     21  O   UNL     1      22.043  -3.635  -1.791  0.00  0.00    +0.000 OA
ATOM     22  C   UNL     1      21.043  -4.066  -2.347  0.00  0.00    +0.000 C 
BRANCH  22  23
ATOM     23  C   UNL     1      19.693  -3.418  -2.268  0.00  0.00    +0.000 C 
ATOM     24  H   UNL     1      18.946  -4.059  -2.744  0.00  0.00    +0.000 HD
ATOM     25  H   UNL     1      19.724  -2.438  -2.750  0.00  0.00    +0.000 HD
ATOM     26  H   UNL     1      19.418  -3.282  -1.218  0.00  0.00    +0.000 HD
ENDBRANCH  22  23
ENDBRANCH  20  22
ENDBRANCH  17  20
ENDBRANCH  14  17
ENDBRANCH   1  14
TORSDOF 8
ENDMDL
MODEL 9
REMARK VINA RESULT:    -3.502      1.985      3.355
REMARK INTER + INTRA:          -5.340
REMARK INTER:                  -5.061
REMARK INTRA:                  -0.279
REMARK UNBOUND:                -0.405
REMARK  Name = 8908
REMARK  8 active torsions:
REMARK  status: ('A' for Active; 'I' for Inactive)
REMARK    1  A    between atoms: O_1  and  C_7
REMARK    2  A    between atoms: O_1  and  C_9
REMARK    3  A    between atoms: C_3  and  C_4
REMARK    4  A    between atoms: C_3  and  C_5
REMARK    5  A    between atoms: C_4  and  C_6
REMARK    6  A    between atoms: C_5  and  C_7
REMARK    7  A    between atoms: C_6  and  C_8
REMARK    8  A    between atoms: C_9  and  C_10
REMARK                            x       y       z     vdW  Elec       q    Type
REMARK                         _______ _______ _______ _____ _____    ______ ____
ROOT
ATOM      1  C   UNL     1      17.413  -5.948  -3.986  0.00  0.00    +0.000 C 
ATOM      2  H   UNL     1      17.318  -5.568  -5.011  0.00  0.00    +0.000 HD
ATOM      3  H   UNL     1      17.261  -7.034  -4.036  0.00  0.00    +0.000 HD
ENDROOT
BRANCH   1   4
ATOM      4  C   UNL     1      16.311  -5.328  -3.121  0.00  0.00    +0.000 C 
ATOM      5  H   UNL     1      16.771  -4.804  -2.274  0.00  0.00    +0.000 HD
ATOM      6  H   UNL     1      15.783  -4.569  -3.712  0.00  0.00    +0.000 HD
BRANCH   4   7
ATOM      7  C   UNL     1      15.304  -6.351  -2.594  0.00  0.00    +0.000 C 
ATOM      8  H   UNL     1      14.285  -6.029  -2.837  0.00  0.00    +0.000 HD
ATOM      9  H   UNL     1      15.466  -7.318  -3.087  0.00  0.00    +0.000 HD
BRANCH   7  10
ATOM     10  C   UNL     1      15.427  -6.524  -1.088  0.00  0.00    +0.000 C 
ATOM     11  H   UNL     1      14.806  -7.359  -0.751  0.00  0.00    +0.000 HD
ATOM     12  H   UNL     1      16.463  -6.731  -0.800  0.00  0.00    +0.000 HD
ATOM     13  H   UNL     1      15.098  -5.622  -0.562  0.00  0.00    +0.000 HD
ENDBRANCH   7  10
ENDBRANCH   4   7
ENDBRANCH   1   4
BRANCH   1  14
ATOM     14  C   UNL     1      18.823  -5.661  -3.472  0.00  0.00    +0.000 C 
ATOM     15  H   UNL     1      19.569  -6.058  -4.172  0.00  0.00    +0.000 HD
ATOM     16  H   UNL     1      18.994  -6.184  -2.523  0.00  0.00    +0.000 HD
BRANCH  14  17
ATOM     17  C   UNL     1      19.053  -4.169  -3.276  0.00  0.00    +0.000 C 
ATOM     18  H   UNL     1      19.670  -3.775  -4.092  0.00  0.00    +0.000 HD
ATOM     19  H   UNL     1      18.093  -3.640  -3.264  0.00  0.00    +0.000 HD
BRANCH  17  20
ATOM     20  O   UNL     1      19.721  -3.966  -2.038  0.00  0.00    +0.000 OA
BRANCH  20  22
ATOM     21  O   UNL     1      17.890  -3.540  -0.696  0.00  0.00    +0.000 OA
ATOM     22  C   UNL     1      19.017  -3.276  -1.088  0.00  0.00    +0.000 C 
BRANCH  22  23
ATOM     23  C   UNL     1      19.836  -2.127  -0.583  0.00  0.00    +0.000 C 
ATOM     24  H   UNL     1      19.534  -1.877   0.438  0.00  0.00    +0.000 HD
ATOM     25  H   UNL     1      19.712  -1.265  -1.243  0.00  0.00    +0.000 HD
ATOM     26  H   UNL     1      20.892  -2.411  -0.574  0.00  0.00    +0.000 HD
ENDBRANCH  22  23
ENDBRANCH  20  22
ENDBRANCH  17  20
ENDBRANCH  14  17
ENDBRANCH   1  14
TORSDOF 8
ENDMDL
MODEL 10
REMARK VINA RESULT:    -3.348     26.280     27.622
REMARK INTER + INTRA:          -5.123
REMARK INTER:                  -4.718
REMARK INTRA:                  -0.405
REMARK UNBOUND:                -0.405
REMARK  Name = 8908
REMARK  8 active torsions:
REMARK  status: ('A' for Active; 'I' for Inactive)
REMARK    1  A    between atoms: O_1  and  C_7
REMARK    2  A    between atoms: O_1  and  C_9
REMARK    3  A    between atoms: C_3  and  C_4
REMARK    4  A    between atoms: C_3  and  C_5
REMARK    5  A    between atoms: C_4  and  C_6
REMARK    6  A    between atoms: C_5  and  C_7
REMARK    7  A    between atoms: C_6  and  C_8
REMARK    8  A    between atoms: C_9  and  C_10
REMARK                            x       y       z     vdW  Elec       q    Type
REMARK                         _______ _______ _______ _____ _____    ______ ____
ROOT
ATOM      1  C   UNL     1      -5.591 -13.654   4.630  0.00  0.00    +0.000 C 
ATOM      2  H   UNL     1      -5.695 -13.449   5.703  0.00  0.00    +0.000 HD
ATOM      3  H   UNL     1      -4.662 -13.170   4.304  0.00  0.00    +0.000 HD
ENDROOT
BRANCH   1   4
ATOM      4  C   UNL     1      -6.772 -13.022   3.886  0.00  0.00    +0.000 C 
ATOM      5  H   UNL     1      -7.543 -12.737   4.612  0.00  0.00    +0.000 HD
ATOM      6  H   UNL     1      -6.432 -12.096   3.406  0.00  0.00    +0.000 HD
BRANCH   4   7
ATOM      7  C   UNL     1      -7.389 -13.943   2.832  0.00  0.00    +0.000 C 
ATOM      8  H   UNL     1      -7.036 -14.970   2.984  0.00  0.00    +0.000 HD
ATOM      9  H   UNL     1      -8.479 -13.954   2.942  0.00  0.00    +0.000 HD
BRANCH   7  10
ATOM     10  C   UNL     1      -7.025 -13.494   1.424  0.00  0.00    +0.000 C 
ATOM     11  H   UNL     1      -6.213 -14.111   1.029  0.00  0.00    +0.000 HD
ATOM     12  H   UNL     1      -7.882 -13.587   0.750  0.00  0.00    +0.000 HD
ATOM     13  H   UNL     1      -6.694 -12.451   1.418  0.00  0.00    +0.000 HD
ENDBRANCH   7  10
ENDBRANCH   4   7
ENDBRANCH   1   4
BRANCH   1  14
ATOM     14  C   UNL     1      -5.474 -15.162   4.414  0.00  0.00    +0.000 C 
ATOM     15  H   UNL     1      -4.442 -15.428   4.151  0.00  0.00    +0.000 HD
ATOM     16  H   UNL     1      -6.090 -15.472   3.560  0.00  0.00    +0.000 HD
BRANCH  14  17
ATOM     17  C   UNL     1      -5.899 -15.939   5.653  0.00  0.00    +0.000 C 
ATOM     18  H   UNL     1      -5.439 -16.934   5.648  0.00  0.00    +0.000 HD
ATOM     19  H   UNL     1      -5.586 -15.403   6.556  0.00  0.00    +0.000 HD
BRANCH  17  20
ATOM     20  O   UNL     1      -7.314 -16.072   5.648  0.00  0.00    +0.000 OA
BRANCH  20  22
ATOM     21  O   UNL     1      -8.037 -14.357   7.017  0.00  0.00    +0.000 OA
ATOM     22  C   UNL     1      -7.966 -15.544   6.729  0.00  0.00    +0.000 C 
BRANCH  22  23
ATOM     23  C   UNL     1      -8.593 -16.643   7.533  0.00  0.00    +0.000 C 
ATOM     24  H   UNL     1      -9.682 -16.549   7.502  0.00  0.00    +0.000 HD
ATOM     25  H   UNL     1      -8.231 -16.601   8.563  0.00  0.00    +0.000 HD
ATOM     26  H   UNL     1      -8.314 -17.609   7.104  0.00  0.00    +0.000 HD
ENDBRANCH  22  23
ENDBRANCH  20  22
ENDBRANCH  17  20
ENDBRANCH  14  17
ENDBRANCH   1  14
TORSDOF 8
ENDMDL
