MODEL 1
REMARK VINA RESULT:    -4.182      0.000      0.000
REMARK INTER + INTRA:          -5.457
REMARK INTER:                  -5.324
REMARK INTRA:                  -0.133
REMARK UNBOUND:                -0.176
REMARK  Name = 8038
REMARK  6 active torsions:
REMARK  status: ('A' for Active; 'I' for Inactive)
REMARK    1  A    between atoms: O_1  and  C_4
REMARK    2  A    between atoms: O_1  and  C_7
REMARK    3  A    between atoms: C_3  and  C_4
REMARK    4  A    between atoms: C_3  and  C_5
REMARK    5  A    between atoms: C_3  and  C_6
REMARK    6  A    between atoms: C_7  and  C_8
REMARK                            x       y       z     vdW  Elec       q    Type
REMARK                         _______ _______ _______ _____ _____    ______ ____
ROOT
ATOM      1  C   UNL     1       2.287  -5.900  -7.532  0.00  0.00    +0.000 C 
ATOM      2  H   UNL     1       2.635  -4.944  -7.942  0.00  0.00    +0.000 HD
ENDROOT
BRANCH   1   3
ATOM      3  C   UNL     1       0.771  -5.958  -7.732  0.00  0.00    +0.000 C 
ATOM      4  H   UNL     1       0.256  -5.359  -6.973  0.00  0.00    +0.000 HD
ATOM      5  H   UNL     1       0.400  -6.986  -7.660  0.00  0.00    +0.000 HD
ATOM      6  H   UNL     1       0.486  -5.562  -8.713  0.00  0.00    +0.000 HD
ENDBRANCH   1   3
BRANCH   1   7
ATOM      7  C   UNL     1       2.627  -5.949  -6.044  0.00  0.00    +0.000 C 
ATOM      8  H   UNL     1       2.177  -5.102  -5.514  0.00  0.00    +0.000 HD
ATOM      9  H   UNL     1       3.710  -5.900  -5.892  0.00  0.00    +0.000 HD
ATOM     10  H   UNL     1       2.261  -6.871  -5.581  0.00  0.00    +0.000 HD
ENDBRANCH   1   7
BRANCH   1  11
ATOM     11  C   UNL     1       2.992  -7.036  -8.279  0.00  0.00    +0.000 C 
ATOM     12  H   UNL     1       2.730  -7.997  -7.819  0.00  0.00    +0.000 HD
ATOM     13  H   UNL     1       2.677  -7.051  -9.329  0.00  0.00    +0.000 HD
BRANCH  11  14
ATOM     14  O   UNL     1       4.401  -6.859  -8.209  0.00  0.00    +0.000 OA
BRANCH  14  16
ATOM     15  O   UNL     1       4.430  -6.078 -10.383  0.00  0.00    +0.000 OA
ATOM     16  C   UNL     1       4.991  -6.334  -9.325  0.00  0.00    +0.000 C 
BRANCH  16  17
ATOM     17  C   UNL     1       6.451  -6.111  -9.074  0.00  0.00    +0.000 C 
ATOM     18  H   UNL     1       7.043  -6.680  -9.794  0.00  0.00    +0.000 HD
ATOM     19  H   UNL     1       6.699  -6.406  -8.051  0.00  0.00    +0.000 HD
ATOM     20  H   UNL     1       6.681  -5.049  -9.195  0.00  0.00    +0.000 HD
ENDBRANCH  16  17
ENDBRANCH  14  16
ENDBRANCH  11  14
ENDBRANCH   1  11
TORSDOF 6
ENDMDL
MODEL 2
REMARK VINA RESULT:    -3.963     13.293     14.986
REMARK INTER + INTRA:          -5.181
REMARK INTER:                  -4.994
REMARK INTRA:                  -0.187
REMARK UNBOUND:                -0.176
REMARK  Name = 8038
REMARK  6 active torsions:
REMARK  status: ('A' for Active; 'I' for Inactive)
REMARK    1  A    between atoms: O_1  and  C_4
REMARK    2  A    between atoms: O_1  and  C_7
REMARK    3  A    between atoms: C_3  and  C_4
REMARK    4  A    between atoms: C_3  and  C_5
REMARK    5  A    between atoms: C_3  and  C_6
REMARK    6  A    between atoms: C_7  and  C_8
REMARK                            x       y       z     vdW  Elec       q    Type
REMARK                         _______ _______ _______ _____ _____    ______ ____
ROOT
ATOM      1  C   UNL     1      18.590  -6.312  -3.964  0.00  0.00    +0.000 C 
ATOM      2  H   UNL     1      18.681  -7.210  -3.340  0.00  0.00    +0.000 HD
ENDROOT
BRANCH   1   3
ATOM      3  C   UNL     1      17.700  -6.672  -5.155  0.00  0.00    +0.000 C 
ATOM      4  H   UNL     1      16.951  -7.418  -4.870  0.00  0.00    +0.000 HD
ATOM      5  H   UNL     1      18.290  -7.085  -5.980  0.00  0.00    +0.000 HD
ATOM      6  H   UNL     1      17.164  -5.793  -5.529  0.00  0.00    +0.000 HD
ENDBRANCH   1   3
BRANCH   1   7
ATOM      7  C   UNL     1      19.981  -5.905  -4.445  0.00  0.00    +0.000 C 
ATOM      8  H   UNL     1      19.939  -5.506  -5.464  0.00  0.00    +0.000 HD
ATOM      9  H   UNL     1      20.657  -6.767  -4.452  0.00  0.00    +0.000 HD
ATOM     10  H   UNL     1      20.417  -5.137  -3.798  0.00  0.00    +0.000 HD
ENDBRANCH   1   7
BRANCH   1  11
ATOM     11  C   UNL     1      17.969  -5.194  -3.121  0.00  0.00    +0.000 C 
ATOM     12  H   UNL     1      18.108  -5.417  -2.056  0.00  0.00    +0.000 HD
ATOM     13  H   UNL     1      18.452  -4.237  -3.347  0.00  0.00    +0.000 HD
BRANCH  11  14
ATOM     14  O   UNL     1      16.577  -5.098  -3.395  0.00  0.00    +0.000 OA
BRANCH  14  16
ATOM     15  O   UNL     1      15.558  -4.480  -1.416  0.00  0.00    +0.000 OA
ATOM     16  C   UNL     1      15.746  -5.279  -2.324  0.00  0.00    +0.000 C 
BRANCH  16  17
ATOM     17  C   UNL     1      15.080  -6.618  -2.415  0.00  0.00    +0.000 C 
ATOM     18  H   UNL     1      15.254  -7.053  -3.402  0.00  0.00    +0.000 HD
ATOM     19  H   UNL     1      14.009  -6.512  -2.224  0.00  0.00    +0.000 HD
ATOM     20  H   UNL     1      15.504  -7.286  -1.660  0.00  0.00    +0.000 HD
ENDBRANCH  16  17
ENDBRANCH  14  16
ENDBRANCH  11  14
ENDBRANCH   1  11
TORSDOF 6
ENDMDL
MODEL 3
REMARK VINA RESULT:    -3.849      3.310      5.199
REMARK INTER + INTRA:          -5.037
REMARK INTER:                  -4.874
REMARK INTRA:                  -0.163
REMARK UNBOUND:                -0.176
REMARK  Name = 8038
REMARK  6 active torsions:
REMARK  status: ('A' for Active; 'I' for Inactive)
REMARK    1  A    between atoms: O_1  and  C_4
REMARK    2  A    between atoms: O_1  and  C_7
REMARK    3  A    between atoms: C_3  and  C_4
REMARK    4  A    between atoms: C_3  and  C_5
REMARK    5  A    between atoms: C_3  and  C_6
REMARK    6  A    between atoms: C_7  and  C_8
REMARK                            x       y       z     vdW  Elec       q    Type
REMARK                         _______ _______ _______ _____ _____    ______ ____
ROOT
ATOM      1  C   UNL     1       2.176  -5.941  -7.555  0.00  0.00    +0.000 C 
ATOM      2  H   UNL     1       2.542  -5.009  -8.003  0.00  0.00    +0.000 HD
ENDROOT
BRANCH   1   3
ATOM      3  C   UNL     1       2.697  -5.994  -6.118  0.00  0.00    +0.000 C 
ATOM      4  H   UNL     1       3.730  -5.632  -6.066  0.00  0.00    +0.000 HD
ATOM      5  H   UNL     1       2.678  -7.016  -5.726  0.00  0.00    +0.000 HD
ATOM      6  H   UNL     1       2.093  -5.365  -5.455  0.00  0.00    +0.000 HD
ENDBRANCH   1   3
BRANCH   1   7
ATOM      7  C   UNL     1       2.721  -7.119  -8.361  0.00  0.00    +0.000 C 
ATOM      8  H   UNL     1       3.735  -7.377  -8.034  0.00  0.00    +0.000 HD
ATOM      9  H   UNL     1       2.767  -6.872  -9.426  0.00  0.00    +0.000 HD
ATOM     10  H   UNL     1       2.092  -8.007  -8.244  0.00  0.00    +0.000 HD
ENDBRANCH   1   7
BRANCH   1  11
ATOM     11  C   UNL     1       0.645  -5.931  -7.594  0.00  0.00    +0.000 C 
ATOM     12  H   UNL     1       0.299  -5.126  -8.252  0.00  0.00    +0.000 HD
ATOM     13  H   UNL     1       0.270  -6.887  -7.979  0.00  0.00    +0.000 HD
BRANCH  11  14
ATOM     14  O   UNL     1       0.130  -5.714  -6.287  0.00  0.00    +0.000 OA
BRANCH  14  16
ATOM     15  O   UNL     1      -1.769  -4.793  -5.346  0.00  0.00    +0.000 OA
ATOM     16  C   UNL     1      -0.883  -4.800  -6.191  0.00  0.00    +0.000 C 
BRANCH  16  17
ATOM     17  C   UNL     1      -0.760  -3.785  -7.286  0.00  0.00    +0.000 C 
ATOM     18  H   UNL     1      -1.753  -3.493  -7.635  0.00  0.00    +0.000 HD
ATOM     19  H   UNL     1      -0.169  -4.197  -8.107  0.00  0.00    +0.000 HD
ATOM     20  H   UNL     1      -0.251  -2.897  -6.901  0.00  0.00    +0.000 HD
ENDBRANCH  16  17
ENDBRANCH  14  16
ENDBRANCH  11  14
ENDBRANCH   1  11
TORSDOF 6
ENDMDL
MODEL 4
REMARK VINA RESULT:    -3.638      4.650      5.979
REMARK INTER + INTRA:          -4.770
REMARK INTER:                  -4.619
REMARK INTRA:                  -0.152
REMARK UNBOUND:                -0.176
REMARK  Name = 8038
REMARK  6 active torsions:
REMARK  status: ('A' for Active; 'I' for Inactive)
REMARK    1  A    between atoms: O_1  and  C_4
REMARK    2  A    between atoms: O_1  and  C_7
REMARK    3  A    between atoms: C_3  and  C_4
REMARK    4  A    between atoms: C_3  and  C_5
REMARK    5  A    between atoms: C_3  and  C_6
REMARK    6  A    between atoms: C_7  and  C_8
REMARK                            x       y       z     vdW  Elec       q    Type
REMARK                         _______ _______ _______ _____ _____    ______ ____
ROOT
ATOM      1  C   UNL     1       1.026  -1.225  -7.837  0.00  0.00    +0.000 C 
ATOM      2  H   UNL     1       1.530  -1.278  -6.863  0.00  0.00    +0.000 HD
ENDROOT
BRANCH   1   3
ATOM      3  C   UNL     1       1.929  -0.421  -8.775  0.00  0.00    +0.000 C 
ATOM      4  H   UNL     1       2.640   0.186  -8.204  0.00  0.00    +0.000 HD
ATOM      5  H   UNL     1       1.342   0.253  -9.408  0.00  0.00    +0.000 HD
ATOM      6  H   UNL     1       2.509  -1.081  -9.428  0.00  0.00    +0.000 HD
ENDBRANCH   1   3
BRANCH   1   7
ATOM      7  C   UNL     1      -0.316  -0.518  -7.656  0.00  0.00    +0.000 C 
ATOM      8  H   UNL     1      -0.309   0.105  -6.755  0.00  0.00    +0.000 HD
ATOM      9  H   UNL     1      -1.127  -1.245  -7.553  0.00  0.00    +0.000 HD
ATOM     10  H   UNL     1      -0.544   0.127  -8.511  0.00  0.00    +0.000 HD
ENDBRANCH   1   7
BRANCH   1  11
ATOM     11  C   UNL     1       0.813  -2.650  -8.354  0.00  0.00    +0.000 C 
ATOM     12  H   UNL     1      -0.139  -2.707  -8.895  0.00  0.00    +0.000 HD
ATOM     13  H   UNL     1       1.623  -2.930  -9.037  0.00  0.00    +0.000 HD
BRANCH  11  14
ATOM     14  O   UNL     1       0.779  -3.561  -7.262  0.00  0.00    +0.000 OA
BRANCH  14  16
ATOM     15  O   UNL     1      -1.416  -3.792  -6.579  0.00  0.00    +0.000 OA
ATOM     16  C   UNL     1      -0.397  -4.238  -7.089  0.00  0.00    +0.000 C 
BRANCH  16  17
ATOM     17  C   UNL     1      -0.265  -5.632  -7.620  0.00  0.00    +0.000 C 
ATOM     18  H   UNL     1       0.711  -5.759  -8.093  0.00  0.00    +0.000 HD
ATOM     19  H   UNL     1      -1.068  -5.833  -8.334  0.00  0.00    +0.000 HD
ATOM     20  H   UNL     1      -0.348  -6.344  -6.794  0.00  0.00    +0.000 HD
ENDBRANCH  16  17
ENDBRANCH  14  16
ENDBRANCH  11  14
ENDBRANCH   1  11
TORSDOF 6
ENDMDL
MODEL 5
REMARK VINA RESULT:    -3.522     25.083     26.216
REMARK INTER + INTRA:          -4.625
REMARK INTER:                  -4.473
REMARK INTRA:                  -0.151
REMARK UNBOUND:                -0.176
REMARK  Name = 8038
REMARK  6 active torsions:
REMARK  status: ('A' for Active; 'I' for Inactive)
REMARK    1  A    between atoms: O_1  and  C_4
REMARK    2  A    between atoms: O_1  and  C_7
REMARK    3  A    between atoms: C_3  and  C_4
REMARK    4  A    between atoms: C_3  and  C_5
REMARK    5  A    between atoms: C_3  and  C_6
REMARK    6  A    between atoms: C_7  and  C_8
REMARK                            x       y       z     vdW  Elec       q    Type
REMARK                         _______ _______ _______ _____ _____    ______ ____
ROOT
ATOM      1  C   UNL     1      13.653  16.759 -11.492  0.00  0.00    +0.000 C 
ATOM      2  H   UNL     1      14.159  16.306 -10.630  0.00  0.00    +0.000 HD
ENDROOT
BRANCH   1   3
ATOM      3  C   UNL     1      12.804  15.670 -12.150  0.00  0.00    +0.000 C 
ATOM      4  H   UNL     1      12.445  14.953 -11.403  0.00  0.00    +0.000 HD
ATOM      5  H   UNL     1      13.381  15.116 -12.899  0.00  0.00    +0.000 HD
ATOM      6  H   UNL     1      11.926  16.097 -12.645  0.00  0.00    +0.000 HD
ENDBRANCH   1   3
BRANCH   1   7
ATOM      7  C   UNL     1      14.712  17.269 -12.468  0.00  0.00    +0.000 C 
ATOM      8  H   UNL     1      14.278  17.991 -13.170  0.00  0.00    +0.000 HD
ATOM      9  H   UNL     1      15.129  16.444 -13.054  0.00  0.00    +0.000 HD
ATOM     10  H   UNL     1      15.535  17.762 -11.942  0.00  0.00    +0.000 HD
ENDBRANCH   1   7
BRANCH   1  11
ATOM     11  C   UNL     1      12.785  17.918 -10.993  0.00  0.00    +0.000 C 
ATOM     12  H   UNL     1      12.447  17.710  -9.971  0.00  0.00    +0.000 HD
ATOM     13  H   UNL     1      13.363  18.850 -10.990  0.00  0.00    +0.000 HD
BRANCH  11  14
ATOM     14  O   UNL     1      11.649  18.069 -11.835  0.00  0.00    +0.000 OA
BRANCH  14  16
ATOM     15  O   UNL     1       9.968  19.588 -12.282  0.00  0.00    +0.000 OA
ATOM     16  C   UNL     1      10.834  19.129 -11.550  0.00  0.00    +0.000 C 
BRANCH  16  17
ATOM     17  C   UNL     1      11.152  19.666 -10.188  0.00  0.00    +0.000 C 
ATOM     18  H   UNL     1      10.302  20.235  -9.805  0.00  0.00    +0.000 HD
ATOM     19  H   UNL     1      12.045  20.295 -10.237  0.00  0.00    +0.000 HD
ATOM     20  H   UNL     1      11.350  18.834  -9.507  0.00  0.00    +0.000 HD
ENDBRANCH  16  17
ENDBRANCH  14  16
ENDBRANCH  11  14
ENDBRANCH   1  11
TORSDOF 6
ENDMDL
MODEL 6
REMARK VINA RESULT:    -3.384     16.001     17.292
REMARK INTER + INTRA:          -4.450
REMARK INTER:                  -4.325
REMARK INTRA:                  -0.125
REMARK UNBOUND:                -0.176
REMARK  Name = 8038
REMARK  6 active torsions:
REMARK  status: ('A' for Active; 'I' for Inactive)
REMARK    1  A    between atoms: O_1  and  C_4
REMARK    2  A    between atoms: O_1  and  C_7
REMARK    3  A    between atoms: C_3  and  C_4
REMARK    4  A    between atoms: C_3  and  C_5
REMARK    5  A    between atoms: C_3  and  C_6
REMARK    6  A    between atoms: C_7  and  C_8
REMARK                            x       y       z     vdW  Elec       q    Type
REMARK                         _______ _______ _______ _____ _____    ______ ____
ROOT
ATOM      1  C   UNL     1      -6.933 -14.204   0.952  0.00  0.00    +0.000 C 
ATOM      2  H   UNL     1      -7.898 -14.703   1.109  0.00  0.00    +0.000 HD
ENDROOT
BRANCH   1   3
ATOM      3  C   UNL     1      -7.127 -13.174  -0.163  0.00  0.00    +0.000 C 
ATOM      4  H   UNL     1      -6.821 -12.177   0.172  0.00  0.00    +0.000 HD
ATOM      5  H   UNL     1      -8.176 -13.118  -0.472  0.00  0.00    +0.000 HD
ATOM      6  H   UNL     1      -6.526 -13.425  -1.043  0.00  0.00    +0.000 HD
ENDBRANCH   1   3
BRANCH   1   7
ATOM      7  C   UNL     1      -5.902 -15.251   0.534  0.00  0.00    +0.000 C 
ATOM      8  H   UNL     1      -5.441 -15.715   1.413  0.00  0.00    +0.000 HD
ATOM      9  H   UNL     1      -5.103 -14.794  -0.059  0.00  0.00    +0.000 HD
ATOM     10  H   UNL     1      -6.360 -16.044  -0.066  0.00  0.00    +0.000 HD
ENDBRANCH   1   7
BRANCH   1  11
ATOM     11  C   UNL     1      -6.512 -13.535   2.264  0.00  0.00    +0.000 C 
ATOM     12  H   UNL     1      -5.691 -14.101   2.719  0.00  0.00    +0.000 HD
ATOM     13  H   UNL     1      -6.170 -12.510   2.073  0.00  0.00    +0.000 HD
BRANCH  11  14
ATOM     14  O   UNL     1      -7.611 -13.507   3.166  0.00  0.00    +0.000 OA
BRANCH  14  16
ATOM     15  O   UNL     1      -8.095 -12.731   5.288  0.00  0.00    +0.000 OA
ATOM     16  C   UNL     1      -7.311 -13.172   4.458  0.00  0.00    +0.000 C 
BRANCH  16  17
ATOM     17  C   UNL     1      -5.859 -13.423   4.726  0.00  0.00    +0.000 C 
ATOM     18  H   UNL     1      -5.257 -13.042   3.898  0.00  0.00    +0.000 HD
ATOM     19  H   UNL     1      -5.688 -14.494   4.865  0.00  0.00    +0.000 HD
ATOM     20  H   UNL     1      -5.563 -12.902   5.641  0.00  0.00    +0.000 HD
ENDBRANCH  16  17
ENDBRANCH  14  16
ENDBRANCH  11  14
ENDBRANCH   1  11
TORSDOF 6
ENDMDL
MODEL 7
REMARK VINA RESULT:    -3.375      4.792      5.847
REMARK INTER + INTRA:          -4.439
REMARK INTER:                  -4.334
REMARK INTRA:                  -0.105
REMARK UNBOUND:                -0.176
REMARK  Name = 8038
REMARK  6 active torsions:
REMARK  status: ('A' for Active; 'I' for Inactive)
REMARK    1  A    between atoms: O_1  and  C_4
REMARK    2  A    between atoms: O_1  and  C_7
REMARK    3  A    between atoms: C_3  and  C_4
REMARK    4  A    between atoms: C_3  and  C_5
REMARK    5  A    between atoms: C_3  and  C_6
REMARK    6  A    between atoms: C_7  and  C_8
REMARK                            x       y       z     vdW  Elec       q    Type
REMARK                         _______ _______ _______ _____ _____    ______ ____
ROOT
ATOM      1  C   UNL     1      -0.179  -0.517  -7.948  0.00  0.00    +0.000 C 
ATOM      2  H   UNL     1       0.874  -0.370  -8.218  0.00  0.00    +0.000 HD
ENDROOT
BRANCH   1   3
ATOM      3  C   UNL     1      -1.026  -0.008  -9.116  0.00  0.00    +0.000 C 
ATOM      4  H   UNL     1      -2.090  -0.191  -8.932  0.00  0.00    +0.000 HD
ATOM      5  H   UNL     1      -0.754  -0.509 -10.051  0.00  0.00    +0.000 HD
ATOM      6  H   UNL     1      -0.896   1.070  -9.258  0.00  0.00    +0.000 HD
ENDBRANCH   1   3
BRANCH   1   7
ATOM      7  C   UNL     1      -0.478   0.287  -6.684  0.00  0.00    +0.000 C 
ATOM      8  H   UNL     1      -1.543   0.233  -6.433  0.00  0.00    +0.000 HD
ATOM      9  H   UNL     1      -0.222   1.341  -6.826  0.00  0.00    +0.000 HD
ATOM     10  H   UNL     1       0.091  -0.090  -5.828  0.00  0.00    +0.000 HD
ENDBRANCH   1   7
BRANCH   1  11
ATOM     11  C   UNL     1      -0.413  -2.010  -7.699  0.00  0.00    +0.000 C 
ATOM     12  H   UNL     1      -0.813  -2.156  -6.688  0.00  0.00    +0.000 HD
ATOM     13  H   UNL     1      -1.133  -2.407  -8.424  0.00  0.00    +0.000 HD
BRANCH  11  14
ATOM     14  O   UNL     1       0.815  -2.718  -7.816  0.00  0.00    +0.000 OA
BRANCH  14  16
ATOM     15  O   UNL     1       1.309  -3.601  -9.893  0.00  0.00    +0.000 OA
ATOM     16  C   UNL     1       0.846  -3.703  -8.765  0.00  0.00    +0.000 C 
BRANCH  16  17
ATOM     17  C   UNL     1       0.220  -4.952  -8.224  0.00  0.00    +0.000 C 
ATOM     18  H   UNL     1       0.602  -5.822  -8.763  0.00  0.00    +0.000 HD
ATOM     19  H   UNL     1      -0.867  -4.890  -8.314  0.00  0.00    +0.000 HD
ATOM     20  H   UNL     1       0.477  -5.057  -7.166  0.00  0.00    +0.000 HD
ENDBRANCH  16  17
ENDBRANCH  14  16
ENDBRANCH  11  14
ENDBRANCH   1  11
TORSDOF 6
ENDMDL
MODEL 8
REMARK VINA RESULT:    -3.369     17.423     18.815
REMARK INTER + INTRA:          -4.431
REMARK INTER:                  -4.242
REMARK INTRA:                  -0.188
REMARK UNBOUND:                -0.176
REMARK  Name = 8038
REMARK  6 active torsions:
REMARK  status: ('A' for Active; 'I' for Inactive)
REMARK    1  A    between atoms: O_1  and  C_4
REMARK    2  A    between atoms: O_1  and  C_7
REMARK    3  A    between atoms: C_3  and  C_4
REMARK    4  A    between atoms: C_3  and  C_5
REMARK    5  A    between atoms: C_3  and  C_6
REMARK    6  A    between atoms: C_7  and  C_8
REMARK                            x       y       z     vdW  Elec       q    Type
REMARK                         _______ _______ _______ _____ _____    ______ ____
ROOT
ATOM      1  C   UNL     1      -7.574 -14.853   6.200  0.00  0.00    +0.000 C 
ATOM      2  H   UNL     1      -6.535 -15.096   6.456  0.00  0.00    +0.000 HD
ENDROOT
BRANCH   1   3
ATOM      3  C   UNL     1      -7.842 -13.425   6.682  0.00  0.00    +0.000 C 
ATOM      4  H   UNL     1      -7.488 -12.694   5.947  0.00  0.00    +0.000 HD
ATOM      5  H   UNL     1      -7.330 -13.225   7.630  0.00  0.00    +0.000 HD
ATOM      6  H   UNL     1      -8.912 -13.252   6.831  0.00  0.00    +0.000 HD
ENDBRANCH   1   3
BRANCH   1   7
ATOM      7  C   UNL     1      -8.498 -15.836   6.915  0.00  0.00    +0.000 C 
ATOM      8  H   UNL     1      -9.536 -15.700   6.591  0.00  0.00    +0.000 HD
ATOM      9  H   UNL     1      -8.465 -15.683   7.998  0.00  0.00    +0.000 HD
ATOM     10  H   UNL     1      -8.213 -16.873   6.709  0.00  0.00    +0.000 HD
ENDBRANCH   1   7
BRANCH   1  11
ATOM     11  C   UNL     1      -7.742 -14.970   4.682  0.00  0.00    +0.000 C 
ATOM     12  H   UNL     1      -6.877 -15.493   4.256  0.00  0.00    +0.000 HD
ATOM     13  H   UNL     1      -8.650 -15.537   4.444  0.00  0.00    +0.000 HD
BRANCH  11  14
ATOM     14  O   UNL     1      -7.828 -13.673   4.104  0.00  0.00    +0.000 OA
BRANCH  14  16
ATOM     15  O   UNL     1      -7.448 -13.660   1.825  0.00  0.00    +0.000 OA
ATOM     16  C   UNL     1      -7.079 -13.473   2.977  0.00  0.00    +0.000 C 
BRANCH  16  17
ATOM     17  C   UNL     1      -5.714 -12.983   3.353  0.00  0.00    +0.000 C 
ATOM     18  H   UNL     1      -5.725 -11.896   3.454  0.00  0.00    +0.000 HD
ATOM     19  H   UNL     1      -4.989 -13.293   2.596  0.00  0.00    +0.000 HD
ATOM     20  H   UNL     1      -5.423 -13.420   4.312  0.00  0.00    +0.000 HD
ENDBRANCH  16  17
ENDBRANCH  14  16
ENDBRANCH  11  14
ENDBRANCH   1  11
TORSDOF 6
ENDMDL
MODEL 9
REMARK VINA RESULT:    -3.201     16.503     17.512
REMARK INTER + INTRA:          -4.219
REMARK INTER:                  -4.034
REMARK INTRA:                  -0.184
REMARK UNBOUND:                -0.176
REMARK  Name = 8038
REMARK  6 active torsions:
REMARK  status: ('A' for Active; 'I' for Inactive)
REMARK    1  A    between atoms: O_1  and  C_4
REMARK    2  A    between atoms: O_1  and  C_7
REMARK    3  A    between atoms: C_3  and  C_4
REMARK    4  A    between atoms: C_3  and  C_5
REMARK    5  A    between atoms: C_3  and  C_6
REMARK    6  A    between atoms: C_7  and  C_8
REMARK                            x       y       z     vdW  Elec       q    Type
REMARK                         _______ _______ _______ _____ _____    ______ ____
ROOT
ATOM      1  C   UNL     1      14.101   4.249   0.359  0.00  0.00    +0.000 C 
ATOM      2  H   UNL     1      14.412   4.626   1.341  0.00  0.00    +0.000 HD
ENDROOT
BRANCH   1   3
ATOM      3  C   UNL     1      12.769   3.521   0.550  0.00  0.00    +0.000 C 
ATOM      4  H   UNL     1      12.845   2.479   0.221  0.00  0.00    +0.000 HD
ATOM      5  H   UNL     1      11.970   3.999  -0.027  0.00  0.00    +0.000 HD
ATOM      6  H   UNL     1      12.469   3.513   1.603  0.00  0.00    +0.000 HD
ENDBRANCH   1   3
BRANCH   1   7
ATOM      7  C   UNL     1      15.166   3.282  -0.155  0.00  0.00    +0.000 C 
ATOM      8  H   UNL     1      14.808   2.247  -0.103  0.00  0.00    +0.000 HD
ATOM      9  H   UNL     1      16.076   3.351   0.448  0.00  0.00    +0.000 HD
ATOM     10  H   UNL     1      15.430   3.497  -1.196  0.00  0.00    +0.000 HD
ENDBRANCH   1   7
BRANCH   1  11
ATOM     11  C   UNL     1      13.955   5.438  -0.595  0.00  0.00    +0.000 C 
ATOM     12  H   UNL     1      12.892   5.620  -0.796  0.00  0.00    +0.000 HD
ATOM     13  H   UNL     1      14.388   6.339  -0.145  0.00  0.00    +0.000 HD
BRANCH  11  14
ATOM     14  O   UNL     1      14.616   5.158  -1.822  0.00  0.00    +0.000 OA
BRANCH  14  16
ATOM     15  O   UNL     1      14.716   6.823  -3.420  0.00  0.00    +0.000 OA
ATOM     16  C   UNL     1      15.179   6.232  -2.454  0.00  0.00    +0.000 C 
BRANCH  16  17
ATOM     17  C   UNL     1      16.470   6.596  -1.787  0.00  0.00    +0.000 C 
ATOM     18  H   UNL     1      16.905   5.713  -1.313  0.00  0.00    +0.000 HD
ATOM     19  H   UNL     1      16.296   7.383  -1.049  0.00  0.00    +0.000 HD
ATOM     20  H   UNL     1      17.173   6.971  -2.537  0.00  0.00    +0.000 HD
ENDBRANCH  16  17
ENDBRANCH  14  16
ENDBRANCH  11  14
ENDBRANCH   1  11
TORSDOF 6
ENDMDL
MODEL 10
REMARK VINA RESULT:    -3.146     25.450     26.393
REMARK INTER + INTRA:          -4.149
REMARK INTER:                  -3.974
REMARK INTRA:                  -0.176
REMARK UNBOUND:                -0.176
REMARK  Name = 8038
REMARK  6 active torsions:
REMARK  status: ('A' for Active; 'I' for Inactive)
REMARK    1  A    between atoms: O_1  and  C_4
REMARK    2  A    between atoms: O_1  and  C_7
REMARK    3  A    between atoms: C_3  and  C_4
REMARK    4  A    between atoms: C_3  and  C_5
REMARK    5  A    between atoms: C_3  and  C_6
REMARK    6  A    between atoms: C_7  and  C_8
REMARK                            x       y       z     vdW  Elec       q    Type
REMARK                         _______ _______ _______ _____ _____    ______ ____
ROOT
ATOM      1  C   UNL     1      11.186  19.398 -11.479  0.00  0.00    +0.000 C 
ATOM      2  H   UNL     1      10.170  19.395 -11.893  0.00  0.00    +0.000 HD
ENDROOT
BRANCH   1   3
ATOM      3  C   UNL     1      11.072  19.736  -9.991  0.00  0.00    +0.000 C 
ATOM      4  H   UNL     1      10.360  20.552  -9.832  0.00  0.00    +0.000 HD
ATOM      5  H   UNL     1      12.039  20.046  -9.580  0.00  0.00    +0.000 HD
ATOM      6  H   UNL     1      10.720  18.874  -9.415  0.00  0.00    +0.000 HD
ENDBRANCH   1   3
BRANCH   1   7
ATOM      7  C   UNL     1      12.008  20.462 -12.204  0.00  0.00    +0.000 C 
ATOM      8  H   UNL     1      12.707  19.999 -12.909  0.00  0.00    +0.000 HD
ATOM      9  H   UNL     1      12.594  21.051 -11.491  0.00  0.00    +0.000 HD
ATOM     10  H   UNL     1      11.365  21.148 -12.765  0.00  0.00    +0.000 HD
ENDBRANCH   1   7
BRANCH   1  11
ATOM     11  C   UNL     1      11.802  18.011 -11.690  0.00  0.00    +0.000 C 
ATOM     12  H   UNL     1      11.024  17.245 -11.593  0.00  0.00    +0.000 HD
ATOM     13  H   UNL     1      12.242  17.942 -12.692  0.00  0.00    +0.000 HD
BRANCH  11  14
ATOM     14  O   UNL     1      12.808  17.775 -10.714  0.00  0.00    +0.000 OA
BRANCH  14  16
ATOM     15  O   UNL     1      15.050  17.217 -10.721  0.00  0.00    +0.000 OA
ATOM     16  C   UNL     1      13.910  17.091 -11.148  0.00  0.00    +0.000 C 
BRANCH  16  17
ATOM     17  C   UNL     1      13.524  16.145 -12.244  0.00  0.00    +0.000 C 
ATOM     18  H   UNL     1      12.449  16.212 -12.431  0.00  0.00    +0.000 HD
ATOM     19  H   UNL     1      13.804  15.125 -11.967  0.00  0.00    +0.000 HD
ATOM     20  H   UNL     1      14.055  16.415 -13.161  0.00  0.00    +0.000 HD
ENDBRANCH  16  17
ENDBRANCH  14  16
ENDBRANCH  11  14
ENDBRANCH   1  11
TORSDOF 6
ENDMDL
