MODEL 1
REMARK VINA RESULT:    -5.387      0.000      0.000
REMARK INTER + INTRA:          -6.169
REMARK INTER:                  -6.014
REMARK INTRA:                  -0.155
REMARK UNBOUND:                -0.152
REMARK  Name = 22311
REMARK  3 active torsions:
REMARK  status: ('A' for Active; 'I' for Inactive)
REMARK    1  A    between atoms: C_1  and  C_7
REMARK    2  A    between atoms: C_5  and  C_8
REMARK    3  A    between atoms: C_7  and  C_9
REMARK                            x       y       z     vdW  Elec       q    Type
REMARK                         _______ _______ _______ _____ _____    ______ ____
ROOT
ATOM      1  C   UNL     1      17.070  -5.100  -3.173  0.00  0.00    +0.000 C 
ATOM      2  C   UNL     1      18.172  -4.453  -2.336  0.00  0.00    +0.000 C 
ATOM      3  C   UNL     1      17.568  -6.389  -3.832  0.00  0.00    +0.000 C 
ATOM      4  C   UNL     1      19.399  -4.130  -3.194  0.00  0.00    +0.000 C 
ATOM      5  C   UNL     1      19.774  -5.236  -4.149  0.00  0.00    +0.000 C 
ATOM      6  C   UNL     1      18.944  -6.259  -4.416  0.00  0.00    +0.000 C 
ATOM      7  H   UNL     1      16.783  -4.394  -3.964  0.00  0.00    +0.000 HD
ATOM      8  H   UNL     1      18.493  -5.118  -1.522  0.00  0.00    +0.000 HD
ATOM      9  H   UNL     1      17.813  -3.531  -1.862  0.00  0.00    +0.000 HD
ATOM     10  H   UNL     1      16.873  -6.670  -4.633  0.00  0.00    +0.000 HD
ATOM     11  H   UNL     1      17.596  -7.236  -3.136  0.00  0.00    +0.000 HD
ATOM     12  H   UNL     1      20.240  -3.911  -2.526  0.00  0.00    +0.000 HD
ATOM     13  H   UNL     1      19.205  -3.221  -3.776  0.00  0.00    +0.000 HD
ATOM     14  H   UNL     1      19.259  -7.046  -5.096  0.00  0.00    +0.000 HD
ENDROOT
BRANCH   1  15
ATOM     15  C   UNL     1      15.886  -5.390  -2.302  0.00  0.00    +0.000 C 
ATOM     16  C   UNL     1      15.570  -4.618  -1.252  0.00  0.00    +0.000 C 
ATOM     17  H   UNL     1      14.709  -4.845  -0.632  0.00  0.00    +0.000 HD
ATOM     18  H   UNL     1      16.149  -3.743  -0.978  0.00  0.00    +0.000 HD
BRANCH  15  19
ATOM     19  C   UNL     1      15.074  -6.597  -2.672  0.00  0.00    +0.000 C 
ATOM     20  H   UNL     1      15.314  -6.921  -3.690  0.00  0.00    +0.000 HD
ATOM     21  H   UNL     1      15.283  -7.422  -1.983  0.00  0.00    +0.000 HD
ATOM     22  H   UNL     1      13.997  -6.397  -2.633  0.00  0.00    +0.000 HD
ENDBRANCH  15  19
ENDBRANCH   1  15
BRANCH   5  23
ATOM     23  C   UNL     1      21.128  -5.126  -4.786  0.00  0.00    +0.000 C 
ATOM     24  H   UNL     1      21.182  -5.763  -5.675  0.00  0.00    +0.000 HD
ATOM     25  H   UNL     1      21.930  -5.434  -4.106  0.00  0.00    +0.000 HD
ATOM     26  H   UNL     1      21.324  -4.091  -5.086  0.00  0.00    +0.000 HD
ENDBRANCH   5  23
TORSDOF 3
ENDMDL
MODEL 2
REMARK VINA RESULT:    -5.324      1.673      4.408
REMARK INTER + INTRA:          -6.098
REMARK INTER:                  -5.946
REMARK INTRA:                  -0.152
REMARK UNBOUND:                -0.152
REMARK  Name = 22311
REMARK  3 active torsions:
REMARK  status: ('A' for Active; 'I' for Inactive)
REMARK    1  A    between atoms: C_1  and  C_7
REMARK    2  A    between atoms: C_5  and  C_8
REMARK    3  A    between atoms: C_7  and  C_9
REMARK                            x       y       z     vdW  Elec       q    Type
REMARK                         _______ _______ _______ _____ _____    ______ ____
ROOT
ATOM      1  C   UNL     1      17.693  -5.795  -2.957  0.00  0.00    +0.000 C 
ATOM      2  C   UNL     1      16.239  -6.258  -3.039  0.00  0.00    +0.000 C 
ATOM      3  C   UNL     1      18.407  -6.446  -1.768  0.00  0.00    +0.000 C 
ATOM      4  C   UNL     1      15.478  -5.917  -1.755  0.00  0.00    +0.000 C 
ATOM      5  C   UNL     1      16.256  -6.211  -0.497  0.00  0.00    +0.000 C 
ATOM      6  C   UNL     1      17.576  -6.464  -0.519  0.00  0.00    +0.000 C 
ATOM      7  H   UNL     1      17.697  -4.707  -2.810  0.00  0.00    +0.000 HD
ATOM      8  H   UNL     1      16.177  -7.344  -3.193  0.00  0.00    +0.000 HD
ATOM      9  H   UNL     1      15.729  -5.793  -3.892  0.00  0.00    +0.000 HD
ATOM     10  H   UNL     1      19.333  -5.893  -1.566  0.00  0.00    +0.000 HD
ATOM     11  H   UNL     1      18.703  -7.482  -1.969  0.00  0.00    +0.000 HD
ATOM     12  H   UNL     1      14.536  -6.479  -1.752  0.00  0.00    +0.000 HD
ATOM     13  H   UNL     1      15.216  -4.852  -1.760  0.00  0.00    +0.000 HD
ATOM     14  H   UNL     1      18.098  -6.689   0.407  0.00  0.00    +0.000 HD
ENDROOT
BRANCH   1  15
ATOM     15  C   UNL     1      18.400  -6.136  -4.232  0.00  0.00    +0.000 C 
ATOM     16  C   UNL     1      19.704  -5.880  -4.411  0.00  0.00    +0.000 C 
ATOM     17  H   UNL     1      20.200  -6.134  -5.342  0.00  0.00    +0.000 HD
ATOM     18  H   UNL     1      20.317  -5.417  -3.645  0.00  0.00    +0.000 HD
BRANCH  15  19
ATOM     19  C   UNL     1      17.564  -6.780  -5.300  0.00  0.00    +0.000 C 
ATOM     20  H   UNL     1      18.095  -7.633  -5.736  0.00  0.00    +0.000 HD
ATOM     21  H   UNL     1      16.618  -7.135  -4.878  0.00  0.00    +0.000 HD
ATOM     22  H   UNL     1      17.326  -6.085  -6.112  0.00  0.00    +0.000 HD
ENDBRANCH  15  19
ENDBRANCH   1  15
BRANCH   5  23
ATOM     23  C   UNL     1      15.471  -6.202   0.782  0.00  0.00    +0.000 C 
ATOM     24  H   UNL     1      14.478  -6.632   0.619  0.00  0.00    +0.000 HD
ATOM     25  H   UNL     1      15.336  -5.189   1.176  0.00  0.00    +0.000 HD
ATOM     26  H   UNL     1      15.985  -6.792   1.548  0.00  0.00    +0.000 HD
ENDBRANCH   5  23
TORSDOF 3
ENDMDL
MODEL 3
REMARK VINA RESULT:    -5.102     26.767     28.166
REMARK INTER + INTRA:          -5.851
REMARK INTER:                  -5.697
REMARK INTRA:                  -0.154
REMARK UNBOUND:                -0.152
REMARK  Name = 22311
REMARK  3 active torsions:
REMARK  status: ('A' for Active; 'I' for Inactive)
REMARK    1  A    between atoms: C_1  and  C_7
REMARK    2  A    between atoms: C_5  and  C_8
REMARK    3  A    between atoms: C_7  and  C_9
REMARK                            x       y       z     vdW  Elec       q    Type
REMARK                         _______ _______ _______ _____ _____    ______ ____
ROOT
ATOM      1  C   UNL     1      -8.160 -14.595   4.779  0.00  0.00    +0.000 C 
ATOM      2  C   UNL     1      -7.420 -13.345   4.309  0.00  0.00    +0.000 C 
ATOM      3  C   UNL     1      -7.552 -15.857   4.158  0.00  0.00    +0.000 C 
ATOM      4  C   UNL     1      -7.463 -13.218   2.784  0.00  0.00    +0.000 C 
ATOM      5  C   UNL     1      -7.208 -14.519   2.063  0.00  0.00    +0.000 C 
ATOM      6  C   UNL     1      -7.236 -15.702   2.700  0.00  0.00    +0.000 C 
ATOM      7  H   UNL     1      -9.206 -14.517   4.450  0.00  0.00    +0.000 HD
ATOM      8  H   UNL     1      -6.365 -13.369   4.618  0.00  0.00    +0.000 HD
ATOM      9  H   UNL     1      -7.855 -12.442   4.756  0.00  0.00    +0.000 HD
ATOM     10  H   UNL     1      -8.260 -16.687   4.278  0.00  0.00    +0.000 HD
ATOM     11  H   UNL     1      -6.625 -16.167   4.655  0.00  0.00    +0.000 HD
ATOM     12  H   UNL     1      -6.721 -12.470   2.478  0.00  0.00    +0.000 HD
ATOM     13  H   UNL     1      -8.446 -12.840   2.479  0.00  0.00    +0.000 HD
ATOM     14  H   UNL     1      -7.029 -16.616   2.150  0.00  0.00    +0.000 HD
ENDROOT
BRANCH   1  15
ATOM     15  C   UNL     1      -8.105 -14.679   6.273  0.00  0.00    +0.000 C 
ATOM     16  C   UNL     1      -8.388 -15.812   6.932  0.00  0.00    +0.000 C 
ATOM     17  H   UNL     1      -8.343 -15.853   8.016  0.00  0.00    +0.000 HD
ATOM     18  H   UNL     1      -8.669 -16.727   6.423  0.00  0.00    +0.000 HD
BRANCH  15  19
ATOM     19  C   UNL     1      -7.715 -13.420   6.992  0.00  0.00    +0.000 C 
ATOM     20  H   UNL     1      -8.581 -12.759   7.100  0.00  0.00    +0.000 HD
ATOM     21  H   UNL     1      -7.328 -13.656   7.989  0.00  0.00    +0.000 HD
ATOM     22  H   UNL     1      -6.937 -12.864   6.457  0.00  0.00    +0.000 HD
ENDBRANCH  15  19
ENDBRANCH   1  15
BRANCH   5  23
ATOM     23  C   UNL     1      -6.924 -14.415   0.594  0.00  0.00    +0.000 C 
ATOM     24  H   UNL     1      -6.607 -15.386   0.199  0.00  0.00    +0.000 HD
ATOM     25  H   UNL     1      -6.131 -13.691   0.377  0.00  0.00    +0.000 HD
ATOM     26  H   UNL     1      -7.822 -14.096   0.055  0.00  0.00    +0.000 HD
ENDBRANCH   5  23
TORSDOF 3
ENDMDL
MODEL 4
REMARK VINA RESULT:    -5.064     11.221     12.655
REMARK INTER + INTRA:          -5.808
REMARK INTER:                  -5.654
REMARK INTRA:                  -0.154
REMARK UNBOUND:                -0.152
REMARK  Name = 22311
REMARK  3 active torsions:
REMARK  status: ('A' for Active; 'I' for Inactive)
REMARK    1  A    between atoms: C_1  and  C_7
REMARK    2  A    between atoms: C_5  and  C_8
REMARK    3  A    between atoms: C_7  and  C_9
REMARK                            x       y       z     vdW  Elec       q    Type
REMARK                         _______ _______ _______ _____ _____    ______ ____
ROOT
ATOM      1  C   UNL     1      16.641   6.860  -2.302  0.00  0.00    +0.000 C 
ATOM      2  C   UNL     1      16.778   6.926  -0.783  0.00  0.00    +0.000 C 
ATOM      3  C   UNL     1      15.254   6.349  -2.704  0.00  0.00    +0.000 C 
ATOM      4  C   UNL     1      16.551   5.552  -0.147  0.00  0.00    +0.000 C 
ATOM      5  C   UNL     1      15.379   4.803  -0.732  0.00  0.00    +0.000 C 
ATOM      6  C   UNL     1      14.793   5.184  -1.880  0.00  0.00    +0.000 C 
ATOM      7  H   UNL     1      17.393   6.155  -2.683  0.00  0.00    +0.000 HD
ATOM      8  H   UNL     1      16.049   7.625  -0.349  0.00  0.00    +0.000 HD
ATOM      9  H   UNL     1      17.771   7.294  -0.496  0.00  0.00    +0.000 HD
ATOM     10  H   UNL     1      15.280   6.045  -3.758  0.00  0.00    +0.000 HD
ATOM     11  H   UNL     1      14.480   7.122  -2.626  0.00  0.00    +0.000 HD
ATOM     12  H   UNL     1      16.407   5.688   0.931  0.00  0.00    +0.000 HD
ATOM     13  H   UNL     1      17.453   4.939  -0.276  0.00  0.00    +0.000 HD
ATOM     14  H   UNL     1      13.939   4.629  -2.259  0.00  0.00    +0.000 HD
ENDROOT
BRANCH   1  15
ATOM     15  C   UNL     1      16.880   8.218  -2.887  0.00  0.00    +0.000 C 
ATOM     16  C   UNL     1      18.105   8.633  -3.241  0.00  0.00    +0.000 C 
ATOM     17  H   UNL     1      18.258   9.621  -3.663  0.00  0.00    +0.000 HD
ATOM     18  H   UNL     1      18.986   8.011  -3.129  0.00  0.00    +0.000 HD
BRANCH  15  19
ATOM     19  C   UNL     1      15.669   9.089  -3.051  0.00  0.00    +0.000 C 
ATOM     20  H   UNL     1      15.965  10.102  -3.340  0.00  0.00    +0.000 HD
ATOM     21  H   UNL     1      15.011   8.682  -3.826  0.00  0.00    +0.000 HD
ATOM     22  H   UNL     1      15.086   9.164  -2.127  0.00  0.00    +0.000 HD
ENDBRANCH  15  19
ENDBRANCH   1  15
BRANCH   5  23
ATOM     23  C   UNL     1      14.908   3.607   0.041  0.00  0.00    +0.000 C 
ATOM     24  H   UNL     1      15.350   3.606   1.043  0.00  0.00    +0.000 HD
ATOM     25  H   UNL     1      15.184   2.666  -0.446  0.00  0.00    +0.000 HD
ATOM     26  H   UNL     1      13.818   3.624   0.141  0.00  0.00    +0.000 HD
ENDBRANCH   5  23
TORSDOF 3
ENDMDL
MODEL 5
REMARK VINA RESULT:    -4.959     25.464     28.505
REMARK INTER + INTRA:          -5.691
REMARK INTER:                  -5.537
REMARK INTRA:                  -0.154
REMARK UNBOUND:                -0.152
REMARK  Name = 22311
REMARK  3 active torsions:
REMARK  status: ('A' for Active; 'I' for Inactive)
REMARK    1  A    between atoms: C_1  and  C_7
REMARK    2  A    between atoms: C_5  and  C_8
REMARK    3  A    between atoms: C_7  and  C_9
REMARK                            x       y       z     vdW  Elec       q    Type
REMARK                         _______ _______ _______ _____ _____    ______ ____
ROOT
ATOM      1  C   UNL     1      -7.686 -15.221   6.138  0.00  0.00    +0.000 C 
ATOM      2  C   UNL     1      -6.833 -15.760   4.992  0.00  0.00    +0.000 C 
ATOM      3  C   UNL     1      -8.403 -13.932   5.726  0.00  0.00    +0.000 C 
ATOM      4  C   UNL     1      -5.789 -14.731   4.550  0.00  0.00    +0.000 C 
ATOM      5  C   UNL     1      -6.333 -13.328   4.444  0.00  0.00    +0.000 C 
ATOM      6  C   UNL     1      -7.522 -12.984   4.966  0.00  0.00    +0.000 C 
ATOM      7  H   UNL     1      -7.021 -14.993   6.982  0.00  0.00    +0.000 HD
ATOM      8  H   UNL     1      -7.452 -16.011   4.120  0.00  0.00    +0.000 HD
ATOM      9  H   UNL     1      -6.321 -16.685   5.288  0.00  0.00    +0.000 HD
ATOM     10  H   UNL     1      -8.767 -13.425   6.629  0.00  0.00    +0.000 HD
ATOM     11  H   UNL     1      -9.285 -14.120   5.101  0.00  0.00    +0.000 HD
ATOM     12  H   UNL     1      -5.379 -15.047   3.583  0.00  0.00    +0.000 HD
ATOM     13  H   UNL     1      -4.957 -14.727   5.266  0.00  0.00    +0.000 HD
ATOM     14  H   UNL     1      -7.889 -11.968   4.852  0.00  0.00    +0.000 HD
ENDROOT
BRANCH   1  15
ATOM     15  C   UNL     1      -8.686 -16.258   6.548  0.00  0.00    +0.000 C 
ATOM     16  C   UNL     1      -8.584 -16.922   7.709  0.00  0.00    +0.000 C 
ATOM     17  H   UNL     1      -9.318 -17.671   7.990  0.00  0.00    +0.000 HD
ATOM     18  H   UNL     1      -7.779 -16.744   8.413  0.00  0.00    +0.000 HD
BRANCH  15  19
ATOM     19  C   UNL     1      -9.808 -16.512   5.585  0.00  0.00    +0.000 C 
ATOM     20  H   UNL     1      -9.743 -17.529   5.184  0.00  0.00    +0.000 HD
ATOM     21  H   UNL     1     -10.774 -16.395   6.089  0.00  0.00    +0.000 HD
ATOM     22  H   UNL     1      -9.790 -15.818   4.738  0.00  0.00    +0.000 HD
ENDBRANCH  15  19
ENDBRANCH   1  15
BRANCH   5  23
ATOM     23  C   UNL     1      -5.467 -12.337   3.723  0.00  0.00    +0.000 C 
ATOM     24  H   UNL     1      -5.322 -11.443   4.338  0.00  0.00    +0.000 HD
ATOM     25  H   UNL     1      -5.906 -12.021   2.771  0.00  0.00    +0.000 HD
ATOM     26  H   UNL     1      -4.486 -12.775   3.509  0.00  0.00    +0.000 HD
ENDBRANCH   5  23
TORSDOF 3
ENDMDL
MODEL 6
REMARK VINA RESULT:    -4.830     10.181     11.937
REMARK INTER + INTRA:          -5.548
REMARK INTER:                  -5.398
REMARK INTRA:                  -0.150
REMARK UNBOUND:                -0.152
REMARK  Name = 22311
REMARK  3 active torsions:
REMARK  status: ('A' for Active; 'I' for Inactive)
REMARK    1  A    between atoms: C_1  and  C_7
REMARK    2  A    between atoms: C_5  and  C_8
REMARK    3  A    between atoms: C_7  and  C_9
REMARK                            x       y       z     vdW  Elec       q    Type
REMARK                         _______ _______ _______ _____ _____    ______ ____
ROOT
ATOM      1  C   UNL     1      15.063   5.578  -1.822  0.00  0.00    +0.000 C 
ATOM      2  C   UNL     1      16.110   4.949  -0.905  0.00  0.00    +0.000 C 
ATOM      3  C   UNL     1      13.789   5.920  -1.044  0.00  0.00    +0.000 C 
ATOM      4  C   UNL     1      15.573   3.675  -0.247  0.00  0.00    +0.000 C 
ATOM      5  C   UNL     1      14.159   3.809   0.261  0.00  0.00    +0.000 C 
ATOM      6  C   UNL     1      13.369   4.837  -0.094  0.00  0.00    +0.000 C 
ATOM      7  H   UNL     1      14.808   4.847  -2.601  0.00  0.00    +0.000 HD
ATOM      8  H   UNL     1      16.407   5.644  -0.107  0.00  0.00    +0.000 HD
ATOM      9  H   UNL     1      17.023   4.706  -1.463  0.00  0.00    +0.000 HD
ATOM     10  H   UNL     1      12.975   6.097  -1.757  0.00  0.00    +0.000 HD
ATOM     11  H   UNL     1      13.888   6.840  -0.455  0.00  0.00    +0.000 HD
ATOM     12  H   UNL     1      16.242   3.403   0.579  0.00  0.00    +0.000 HD
ATOM     13  H   UNL     1      15.605   2.851  -0.971  0.00  0.00    +0.000 HD
ATOM     14  H   UNL     1      12.362   4.908   0.307  0.00  0.00    +0.000 HD
ENDROOT
BRANCH   1  15
ATOM     15  C   UNL     1      15.628   6.813  -2.454  0.00  0.00    +0.000 C 
ATOM     16  C   UNL     1      16.925   7.138  -2.342  0.00  0.00    +0.000 C 
ATOM     17  H   UNL     1      17.316   8.037  -2.806  0.00  0.00    +0.000 HD
ATOM     18  H   UNL     1      17.633   6.527  -1.794  0.00  0.00    +0.000 HD
BRANCH  15  19
ATOM     19  C   UNL     1      14.660   7.667  -3.219  0.00  0.00    +0.000 C 
ATOM     20  H   UNL     1      15.163   8.557  -3.609  0.00  0.00    +0.000 HD
ATOM     21  H   UNL     1      14.240   7.105  -4.060  0.00  0.00    +0.000 HD
ATOM     22  H   UNL     1      13.825   8.004  -2.595  0.00  0.00    +0.000 HD
ENDBRANCH  15  19
ENDBRANCH   1  15
BRANCH   5  23
ATOM     23  C   UNL     1      13.684   2.726   1.184  0.00  0.00    +0.000 C 
ATOM     24  H   UNL     1      13.228   3.164   2.079  0.00  0.00    +0.000 HD
ATOM     25  H   UNL     1      14.501   2.075   1.511  0.00  0.00    +0.000 HD
ATOM     26  H   UNL     1      12.938   2.099   0.684  0.00  0.00    +0.000 HD
ENDBRANCH   5  23
TORSDOF 3
ENDMDL
MODEL 7
REMARK VINA RESULT:    -4.815     11.457     12.865
REMARK INTER + INTRA:          -5.530
REMARK INTER:                  -5.377
REMARK INTRA:                  -0.153
REMARK UNBOUND:                -0.152
REMARK  Name = 22311
REMARK  3 active torsions:
REMARK  status: ('A' for Active; 'I' for Inactive)
REMARK    1  A    between atoms: C_1  and  C_7
REMARK    2  A    between atoms: C_5  and  C_8
REMARK    3  A    between atoms: C_7  and  C_9
REMARK                            x       y       z     vdW  Elec       q    Type
REMARK                         _______ _______ _______ _____ _____    ______ ____
ROOT
ATOM      1  C   UNL     1      15.776   7.502  -1.981  0.00  0.00    +0.000 C 
ATOM      2  C   UNL     1      15.264   6.310  -2.787  0.00  0.00    +0.000 C 
ATOM      3  C   UNL     1      16.923   7.084  -1.056  0.00  0.00    +0.000 C 
ATOM      4  C   UNL     1      14.775   5.190  -1.865  0.00  0.00    +0.000 C 
ATOM      5  C   UNL     1      15.691   4.928  -0.696  0.00  0.00    +0.000 C 
ATOM      6  C   UNL     1      16.668   5.784  -0.351  0.00  0.00    +0.000 C 
ATOM      7  H   UNL     1      14.950   7.877  -1.362  0.00  0.00    +0.000 HD
ATOM      8  H   UNL     1      16.053   5.899  -3.432  0.00  0.00    +0.000 HD
ATOM      9  H   UNL     1      14.444   6.611  -3.451  0.00  0.00    +0.000 HD
ATOM     10  H   UNL     1      17.074   7.868  -0.302  0.00  0.00    +0.000 HD
ATOM     11  H   UNL     1      17.877   6.978  -1.586  0.00  0.00    +0.000 HD
ATOM     12  H   UNL     1      14.659   4.277  -2.461  0.00  0.00    +0.000 HD
ATOM     13  H   UNL     1      13.782   5.448  -1.476  0.00  0.00    +0.000 HD
ATOM     14  H   UNL     1      17.320   5.551   0.487  0.00  0.00    +0.000 HD
ENDROOT
BRANCH   1  15
ATOM     15  C   UNL     1      16.235   8.579  -2.916  0.00  0.00    +0.000 C 
ATOM     16  C   UNL     1      15.380   9.450  -3.470  0.00  0.00    +0.000 C 
ATOM     17  H   UNL     1      15.730  10.223  -4.145  0.00  0.00    +0.000 HD
ATOM     18  H   UNL     1      14.314   9.426  -3.271  0.00  0.00    +0.000 HD
BRANCH  15  19
ATOM     19  C   UNL     1      17.708   8.625  -3.198  0.00  0.00    +0.000 C 
ATOM     20  H   UNL     1      18.204   9.325  -2.518  0.00  0.00    +0.000 HD
ATOM     21  H   UNL     1      18.152   7.633  -3.064  0.00  0.00    +0.000 HD
ATOM     22  H   UNL     1      17.922   8.949  -4.223  0.00  0.00    +0.000 HD
ENDBRANCH  15  19
ENDBRANCH   1  15
BRANCH   5  23
ATOM     23  C   UNL     1      15.448   3.656   0.061  0.00  0.00    +0.000 C 
ATOM     24  H   UNL     1      16.063   2.847  -0.348  0.00  0.00    +0.000 HD
ATOM     25  H   UNL     1      14.401   3.338   0.009  0.00  0.00    +0.000 HD
ATOM     26  H   UNL     1      15.703   3.787   1.118  0.00  0.00    +0.000 HD
ENDBRANCH   5  23
TORSDOF 3
ENDMDL
MODEL 8
REMARK VINA RESULT:    -4.699     10.660     11.771
REMARK INTER + INTRA:          -5.401
REMARK INTER:                  -5.256
REMARK INTRA:                  -0.145
REMARK UNBOUND:                -0.152
REMARK  Name = 22311
REMARK  3 active torsions:
REMARK  status: ('A' for Active; 'I' for Inactive)
REMARK    1  A    between atoms: C_1  and  C_7
REMARK    2  A    between atoms: C_5  and  C_8
REMARK    3  A    between atoms: C_7  and  C_9
REMARK                            x       y       z     vdW  Elec       q    Type
REMARK                         _______ _______ _______ _____ _____    ______ ____
ROOT
ATOM      1  C   UNL     1      15.101   5.672  -0.812  0.00  0.00    +0.000 C 
ATOM      2  C   UNL     1      16.533   5.886  -0.325  0.00  0.00    +0.000 C 
ATOM      3  C   UNL     1      15.041   5.656  -2.343  0.00  0.00    +0.000 C 
ATOM      4  C   UNL     1      17.107   7.202  -0.859  0.00  0.00    +0.000 C 
ATOM      5  C   UNL     1      16.797   7.448  -2.315  0.00  0.00    +0.000 C 
ATOM      6  C   UNL     1      15.873   6.732  -2.977  0.00  0.00    +0.000 C 
ATOM      7  H   UNL     1      14.489   6.508  -0.450  0.00  0.00    +0.000 HD
ATOM      8  H   UNL     1      17.191   5.071  -0.656  0.00  0.00    +0.000 HD
ATOM      9  H   UNL     1      16.576   5.895   0.771  0.00  0.00    +0.000 HD
ATOM     10  H   UNL     1      13.998   5.787  -2.658  0.00  0.00    +0.000 HD
ATOM     11  H   UNL     1      15.374   4.702  -2.769  0.00  0.00    +0.000 HD
ATOM     12  H   UNL     1      18.192   7.195  -0.704  0.00  0.00    +0.000 HD
ATOM     13  H   UNL     1      16.703   8.037  -0.273  0.00  0.00    +0.000 HD
ATOM     14  H   UNL     1      15.691   6.926  -4.030  0.00  0.00    +0.000 HD
ENDROOT
BRANCH   1  15
ATOM     15  C   UNL     1      14.573   4.382  -0.262  0.00  0.00    +0.000 C 
ATOM     16  C   UNL     1      15.335   3.282  -0.178  0.00  0.00    +0.000 C 
ATOM     17  H   UNL     1      14.935   2.356   0.223  0.00  0.00    +0.000 HD
ATOM     18  H   UNL     1      16.371   3.264  -0.499  0.00  0.00    +0.000 HD
BRANCH  15  19
ATOM     19  C   UNL     1      13.142   4.393   0.188  0.00  0.00    +0.000 C 
ATOM     20  H   UNL     1      12.541   5.032  -0.466  0.00  0.00    +0.000 HD
ATOM     21  H   UNL     1      12.729   3.379   0.163  0.00  0.00    +0.000 HD
ATOM     22  H   UNL     1      13.035   4.770   1.211  0.00  0.00    +0.000 HD
ENDBRANCH  15  19
ENDBRANCH   1  15
BRANCH   5  23
ATOM     23  C   UNL     1      17.579   8.542  -2.980  0.00  0.00    +0.000 C 
ATOM     24  H   UNL     1      17.624   8.372  -4.061  0.00  0.00    +0.000 HD
ATOM     25  H   UNL     1      18.608   8.598  -2.608  0.00  0.00    +0.000 HD
ATOM     26  H   UNL     1      17.106   9.513  -2.799  0.00  0.00    +0.000 HD
ENDBRANCH   5  23
TORSDOF 3
ENDMDL
MODEL 9
REMARK VINA RESULT:    -4.676      1.598      3.171
REMARK INTER + INTRA:          -5.375
REMARK INTER:                  -5.220
REMARK INTRA:                  -0.155
REMARK UNBOUND:                -0.152
REMARK  Name = 22311
REMARK  3 active torsions:
REMARK  status: ('A' for Active; 'I' for Inactive)
REMARK    1  A    between atoms: C_1  and  C_7
REMARK    2  A    between atoms: C_5  and  C_8
REMARK    3  A    between atoms: C_7  and  C_9
REMARK                            x       y       z     vdW  Elec       q    Type
REMARK                         _______ _______ _______ _____ _____    ______ ____
ROOT
ATOM      1  C   UNL     1      18.194  -5.230  -2.603  0.00  0.00    +0.000 C 
ATOM      2  C   UNL     1      19.084  -4.326  -3.453  0.00  0.00    +0.000 C 
ATOM      3  C   UNL     1      17.411  -4.412  -1.571  0.00  0.00    +0.000 C 
ATOM      4  C   UNL     1      20.074  -3.548  -2.582  0.00  0.00    +0.000 C 
ATOM      5  C   UNL     1      19.455  -2.977  -1.330  0.00  0.00    +0.000 C 
ATOM      6  C   UNL     1      18.245  -3.364  -0.894  0.00  0.00    +0.000 C 
ATOM      7  H   UNL     1      18.840  -5.938  -2.066  0.00  0.00    +0.000 HD
ATOM      8  H   UNL     1      18.485  -3.599  -4.019  0.00  0.00    +0.000 HD
ATOM      9  H   UNL     1      19.642  -4.913  -4.194  0.00  0.00    +0.000 HD
ATOM     10  H   UNL     1      17.014  -5.092  -0.807  0.00  0.00    +0.000 HD
ATOM     11  H   UNL     1      16.546  -3.899  -2.007  0.00  0.00    +0.000 HD
ATOM     12  H   UNL     1      20.507  -2.742  -3.186  0.00  0.00    +0.000 HD
ATOM     13  H   UNL     1      20.899  -4.210  -2.290  0.00  0.00    +0.000 HD
ATOM     14  H   UNL     1      17.825  -2.916   0.003  0.00  0.00    +0.000 HD
ENDROOT
BRANCH   1  15
ATOM     15  C   UNL     1      17.249  -5.980  -3.490  0.00  0.00    +0.000 C 
ATOM     16  C   UNL     1      17.625  -6.457  -4.686  0.00  0.00    +0.000 C 
ATOM     17  H   UNL     1      16.926  -6.998  -5.315  0.00  0.00    +0.000 HD
ATOM     18  H   UNL     1      18.629  -6.329  -5.074  0.00  0.00    +0.000 HD
BRANCH  15  19
ATOM     19  C   UNL     1      15.856  -6.167  -2.964  0.00  0.00    +0.000 C 
ATOM     20  H   UNL     1      15.832  -6.004  -1.882  0.00  0.00    +0.000 HD
ATOM     21  H   UNL     1      15.171  -5.457  -3.441  0.00  0.00    +0.000 HD
ATOM     22  H   UNL     1      15.475  -7.176  -3.156  0.00  0.00    +0.000 HD
ENDBRANCH  15  19
ENDBRANCH   1  15
BRANCH   5  23
ATOM     23  C   UNL     1      20.272  -1.952  -0.599  0.00  0.00    +0.000 C 
ATOM     24  H   UNL     1      19.904  -1.835   0.426  0.00  0.00    +0.000 HD
ATOM     25  H   UNL     1      20.230  -0.970  -1.083  0.00  0.00    +0.000 HD
ATOM     26  H   UNL     1      21.322  -2.260  -0.560  0.00  0.00    +0.000 HD
ENDBRANCH   5  23
TORSDOF 3
ENDMDL
MODEL 10
REMARK VINA RESULT:    -4.649     23.757     24.291
REMARK INTER + INTRA:          -5.345
REMARK INTER:                  -5.193
REMARK INTRA:                  -0.152
REMARK UNBOUND:                -0.152
REMARK  Name = 22311
REMARK  3 active torsions:
REMARK  status: ('A' for Active; 'I' for Inactive)
REMARK    1  A    between atoms: C_1  and  C_7
REMARK    2  A    between atoms: C_5  and  C_8
REMARK    3  A    between atoms: C_7  and  C_9
REMARK                            x       y       z     vdW  Elec       q    Type
REMARK                         _______ _______ _______ _____ _____    ______ ____
ROOT
ATOM      1  C   UNL     1       3.459   6.058 -20.207  0.00  0.00    +0.000 C 
ATOM      2  C   UNL     1       3.694   6.513 -18.768  0.00  0.00    +0.000 C 
ATOM      3  C   UNL     1       3.726   4.557 -20.356  0.00  0.00    +0.000 C 
ATOM      4  C   UNL     1       5.129   6.217 -18.323  0.00  0.00    +0.000 C 
ATOM      5  C   UNL     1       5.619   4.851 -18.735  0.00  0.00    +0.000 C 
ATOM      6  C   UNL     1       4.966   4.105 -19.643  0.00  0.00    +0.000 C 
ATOM      7  H   UNL     1       4.159   6.601 -20.855  0.00  0.00    +0.000 HD
ATOM      8  H   UNL     1       3.012   6.002 -18.074  0.00  0.00    +0.000 HD
ATOM      9  H   UNL     1       3.500   7.587 -18.661  0.00  0.00    +0.000 HD
ATOM     10  H   UNL     1       3.828   4.320 -21.423  0.00  0.00    +0.000 HD
ATOM     11  H   UNL     1       2.900   3.941 -19.981  0.00  0.00    +0.000 HD
ATOM     12  H   UNL     1       5.182   6.319 -17.232  0.00  0.00    +0.000 HD
ATOM     13  H   UNL     1       5.804   6.970 -18.750  0.00  0.00    +0.000 HD
ATOM     14  H   UNL     1       5.340   3.118 -19.900  0.00  0.00    +0.000 HD
ENDROOT
BRANCH   1  15
ATOM     15  C   UNL     1       2.050   6.373 -20.607  0.00  0.00    +0.000 C 
ATOM     16  C   UNL     1       1.722   6.671 -21.873  0.00  0.00    +0.000 C 
ATOM     17  H   UNL     1       0.696   6.897 -22.145  0.00  0.00    +0.000 HD
ATOM     18  H   UNL     1       2.453   6.698 -22.673  0.00  0.00    +0.000 HD
BRANCH  15  19
ATOM     19  C   UNL     1       1.027   6.337 -19.510  0.00  0.00    +0.000 C 
ATOM     20  H   UNL     1       0.946   7.319 -19.032  0.00  0.00    +0.000 HD
ATOM     21  H   UNL     1       0.047   6.062 -19.914  0.00  0.00    +0.000 HD
ATOM     22  H   UNL     1       1.282   5.608 -18.732  0.00  0.00    +0.000 HD
ENDBRANCH  15  19
ENDBRANCH   1  15
BRANCH   5  23
ATOM     23  C   UNL     1       6.878   4.374 -18.074  0.00  0.00    +0.000 C 
ATOM     24  H   UNL     1       6.655   3.562 -17.374  0.00  0.00    +0.000 HD
ATOM     25  H   UNL     1       7.377   5.171 -17.513  0.00  0.00    +0.000 HD
ATOM     26  H   UNL     1       7.585   4.003 -18.824  0.00  0.00    +0.000 HD
ENDBRANCH   5  23
TORSDOF 3
ENDMDL
