MODEL 1
REMARK VINA RESULT:    -4.356      0.000      0.000
REMARK INTER + INTRA:          -4.611
REMARK INTER:                  -4.611
REMARK INTRA:                   0.000
REMARK UNBOUND:                 0.000
REMARK  Name = 8369
REMARK  2 active torsions:
REMARK  status: ('A' for Active; 'I' for Inactive)
REMARK    1  A    between atoms: O_2  and  C_5
REMARK    2  A    between atoms: C_4  and  C_6
REMARK                            x       y       z     vdW  Elec       q    Type
REMARK                         _______ _______ _______ _____ _____    ______ ____
ROOT
ATOM      1  O   UNL     1       0.306   2.792 -20.029  0.00  0.00    +0.000 OA
ATOM      2  O   UNL     1      -0.233   1.986 -23.951  0.00  0.00    +0.000 OA
ATOM      3  C   UNL     1       1.391   2.403 -20.809  0.00  0.00    +0.000 A 
ATOM      4  C   UNL     1       1.276   2.118 -22.122  0.00  0.00    +0.000 A 
ATOM      5  C   UNL     1      -0.063   2.230 -22.763  0.00  0.00    +0.000 A 
ATOM      6  C   UNL     1      -1.186   2.647 -21.901  0.00  0.00    +0.000 A 
ATOM      7  C   UNL     1      -0.928   2.894 -20.617  0.00  0.00    +0.000 A 
ATOM      8  H   UNL     1      -2.178   2.741 -22.325  0.00  0.00    +0.000 HD
ATOM      9  H   UNL     1      -1.676   3.204 -19.903  0.00  0.00    +0.000 HD
ENDROOT
BRANCH   3  10
ATOM     10  C   UNL     1       2.675   2.333 -20.044  0.00  0.00    +0.000 C 
ATOM     11  H   UNL     1       2.478   2.385 -18.968  0.00  0.00    +0.000 HD
ATOM     12  H   UNL     1       3.376   3.125 -20.320  0.00  0.00    +0.000 HD
ATOM     13  H   UNL     1       3.188   1.385 -20.245  0.00  0.00    +0.000 HD
ENDBRANCH   3  10
BRANCH   4  14
ATOM     14  O   UNL     1       2.344   1.731 -22.899  0.00  0.00    +0.000 OA
ATOM     15  H   UNL     1       2.575   2.441 -23.518  0.00  0.00    +0.000 HD
ENDBRANCH   4  14
TORSDOF 2
ENDMDL
MODEL 2
REMARK VINA RESULT:    -4.252      2.303      2.986
REMARK INTER + INTRA:          -4.501
REMARK INTER:                  -4.501
REMARK INTRA:                   0.000
REMARK UNBOUND:                 0.000
REMARK  Name = 8369
REMARK  2 active torsions:
REMARK  status: ('A' for Active; 'I' for Inactive)
REMARK    1  A    between atoms: O_2  and  C_5
REMARK    2  A    between atoms: C_4  and  C_6
REMARK                            x       y       z     vdW  Elec       q    Type
REMARK                         _______ _______ _______ _____ _____    ______ ____
ROOT
ATOM      1  O   UNL     1       0.605   5.273 -22.158  0.00  0.00    +0.000 OA
ATOM      2  O   UNL     1      -1.629   1.917 -21.895  0.00  0.00    +0.000 OA
ATOM      3  C   UNL     1       0.372   4.696 -20.913  0.00  0.00    +0.000 A 
ATOM      4  C   UNL     1      -0.367   3.578 -20.759  0.00  0.00    +0.000 A 
ATOM      5  C   UNL     1      -0.950   2.934 -21.968  0.00  0.00    +0.000 A 
ATOM      6  C   UNL     1      -0.676   3.577 -23.268  0.00  0.00    +0.000 A 
ATOM      7  C   UNL     1       0.068   4.682 -23.272  0.00  0.00    +0.000 A 
ATOM      8  H   UNL     1      -1.081   3.143 -24.173  0.00  0.00    +0.000 HD
ATOM      9  H   UNL     1       0.327   5.229 -24.167  0.00  0.00    +0.000 HD
ENDROOT
BRANCH   3  10
ATOM     10  C   UNL     1       1.015   5.441 -19.786  0.00  0.00    +0.000 C 
ATOM     11  H   UNL     1       0.698   6.489 -19.794  0.00  0.00    +0.000 HD
ATOM     12  H   UNL     1       2.107   5.395 -19.818  0.00  0.00    +0.000 HD
ATOM     13  H   UNL     1       0.716   5.008 -18.824  0.00  0.00    +0.000 HD
ENDBRANCH   3  10
BRANCH   4  14
ATOM     14  O   UNL     1      -0.604   3.003 -19.531  0.00  0.00    +0.000 OA
ATOM     15  H   UNL     1      -0.564   2.037 -19.607  0.00  0.00    +0.000 HD
ENDBRANCH   4  14
TORSDOF 2
ENDMDL
MODEL 3
REMARK VINA RESULT:    -4.138      1.264      3.710
REMARK INTER + INTRA:          -4.380
REMARK INTER:                  -4.380
REMARK INTRA:                   0.000
REMARK UNBOUND:                 0.000
REMARK  Name = 8369
REMARK  2 active torsions:
REMARK  status: ('A' for Active; 'I' for Inactive)
REMARK    1  A    between atoms: O_2  and  C_5
REMARK    2  A    between atoms: C_4  and  C_6
REMARK                            x       y       z     vdW  Elec       q    Type
REMARK                         _______ _______ _______ _____ _____    ______ ____
ROOT
ATOM      1  O   UNL     1       1.536   2.610 -22.991  0.00  0.00    +0.000 OA
ATOM      2  O   UNL     1       0.354   3.095 -19.158  0.00  0.00    +0.000 OA
ATOM      3  C   UNL     1       0.197   2.863 -22.709  0.00  0.00    +0.000 A 
ATOM      4  C   UNL     1      -0.260   3.032 -21.451  0.00  0.00    +0.000 A 
ATOM      5  C   UNL     1       0.707   2.950 -20.322  0.00  0.00    +0.000 A 
ATOM      6  C   UNL     1       2.117   2.682 -20.665  0.00  0.00    +0.000 A 
ATOM      7  C   UNL     1       2.427   2.532 -21.952  0.00  0.00    +0.000 A 
ATOM      8  H   UNL     1       2.854   2.614 -19.876  0.00  0.00    +0.000 HD
ATOM      9  H   UNL     1       3.427   2.334 -22.310  0.00  0.00    +0.000 HD
ENDROOT
BRANCH   3  10
ATOM     10  C   UNL     1      -0.664   2.922 -23.932  0.00  0.00    +0.000 C 
ATOM     11  H   UNL     1      -1.523   2.253 -23.822  0.00  0.00    +0.000 HD
ATOM     12  H   UNL     1      -0.120   2.664 -24.844  0.00  0.00    +0.000 HD
ATOM     13  H   UNL     1      -1.047   3.939 -24.079  0.00  0.00    +0.000 HD
ENDBRANCH   3  10
BRANCH   4  14
ATOM     14  O   UNL     1      -1.583   3.282 -21.165  0.00  0.00    +0.000 OA
ATOM     15  H   UNL     1      -2.144   2.622 -21.603  0.00  0.00    +0.000 HD
ENDBRANCH   4  14
TORSDOF 2
ENDMDL
MODEL 4
REMARK VINA RESULT:    -4.102      1.706      3.077
REMARK INTER + INTRA:          -4.341
REMARK INTER:                  -4.341
REMARK INTRA:                   0.000
REMARK UNBOUND:                 0.000
REMARK  Name = 8369
REMARK  2 active torsions:
REMARK  status: ('A' for Active; 'I' for Inactive)
REMARK    1  A    between atoms: O_2  and  C_5
REMARK    2  A    between atoms: C_4  and  C_6
REMARK                            x       y       z     vdW  Elec       q    Type
REMARK                         _______ _______ _______ _____ _____    ______ ____
ROOT
ATOM      1  O   UNL     1      -0.228   4.507 -21.754  0.00  0.00    +0.000 OA
ATOM      2  O   UNL     1       2.663   2.107 -20.271  0.00  0.00    +0.000 OA
ATOM      3  C   UNL     1       0.119   3.345 -22.436  0.00  0.00    +0.000 A 
ATOM      4  C   UNL     1       1.077   2.504 -21.994  0.00  0.00    +0.000 A 
ATOM      5  C   UNL     1       1.785   2.830 -20.725  0.00  0.00    +0.000 A 
ATOM      6  C   UNL     1       1.384   4.070 -20.034  0.00  0.00    +0.000 A 
ATOM      7  C   UNL     1       0.423   4.810 -20.587  0.00  0.00    +0.000 A 
ATOM      8  H   UNL     1       1.872   4.346 -19.108  0.00  0.00    +0.000 HD
ATOM      9  H   UNL     1       0.057   5.733 -20.163  0.00  0.00    +0.000 HD
ENDROOT
BRANCH   3  10
ATOM     10  C   UNL     1      -0.668   3.137 -23.691  0.00  0.00    +0.000 C 
ATOM     11  H   UNL     1      -0.407   2.177 -24.147  0.00  0.00    +0.000 HD
ATOM     12  H   UNL     1      -0.516   3.935 -24.422  0.00  0.00    +0.000 HD
ATOM     13  H   UNL     1      -1.742   3.122 -23.469  0.00  0.00    +0.000 HD
ENDBRANCH   3  10
BRANCH   4  14
ATOM     14  O   UNL     1       1.428   1.354 -22.664  0.00  0.00    +0.000 OA
ATOM     15  H   UNL     1       0.669   0.750 -22.700  0.00  0.00    +0.000 HD
ENDBRANCH   4  14
TORSDOF 2
ENDMDL
MODEL 5
REMARK VINA RESULT:    -3.554      2.837      4.085
REMARK INTER + INTRA:          -3.761
REMARK INTER:                  -3.761
REMARK INTRA:                   0.000
REMARK UNBOUND:                 0.000
REMARK  Name = 8369
REMARK  2 active torsions:
REMARK  status: ('A' for Active; 'I' for Inactive)
REMARK    1  A    between atoms: O_2  and  C_5
REMARK    2  A    between atoms: C_4  and  C_6
REMARK                            x       y       z     vdW  Elec       q    Type
REMARK                         _______ _______ _______ _____ _____    ______ ____
ROOT
ATOM      1  O   UNL     1       1.313   6.137 -21.924  0.00  0.00    +0.000 OA
ATOM      2  O   UNL     1       0.262   3.574 -18.984  0.00  0.00    +0.000 OA
ATOM      3  C   UNL     1       0.520   5.033 -22.223  0.00  0.00    +0.000 A 
ATOM      4  C   UNL     1       0.138   4.141 -21.287  0.00  0.00    +0.000 A 
ATOM      5  C   UNL     1       0.577   4.348 -19.879  0.00  0.00    +0.000 A 
ATOM      6  C   UNL     1       1.414   5.532 -19.606  0.00  0.00    +0.000 A 
ATOM      7  C   UNL     1       1.720   6.329 -20.629  0.00  0.00    +0.000 A 
ATOM      8  H   UNL     1       1.757   5.722 -18.597  0.00  0.00    +0.000 HD
ATOM      9  H   UNL     1       2.325   7.218 -20.538  0.00  0.00    +0.000 HD
ENDROOT
BRANCH   3  10
ATOM     10  C   UNL     1       0.149   4.945 -23.670  0.00  0.00    +0.000 C 
ATOM     11  H   UNL     1      -0.874   4.568 -23.776  0.00  0.00    +0.000 HD
ATOM     12  H   UNL     1       0.828   4.309 -24.242  0.00  0.00    +0.000 HD
ATOM     13  H   UNL     1       0.190   5.937 -24.135  0.00  0.00    +0.000 HD
ENDBRANCH   3  10
BRANCH   4  14
ATOM     14  O   UNL     1      -0.645   3.046 -21.575  0.00  0.00    +0.000 OA
ATOM     15  H   UNL     1      -0.470   2.746 -22.481  0.00  0.00    +0.000 HD
ENDBRANCH   4  14
TORSDOF 2
ENDMDL
MODEL 6
REMARK VINA RESULT:    -3.523     21.468     22.993
REMARK INTER + INTRA:          -3.729
REMARK INTER:                  -3.729
REMARK INTRA:                   0.000
REMARK UNBOUND:                 0.000
REMARK  Name = 8369
REMARK  2 active torsions:
REMARK  status: ('A' for Active; 'I' for Inactive)
REMARK    1  A    between atoms: O_2  and  C_5
REMARK    2  A    between atoms: C_4  and  C_6
REMARK                            x       y       z     vdW  Elec       q    Type
REMARK                         _______ _______ _______ _____ _____    ______ ____
ROOT
ATOM      1  O   UNL     1      14.798  17.256 -11.320  0.00  0.00    +0.000 OA
ATOM      2  O   UNL     1      10.995  18.538 -11.782  0.00  0.00    +0.000 OA
ATOM      3  C   UNL     1      14.511  18.613 -11.214  0.00  0.00    +0.000 A 
ATOM      4  C   UNL     1      13.263  19.104 -11.360  0.00  0.00    +0.000 A 
ATOM      5  C   UNL     1      12.150  18.155 -11.640  0.00  0.00    +0.000 A 
ATOM      6  C   UNL     1      12.498  16.725 -11.743  0.00  0.00    +0.000 A 
ATOM      7  C   UNL     1      13.775  16.381 -11.579  0.00  0.00    +0.000 A 
ATOM      8  H   UNL     1      11.720  16.000 -11.945  0.00  0.00    +0.000 HD
ATOM      9  H   UNL     1      14.135  15.365 -11.634  0.00  0.00    +0.000 HD
ENDROOT
BRANCH   3  10
ATOM     10  C   UNL     1      15.716  19.453 -10.930  0.00  0.00    +0.000 C 
ATOM     11  H   UNL     1      16.466  19.318 -11.716  0.00  0.00    +0.000 HD
ATOM     12  H   UNL     1      16.168  19.229  -9.960  0.00  0.00    +0.000 HD
ATOM     13  H   UNL     1      15.443  20.515 -10.904  0.00  0.00    +0.000 HD
ENDBRANCH   3  10
BRANCH   4  14
ATOM     14  O   UNL     1      12.971  20.445 -11.259  0.00  0.00    +0.000 OA
ATOM     15  H   UNL     1      12.566  20.757 -12.083  0.00  0.00    +0.000 HD
ENDBRANCH   4  14
TORSDOF 2
ENDMDL
MODEL 7
REMARK VINA RESULT:    -3.494      2.753      4.396
REMARK INTER + INTRA:          -3.699
REMARK INTER:                  -3.699
REMARK INTRA:                   0.000
REMARK UNBOUND:                 0.000
REMARK  Name = 8369
REMARK  2 active torsions:
REMARK  status: ('A' for Active; 'I' for Inactive)
REMARK    1  A    between atoms: O_2  and  C_5
REMARK    2  A    between atoms: C_4  and  C_6
REMARK                            x       y       z     vdW  Elec       q    Type
REMARK                         _______ _______ _______ _____ _____    ______ ____
ROOT
ATOM      1  O   UNL     1       4.845   4.331 -22.226  0.00  0.00    +0.000 OA
ATOM      2  O   UNL     1       2.517   1.980 -19.908  0.00  0.00    +0.000 OA
ATOM      3  C   UNL     1       3.941   3.456 -22.821  0.00  0.00    +0.000 A 
ATOM      4  C   UNL     1       3.138   2.644 -22.102  0.00  0.00    +0.000 A 
ATOM      5  C   UNL     1       3.219   2.692 -20.616  0.00  0.00    +0.000 A 
ATOM      6  C   UNL     1       4.190   3.634 -20.027  0.00  0.00    +0.000 A 
ATOM      7  C   UNL     1       4.923   4.374 -20.859  0.00  0.00    +0.000 A 
ATOM      8  H   UNL     1       4.283   3.701 -18.951  0.00  0.00    +0.000 HD
ATOM      9  H   UNL     1       5.659   5.093 -20.532  0.00  0.00    +0.000 HD
ENDROOT
BRANCH   3  10
ATOM     10  C   UNL     1       3.960   3.511 -24.316  0.00  0.00    +0.000 C 
ATOM     11  H   UNL     1       2.946   3.388 -24.712  0.00  0.00    +0.000 HD
ATOM     12  H   UNL     1       4.613   2.754 -24.758  0.00  0.00    +0.000 HD
ATOM     13  H   UNL     1       4.338   4.482 -24.657  0.00  0.00    +0.000 HD
ENDBRANCH   3  10
BRANCH   4  14
ATOM     14  O   UNL     1       2.242   1.775 -22.683  0.00  0.00    +0.000 OA
ATOM     15  H   UNL     1       2.584   1.476 -23.540  0.00  0.00    +0.000 HD
ENDBRANCH   4  14
TORSDOF 2
ENDMDL
MODEL 8
REMARK VINA RESULT:    -3.487     21.409     22.598
REMARK INTER + INTRA:          -3.691
REMARK INTER:                  -3.691
REMARK INTRA:                   0.000
REMARK UNBOUND:                 0.000
REMARK  Name = 8369
REMARK  2 active torsions:
REMARK  status: ('A' for Active; 'I' for Inactive)
REMARK    1  A    between atoms: O_2  and  C_5
REMARK    2  A    between atoms: C_4  and  C_6
REMARK                            x       y       z     vdW  Elec       q    Type
REMARK                         _______ _______ _______ _____ _____    ______ ____
ROOT
ATOM      1  O   UNL     1      13.354  19.820 -12.380  0.00  0.00    +0.000 OA
ATOM      2  O   UNL     1      12.945  15.849 -11.760  0.00  0.00    +0.000 OA
ATOM      3  C   UNL     1      14.394  18.960 -12.716  0.00  0.00    +0.000 A 
ATOM      4  C   UNL     1      14.320  17.625 -12.531  0.00  0.00    +0.000 A 
ATOM      5  C   UNL     1      13.074  17.052 -11.952  0.00  0.00    +0.000 A 
ATOM      6  C   UNL     1      11.995  17.999 -11.613  0.00  0.00    +0.000 A 
ATOM      7  C   UNL     1      12.206  19.294 -11.846  0.00  0.00    +0.000 A 
ATOM      8  H   UNL     1      11.071  17.627 -11.189  0.00  0.00    +0.000 HD
ATOM      9  H   UNL     1      11.484  20.069 -11.635  0.00  0.00    +0.000 HD
ENDROOT
BRANCH   3  10
ATOM     10  C   UNL     1      15.584  19.664 -13.288  0.00  0.00    +0.000 C 
ATOM     11  H   UNL     1      16.024  19.069 -14.095  0.00  0.00    +0.000 HD
ATOM     12  H   UNL     1      16.351  19.876 -12.539  0.00  0.00    +0.000 HD
ATOM     13  H   UNL     1      15.288  20.633 -13.708  0.00  0.00    +0.000 HD
ENDBRANCH   3  10
BRANCH   4  14
ATOM     14  O   UNL     1      15.346  16.768 -12.858  0.00  0.00    +0.000 OA
ATOM     15  H   UNL     1      15.155  16.335 -13.705  0.00  0.00    +0.000 HD
ENDBRANCH   4  14
TORSDOF 2
ENDMDL
MODEL 9
REMARK VINA RESULT:    -3.409     31.741     32.756
REMARK INTER + INTRA:          -3.609
REMARK INTER:                  -3.609
REMARK INTRA:                   0.000
REMARK UNBOUND:                 0.000
REMARK  Name = 8369
REMARK  2 active torsions:
REMARK  status: ('A' for Active; 'I' for Inactive)
REMARK    1  A    between atoms: O_2  and  C_5
REMARK    2  A    between atoms: C_4  and  C_6
REMARK                            x       y       z     vdW  Elec       q    Type
REMARK                         _______ _______ _______ _____ _____    ______ ____
ROOT
ATOM      1  O   UNL     1      -6.208 -16.151   6.033  0.00  0.00    +0.000 OA
ATOM      2  O   UNL     1      -8.121 -12.706   5.141  0.00  0.00    +0.000 OA
ATOM      3  C   UNL     1      -5.633 -15.256   5.136  0.00  0.00    +0.000 A 
ATOM      4  C   UNL     1      -6.223 -14.091   4.795  0.00  0.00    +0.000 A 
ATOM      5  C   UNL     1      -7.535 -13.748   5.409  0.00  0.00    +0.000 A 
ATOM      6  C   UNL     1      -8.108 -14.724   6.356  0.00  0.00    +0.000 A 
ATOM      7  C   UNL     1      -7.417 -15.838   6.597  0.00  0.00    +0.000 A 
ATOM      8  H   UNL     1      -9.061 -14.516   6.825  0.00  0.00    +0.000 HD
ATOM      9  H   UNL     1      -7.746 -16.614   7.271  0.00  0.00    +0.000 HD
ENDROOT
BRANCH   3  10
ATOM     10  C   UNL     1      -4.317 -15.720   4.597  0.00  0.00    +0.000 C 
ATOM     11  H   UNL     1      -3.495 -15.234   5.132  0.00  0.00    +0.000 HD
ATOM     12  H   UNL     1      -4.209 -15.532   3.525  0.00  0.00    +0.000 HD
ATOM     13  H   UNL     1      -4.211 -16.803   4.732  0.00  0.00    +0.000 HD
ENDBRANCH   3  10
BRANCH   4  14
ATOM     14  O   UNL     1      -5.661 -13.201   3.907  0.00  0.00    +0.000 OA
ATOM     15  H   UNL     1      -6.360 -12.707   3.451  0.00  0.00    +0.000 HD
ENDBRANCH   4  14
TORSDOF 2
ENDMDL
MODEL 10
REMARK VINA RESULT:    -3.333     22.762     23.289
REMARK INTER + INTRA:          -3.528
REMARK INTER:                  -3.528
REMARK INTRA:                   0.000
REMARK UNBOUND:                 0.000
REMARK  Name = 8369
REMARK  2 active torsions:
REMARK  status: ('A' for Active; 'I' for Inactive)
REMARK    1  A    between atoms: O_2  and  C_5
REMARK    2  A    between atoms: C_4  and  C_6
REMARK                            x       y       z     vdW  Elec       q    Type
REMARK                         _______ _______ _______ _____ _____    ______ ____
ROOT
ATOM      1  O   UNL     1      12.622  20.391 -11.795  0.00  0.00    +0.000 OA
ATOM      2  O   UNL     1      14.897  17.067 -12.099  0.00  0.00    +0.000 OA
ATOM      3  C   UNL     1      12.390  19.317 -10.941  0.00  0.00    +0.000 A 
ATOM      4  C   UNL     1      13.113  18.180 -10.995  0.00  0.00    +0.000 A 
ATOM      5  C   UNL     1      14.205  18.073 -12.001  0.00  0.00    +0.000 A 
ATOM      6  C   UNL     1      14.418  19.235 -12.885  0.00  0.00    +0.000 A 
ATOM      7  C   UNL     1      13.625  20.294 -12.724  0.00  0.00    +0.000 A 
ATOM      8  H   UNL     1      15.200  19.201 -13.632  0.00  0.00    +0.000 HD
ATOM      9  H   UNL     1      13.697  21.194 -13.317  0.00  0.00    +0.000 HD
ENDROOT
BRANCH   3  10
ATOM     10  C   UNL     1      11.269  19.556  -9.980  0.00  0.00    +0.000 C 
ATOM     11  H   UNL     1      10.887  20.576 -10.089  0.00  0.00    +0.000 HD
ATOM     12  H   UNL     1      11.563  19.392  -8.939  0.00  0.00    +0.000 HD
ATOM     13  H   UNL     1      10.442  18.864 -10.179  0.00  0.00    +0.000 HD
ENDBRANCH   3  10
BRANCH   4  14
ATOM     14  O   UNL     1      12.889  17.112 -10.155  0.00  0.00    +0.000 OA
ATOM     15  H   UNL     1      13.356  17.250  -9.316  0.00  0.00    +0.000 HD
ENDBRANCH   4  14
TORSDOF 2
ENDMDL
