MODEL 1
REMARK VINA RESULT:    -4.971      0.000      0.000
REMARK INTER + INTRA:          -5.847
REMARK INTER:                  -5.701
REMARK INTRA:                  -0.147
REMARK UNBOUND:                -0.150
REMARK  Name = 26447
REMARK  4 active torsions:
REMARK  status: ('A' for Active; 'I' for Inactive)
REMARK    1  A    between atoms: C_2  and  C_6
REMARK    2  A    between atoms: C_4  and  C_9
REMARK    3  A    between atoms: C_6  and  C_10
REMARK    4  A    between atoms: C_6  and  C_11
REMARK                            x       y       z     vdW  Elec       q    Type
REMARK                         _______ _______ _______ _____ _____    ______ ____
ROOT
ATOM      1  O   UNL     1      18.896  -4.185  -1.196  0.00  0.00    +0.000 OA
ATOM      2  C   UNL     1      17.209  -5.135  -2.617  0.00  0.00    +0.000 C 
ATOM      3  C   UNL     1      17.321  -5.503  -4.098  0.00  0.00    +0.000 C 
ATOM      4  C   UNL     1      19.608  -6.573  -3.736  0.00  0.00    +0.000 C 
ATOM      5  C   UNL     1      18.210  -6.720  -4.353  0.00  0.00    +0.000 C 
ATOM      6  C   UNL     1      19.520  -6.248  -2.245  0.00  0.00    +0.000 C 
ATOM      7  C   UNL     1      18.586  -5.086  -1.975  0.00  0.00    +0.000 C 
ATOM      8  H   UNL     1      16.792  -4.120  -2.563  0.00  0.00    +0.000 HD
ATOM      9  H   UNL     1      17.761  -4.645  -4.625  0.00  0.00    +0.000 HD
ATOM     10  H   UNL     1      16.347  -5.644  -4.573  0.00  0.00    +0.000 HD
ATOM     11  H   UNL     1      20.123  -7.537  -3.842  0.00  0.00    +0.000 HD
ATOM     12  H   UNL     1      17.727  -7.614  -3.942  0.00  0.00    +0.000 HD
ATOM     13  H   UNL     1      18.295  -6.886  -5.435  0.00  0.00    +0.000 HD
ATOM     14  H   UNL     1      20.511  -6.006  -1.844  0.00  0.00    +0.000 HD
ATOM     15  H   UNL     1      19.146  -7.114  -1.686  0.00  0.00    +0.000 HD
ENDROOT
BRANCH   4  16
ATOM     16  C   UNL     1      20.455  -5.535  -4.480  0.00  0.00    +0.000 C 
ATOM     17  H   UNL     1      21.218  -5.112  -3.819  0.00  0.00    +0.000 HD
ATOM     18  H   UNL     1      20.960  -5.959  -5.354  0.00  0.00    +0.000 HD
ATOM     19  H   UNL     1      19.826  -4.710  -4.830  0.00  0.00    +0.000 HD
ENDBRANCH   4  16
BRANCH   2  20
ATOM     20  C   UNL     1      16.308  -6.090  -1.837  0.00  0.00    +0.000 C 
ATOM     21  H   UNL     1      16.868  -6.982  -1.530  0.00  0.00    +0.000 HD
BRANCH  20  22
ATOM     22  C   UNL     1      15.798  -5.426  -0.559  0.00  0.00    +0.000 C 
ATOM     23  H   UNL     1      16.301  -4.470  -0.377  0.00  0.00    +0.000 HD
ATOM     24  H   UNL     1      14.723  -5.227  -0.630  0.00  0.00    +0.000 HD
ATOM     25  H   UNL     1      15.942  -6.063   0.319  0.00  0.00    +0.000 HD
ENDBRANCH  20  22
BRANCH  20  26
ATOM     26  C   UNL     1      15.140  -6.555  -2.702  0.00  0.00    +0.000 C 
ATOM     27  H   UNL     1      14.438  -7.177  -2.135  0.00  0.00    +0.000 HD
ATOM     28  H   UNL     1      15.499  -7.153  -3.547  0.00  0.00    +0.000 HD
ATOM     29  H   UNL     1      14.592  -5.715  -3.138  0.00  0.00    +0.000 HD
ENDBRANCH  20  26
ENDBRANCH   2  20
TORSDOF 4
ENDMDL
MODEL 2
REMARK VINA RESULT:    -4.884      1.109      3.676
REMARK INTER + INTRA:          -5.748
REMARK INTER:                  -5.595
REMARK INTRA:                  -0.153
REMARK UNBOUND:                -0.150
REMARK  Name = 26447
REMARK  4 active torsions:
REMARK  status: ('A' for Active; 'I' for Inactive)
REMARK    1  A    between atoms: C_2  and  C_6
REMARK    2  A    between atoms: C_4  and  C_9
REMARK    3  A    between atoms: C_6  and  C_10
REMARK    4  A    between atoms: C_6  and  C_11
REMARK                            x       y       z     vdW  Elec       q    Type
REMARK                         _______ _______ _______ _____ _____    ______ ____
ROOT
ATOM      1  O   UNL     1      19.299  -5.471  -1.210  0.00  0.00    +0.000 OA
ATOM      2  C   UNL     1      17.800  -6.347  -2.869  0.00  0.00    +0.000 C 
ATOM      3  C   UNL     1      16.307  -6.651  -2.725  0.00  0.00    +0.000 C 
ATOM      4  C   UNL     1      15.902  -4.451  -1.497  0.00  0.00    +0.000 C 
ATOM      5  C   UNL     1      15.442  -5.395  -2.617  0.00  0.00    +0.000 C 
ATOM      6  C   UNL     1      17.382  -4.099  -1.647  0.00  0.00    +0.000 C 
ATOM      7  C   UNL     1      18.240  -5.336  -1.823  0.00  0.00    +0.000 C 
ATOM      8  H   UNL     1      18.345  -7.279  -2.664  0.00  0.00    +0.000 HD
ATOM      9  H   UNL     1      16.170  -7.236  -1.805  0.00  0.00    +0.000 HD
ATOM     10  H   UNL     1      15.929  -7.300  -3.519  0.00  0.00    +0.000 HD
ATOM     11  H   UNL     1      15.323  -3.523  -1.584  0.00  0.00    +0.000 HD
ATOM     12  H   UNL     1      15.464  -4.857  -3.573  0.00  0.00    +0.000 HD
ATOM     13  H   UNL     1      14.397  -5.688  -2.454  0.00  0.00    +0.000 HD
ATOM     14  H   UNL     1      17.736  -3.544  -0.771  0.00  0.00    +0.000 HD
ATOM     15  H   UNL     1      17.536  -3.458  -2.523  0.00  0.00    +0.000 HD
ENDROOT
BRANCH   4  16
ATOM     16  C   UNL     1      15.607  -5.028  -0.108  0.00  0.00    +0.000 C 
ATOM     17  H   UNL     1      15.194  -4.258   0.551  0.00  0.00    +0.000 HD
ATOM     18  H   UNL     1      14.898  -5.860  -0.145  0.00  0.00    +0.000 HD
ATOM     19  H   UNL     1      16.528  -5.399   0.353  0.00  0.00    +0.000 HD
ENDBRANCH   4  16
BRANCH   2  20
ATOM     20  C   UNL     1      18.169  -5.845  -4.262  0.00  0.00    +0.000 C 
ATOM     21  H   UNL     1      17.776  -4.833  -4.423  0.00  0.00    +0.000 HD
BRANCH  20  22
ATOM     22  C   UNL     1      19.687  -5.760  -4.420  0.00  0.00    +0.000 C 
ATOM     23  H   UNL     1      20.048  -4.738  -4.264  0.00  0.00    +0.000 HD
ATOM     24  H   UNL     1      20.187  -6.404  -3.689  0.00  0.00    +0.000 HD
ATOM     25  H   UNL     1      20.015  -6.095  -5.408  0.00  0.00    +0.000 HD
ENDBRANCH  20  22
BRANCH  20  26
ATOM     26  C   UNL     1      17.568  -6.748  -5.337  0.00  0.00    +0.000 C 
ATOM     27  H   UNL     1      16.853  -6.207  -5.967  0.00  0.00    +0.000 HD
ATOM     28  H   UNL     1      17.034  -7.589  -4.880  0.00  0.00    +0.000 HD
ATOM     29  H   UNL     1      18.337  -7.191  -5.977  0.00  0.00    +0.000 HD
ENDBRANCH  20  26
ENDBRANCH   2  20
TORSDOF 4
ENDMDL
MODEL 3
REMARK VINA RESULT:    -4.656     25.031     27.541
REMARK INTER + INTRA:          -5.486
REMARK INTER:                  -5.323
REMARK INTRA:                  -0.163
REMARK UNBOUND:                -0.150
REMARK  Name = 26447
REMARK  4 active torsions:
REMARK  status: ('A' for Active; 'I' for Inactive)
REMARK    1  A    between atoms: C_2  and  C_6
REMARK    2  A    between atoms: C_4  and  C_9
REMARK    3  A    between atoms: C_6  and  C_10
REMARK    4  A    between atoms: C_6  and  C_11
REMARK                            x       y       z     vdW  Elec       q    Type
REMARK                         _______ _______ _______ _____ _____    ______ ____
ROOT
ATOM      1  O   UNL     1      -6.615 -16.769   3.567  0.00  0.00    +0.000 OA
ATOM      2  C   UNL     1      -6.787 -14.384   3.789  0.00  0.00    +0.000 C 
ATOM      3  C   UNL     1      -7.818 -13.583   4.586  0.00  0.00    +0.000 C 
ATOM      4  C   UNL     1      -7.612 -15.161   6.580  0.00  0.00    +0.000 C 
ATOM      5  C   UNL     1      -7.639 -13.703   6.100  0.00  0.00    +0.000 C 
ATOM      6  C   UNL     1      -6.557 -15.970   5.826  0.00  0.00    +0.000 C 
ATOM      7  C   UNL     1      -6.684 -15.802   4.325  0.00  0.00    +0.000 C 
ATOM      8  H   UNL     1      -7.156 -14.457   2.756  0.00  0.00    +0.000 HD
ATOM      9  H   UNL     1      -8.815 -13.970   4.332  0.00  0.00    +0.000 HD
ATOM     10  H   UNL     1      -7.853 -12.530   4.295  0.00  0.00    +0.000 HD
ATOM     11  H   UNL     1      -7.339 -15.157   7.643  0.00  0.00    +0.000 HD
ATOM     12  H   UNL     1      -6.704 -13.210   6.393  0.00  0.00    +0.000 HD
ATOM     13  H   UNL     1      -8.446 -13.158   6.604  0.00  0.00    +0.000 HD
ATOM     14  H   UNL     1      -6.640 -17.035   6.072  0.00  0.00    +0.000 HD
ATOM     15  H   UNL     1      -5.549 -15.647   6.114  0.00  0.00    +0.000 HD
ENDROOT
BRANCH   4  16
ATOM     16  C   UNL     1      -8.991 -15.820   6.480  0.00  0.00    +0.000 C 
ATOM     17  H   UNL     1      -8.971 -16.655   5.773  0.00  0.00    +0.000 HD
ATOM     18  H   UNL     1      -9.342 -16.201   7.445  0.00  0.00    +0.000 HD
ATOM     19  H   UNL     1      -9.733 -15.100   6.121  0.00  0.00    +0.000 HD
ENDBRANCH   4  16
BRANCH   2  20
ATOM     20  C   UNL     1      -5.407 -13.731   3.783  0.00  0.00    +0.000 C 
ATOM     21  H   UNL     1      -4.890 -13.917   4.733  0.00  0.00    +0.000 HD
BRANCH  20  22
ATOM     22  C   UNL     1      -4.533 -14.327   2.680  0.00  0.00    +0.000 C 
ATOM     23  H   UNL     1      -5.019 -14.251   1.701  0.00  0.00    +0.000 HD
ATOM     24  H   UNL     1      -3.576 -13.799   2.618  0.00  0.00    +0.000 HD
ATOM     25  H   UNL     1      -4.299 -15.379   2.868  0.00  0.00    +0.000 HD
ENDBRANCH  20  22
BRANCH  20  26
ATOM     26  C   UNL     1      -5.528 -12.219   3.613  0.00  0.00    +0.000 C 
ATOM     27  H   UNL     1      -5.588 -11.934   2.556  0.00  0.00    +0.000 HD
ATOM     28  H   UNL     1      -4.656 -11.712   4.041  0.00  0.00    +0.000 HD
ATOM     29  H   UNL     1      -6.399 -11.816   4.136  0.00  0.00    +0.000 HD
ENDBRANCH  20  26
ENDBRANCH   2  20
TORSDOF 4
ENDMDL
MODEL 4
REMARK VINA RESULT:    -4.625     23.975     26.240
REMARK INTER + INTRA:          -5.451
REMARK INTER:                  -5.305
REMARK INTRA:                  -0.146
REMARK UNBOUND:                -0.150
REMARK  Name = 26447
REMARK  4 active torsions:
REMARK  status: ('A' for Active; 'I' for Inactive)
REMARK    1  A    between atoms: C_2  and  C_6
REMARK    2  A    between atoms: C_4  and  C_9
REMARK    3  A    between atoms: C_6  and  C_10
REMARK    4  A    between atoms: C_6  and  C_11
REMARK                            x       y       z     vdW  Elec       q    Type
REMARK                         _______ _______ _______ _____ _____    ______ ____
ROOT
ATOM      1  O   UNL     1      -4.464 -15.213   5.092  0.00  0.00    +0.000 OA
ATOM      2  C   UNL     1      -5.633 -15.279   2.996  0.00  0.00    +0.000 C 
ATOM      3  C   UNL     1      -7.119 -15.026   2.737  0.00  0.00    +0.000 C 
ATOM      4  C   UNL     1      -7.118 -12.989   4.272  0.00  0.00    +0.000 C 
ATOM      5  C   UNL     1      -7.523 -13.561   2.907  0.00  0.00    +0.000 C 
ATOM      6  C   UNL     1      -5.625 -13.192   4.533  0.00  0.00    +0.000 C 
ATOM      7  C   UNL     1      -5.202 -14.628   4.300  0.00  0.00    +0.000 C 
ATOM      8  H   UNL     1      -5.502 -16.363   3.119  0.00  0.00    +0.000 HD
ATOM      9  H   UNL     1      -7.693 -15.622   3.461  0.00  0.00    +0.000 HD
ATOM     10  H   UNL     1      -7.448 -15.395   1.761  0.00  0.00    +0.000 HD
ATOM     11  H   UNL     1      -7.314 -11.909   4.253  0.00  0.00    +0.000 HD
ATOM     12  H   UNL     1      -7.058 -12.964   2.113  0.00  0.00    +0.000 HD
ATOM     13  H   UNL     1      -8.607 -13.466   2.768  0.00  0.00    +0.000 HD
ATOM     14  H   UNL     1      -5.372 -12.910   5.562  0.00  0.00    +0.000 HD
ATOM     15  H   UNL     1      -5.030 -12.556   3.867  0.00  0.00    +0.000 HD
ENDROOT
BRANCH   4  16
ATOM     16  C   UNL     1      -7.963 -13.572   5.409  0.00  0.00    +0.000 C 
ATOM     17  H   UNL     1      -7.331 -13.851   6.258  0.00  0.00    +0.000 HD
ATOM     18  H   UNL     1      -8.721 -12.869   5.767  0.00  0.00    +0.000 HD
ATOM     19  H   UNL     1      -8.483 -14.475   5.073  0.00  0.00    +0.000 HD
ENDBRANCH   4  16
BRANCH   2  20
ATOM     20  C   UNL     1      -4.743 -14.791   1.855  0.00  0.00    +0.000 C 
ATOM     21  H   UNL     1      -4.750 -13.695   1.803  0.00  0.00    +0.000 HD
BRANCH  20  22
ATOM     22  C   UNL     1      -3.292 -15.213   2.086  0.00  0.00    +0.000 C 
ATOM     23  H   UNL     1      -3.234 -16.157   2.640  0.00  0.00    +0.000 HD
ATOM     24  H   UNL     1      -2.776 -15.358   1.131  0.00  0.00    +0.000 HD
ATOM     25  H   UNL     1      -2.728 -14.455   2.636  0.00  0.00    +0.000 HD
ENDBRANCH  20  22
BRANCH  20  26
ATOM     26  C   UNL     1      -5.248 -15.319   0.515  0.00  0.00    +0.000 C 
ATOM     27  H   UNL     1      -6.269 -15.710   0.592  0.00  0.00    +0.000 HD
ATOM     28  H   UNL     1      -4.610 -16.134   0.156  0.00  0.00    +0.000 HD
ATOM     29  H   UNL     1      -5.224 -14.551  -0.263  0.00  0.00    +0.000 HD
ENDBRANCH  20  26
ENDBRANCH   2  20
TORSDOF 4
ENDMDL
MODEL 5
REMARK VINA RESULT:    -4.587     12.014     12.922
REMARK INTER + INTRA:          -5.407
REMARK INTER:                  -5.256
REMARK INTRA:                  -0.151
REMARK UNBOUND:                -0.150
REMARK  Name = 26447
REMARK  4 active torsions:
REMARK  status: ('A' for Active; 'I' for Inactive)
REMARK    1  A    between atoms: C_2  and  C_6
REMARK    2  A    between atoms: C_4  and  C_9
REMARK    3  A    between atoms: C_6  and  C_10
REMARK    4  A    between atoms: C_6  and  C_11
REMARK                            x       y       z     vdW  Elec       q    Type
REMARK                         _______ _______ _______ _____ _____    ______ ____
ROOT
ATOM      1  O   UNL     1      12.833   7.552  -0.551  0.00  0.00    +0.000 OA
ATOM      2  C   UNL     1      14.294   5.768  -1.224  0.00  0.00    +0.000 C 
ATOM      3  C   UNL     1      15.285   5.751  -2.389  0.00  0.00    +0.000 C 
ATOM      4  C   UNL     1      16.113   8.096  -1.820  0.00  0.00    +0.000 C 
ATOM      5  C   UNL     1      16.501   6.651  -2.164  0.00  0.00    +0.000 C 
ATOM      6  C   UNL     1      15.156   8.140  -0.628  0.00  0.00    +0.000 C 
ATOM      7  C   UNL     1      13.983   7.198  -0.813  0.00  0.00    +0.000 C 
ATOM      8  H   UNL     1      13.356   5.326  -1.586  0.00  0.00    +0.000 HD
ATOM      9  H   UNL     1      14.759   6.110  -3.285  0.00  0.00    +0.000 HD
ATOM     10  H   UNL     1      15.611   4.741  -2.653  0.00  0.00    +0.000 HD
ATOM     11  H   UNL     1      17.030   8.629  -1.537  0.00  0.00    +0.000 HD
ATOM     12  H   UNL     1      17.111   6.238  -1.352  0.00  0.00    +0.000 HD
ATOM     13  H   UNL     1      17.133   6.637  -3.061  0.00  0.00    +0.000 HD
ATOM     14  H   UNL     1      14.774   9.156  -0.479  0.00  0.00    +0.000 HD
ATOM     15  H   UNL     1      15.676   7.849   0.292  0.00  0.00    +0.000 HD
ENDROOT
BRANCH   4  16
ATOM     16  C   UNL     1      15.527   8.833  -3.028  0.00  0.00    +0.000 C 
ATOM     17  H   UNL     1      15.679   9.913  -2.934  0.00  0.00    +0.000 HD
ATOM     18  H   UNL     1      15.976   8.508  -3.972  0.00  0.00    +0.000 HD
ATOM     19  H   UNL     1      14.449   8.656  -3.097  0.00  0.00    +0.000 HD
ENDBRANCH   4  16
BRANCH   2  20
ATOM     20  C   UNL     1      14.789   4.978  -0.015  0.00  0.00    +0.000 C 
ATOM     21  H   UNL     1      15.470   5.588   0.591  0.00  0.00    +0.000 HD
BRANCH  20  22
ATOM     22  C   UNL     1      13.620   4.590   0.889  0.00  0.00    +0.000 C 
ATOM     23  H   UNL     1      12.685   5.055   0.556  0.00  0.00    +0.000 HD
ATOM     24  H   UNL     1      13.471   3.505   0.883  0.00  0.00    +0.000 HD
ATOM     25  H   UNL     1      13.795   4.876   1.930  0.00  0.00    +0.000 HD
ENDBRANCH  20  22
BRANCH  20  26
ATOM     26  C   UNL     1      15.557   3.736  -0.461  0.00  0.00    +0.000 C 
ATOM     27  H   UNL     1      15.736   3.050   0.374  0.00  0.00    +0.000 HD
ATOM     28  H   UNL     1      16.533   4.014  -0.875  0.00  0.00    +0.000 HD
ATOM     29  H   UNL     1      15.035   3.195  -1.256  0.00  0.00    +0.000 HD
ENDBRANCH  20  26
ENDBRANCH   2  20
TORSDOF 4
ENDMDL
MODEL 6
REMARK VINA RESULT:    -4.515     25.924     27.418
REMARK INTER + INTRA:          -5.325
REMARK INTER:                  -5.166
REMARK INTRA:                  -0.159
REMARK UNBOUND:                -0.150
REMARK  Name = 26447
REMARK  4 active torsions:
REMARK  status: ('A' for Active; 'I' for Inactive)
REMARK    1  A    between atoms: C_2  and  C_6
REMARK    2  A    between atoms: C_4  and  C_9
REMARK    3  A    between atoms: C_6  and  C_10
REMARK    4  A    between atoms: C_6  and  C_11
REMARK                            x       y       z     vdW  Elec       q    Type
REMARK                         _______ _______ _______ _____ _____    ______ ____
ROOT
ATOM      1  O   UNL     1      -5.912 -16.859   4.258  0.00  0.00    +0.000 OA
ATOM      2  C   UNL     1      -6.639 -14.583   4.495  0.00  0.00    +0.000 C 
ATOM      3  C   UNL     1      -6.471 -13.431   3.503  0.00  0.00    +0.000 C 
ATOM      4  C   UNL     1      -7.152 -14.918   1.545  0.00  0.00    +0.000 C 
ATOM      5  C   UNL     1      -7.346 -13.572   2.257  0.00  0.00    +0.000 C 
ATOM      6  C   UNL     1      -7.359 -16.086   2.510  0.00  0.00    +0.000 C 
ATOM      7  C   UNL     1      -6.547 -15.920   3.779  0.00  0.00    +0.000 C 
ATOM      8  H   UNL     1      -5.795 -14.536   5.198  0.00  0.00    +0.000 HD
ATOM      9  H   UNL     1      -5.420 -13.416   3.179  0.00  0.00    +0.000 HD
ATOM     10  H   UNL     1      -6.627 -12.451   3.961  0.00  0.00    +0.000 HD
ATOM     11  H   UNL     1      -7.912 -14.992   0.757  0.00  0.00    +0.000 HD
ATOM     12  H   UNL     1      -8.400 -13.463   2.542  0.00  0.00    +0.000 HD
ATOM     13  H   UNL     1      -7.128 -12.749   1.566  0.00  0.00    +0.000 HD
ATOM     14  H   UNL     1      -7.081 -17.033   2.033  0.00  0.00    +0.000 HD
ATOM     15  H   UNL     1      -8.414 -16.163   2.797  0.00  0.00    +0.000 HD
ENDROOT
BRANCH   4  16
ATOM     16  C   UNL     1      -5.788 -15.007   0.853  0.00  0.00    +0.000 C 
ATOM     17  H   UNL     1      -5.416 -14.009   0.600  0.00  0.00    +0.000 HD
ATOM     18  H   UNL     1      -5.036 -15.501   1.477  0.00  0.00    +0.000 HD
ATOM     19  H   UNL     1      -5.869 -15.576  -0.079  0.00  0.00    +0.000 HD
ENDBRANCH   4  16
BRANCH   2  20
ATOM     20  C   UNL     1      -7.948 -14.504   5.277  0.00  0.00    +0.000 C 
ATOM     21  H   UNL     1      -8.782 -14.876   4.669  0.00  0.00    +0.000 HD
BRANCH  20  22
ATOM     22  C   UNL     1      -7.884 -15.382   6.526  0.00  0.00    +0.000 C 
ATOM     23  H   UNL     1      -8.319 -16.371   6.341  0.00  0.00    +0.000 HD
ATOM     24  H   UNL     1      -6.846 -15.530   6.841  0.00  0.00    +0.000 HD
ATOM     25  H   UNL     1      -8.407 -14.928   7.372  0.00  0.00    +0.000 HD
ENDBRANCH  20  22
BRANCH  20  26
ATOM     26  C   UNL     1      -8.263 -13.058   5.654  0.00  0.00    +0.000 C 
ATOM     27  H   UNL     1      -8.792 -12.995   6.612  0.00  0.00    +0.000 HD
ATOM     28  H   UNL     1      -8.901 -12.592   4.895  0.00  0.00    +0.000 HD
ATOM     29  H   UNL     1      -7.360 -12.443   5.709  0.00  0.00    +0.000 HD
ENDBRANCH  20  26
ENDBRANCH   2  20
TORSDOF 4
ENDMDL
MODEL 7
REMARK VINA RESULT:    -4.393     31.132     33.117
REMARK INTER + INTRA:          -5.184
REMARK INTER:                  -5.092
REMARK INTRA:                  -0.092
REMARK UNBOUND:                -0.150
REMARK  Name = 26447
REMARK  4 active torsions:
REMARK  status: ('A' for Active; 'I' for Inactive)
REMARK    1  A    between atoms: C_2  and  C_6
REMARK    2  A    between atoms: C_4  and  C_9
REMARK    3  A    between atoms: C_6  and  C_10
REMARK    4  A    between atoms: C_6  and  C_11
REMARK                            x       y       z     vdW  Elec       q    Type
REMARK                         _______ _______ _______ _____ _____    ______ ____
ROOT
ATOM      1  O   UNL     1     -16.221  -3.747  -6.075  0.00  0.00    +0.000 OA
ATOM      2  C   UNL     1     -15.846  -5.515  -4.493  0.00  0.00    +0.000 C 
ATOM      3  C   UNL     1     -14.674  -6.497  -4.438  0.00  0.00    +0.000 C 
ATOM      4  C   UNL     1     -12.991  -4.630  -4.871  0.00  0.00    +0.000 C 
ATOM      5  C   UNL     1     -13.358  -5.846  -4.009  0.00  0.00    +0.000 C 
ATOM      6  C   UNL     1     -14.133  -3.613  -4.905  0.00  0.00    +0.000 C 
ATOM      7  C   UNL     1     -15.455  -4.263  -5.262  0.00  0.00    +0.000 C 
ATOM      8  H   UNL     1     -16.653  -6.001  -5.060  0.00  0.00    +0.000 HD
ATOM      9  H   UNL     1     -14.534  -6.912  -5.446  0.00  0.00    +0.000 HD
ATOM     10  H   UNL     1     -14.882  -7.369  -3.812  0.00  0.00    +0.000 HD
ATOM     11  H   UNL     1     -12.121  -4.144  -4.410  0.00  0.00    +0.000 HD
ATOM     12  H   UNL     1     -13.434  -5.535  -2.960  0.00  0.00    +0.000 HD
ATOM     13  H   UNL     1     -12.555  -6.591  -4.052  0.00  0.00    +0.000 HD
ATOM     14  H   UNL     1     -13.921  -2.820  -5.631  0.00  0.00    +0.000 HD
ATOM     15  H   UNL     1     -14.250  -3.135  -3.926  0.00  0.00    +0.000 HD
ENDROOT
BRANCH   4  16
ATOM     16  C   UNL     1     -12.571  -5.038  -6.286  0.00  0.00    +0.000 C 
ATOM     17  H   UNL     1     -12.164  -6.055  -6.292  0.00  0.00    +0.000 HD
ATOM     18  H   UNL     1     -13.404  -5.003  -6.995  0.00  0.00    +0.000 HD
ATOM     19  H   UNL     1     -11.791  -4.368  -6.661  0.00  0.00    +0.000 HD
ENDBRANCH   4  16
BRANCH   2  20
ATOM     20  C   UNL     1     -16.363  -5.133  -3.109  0.00  0.00    +0.000 C 
ATOM     21  H   UNL     1     -15.570  -4.655  -2.520  0.00  0.00    +0.000 HD
BRANCH  20  22
ATOM     22  C   UNL     1     -17.502  -4.119  -3.221  0.00  0.00    +0.000 C 
ATOM     23  H   UNL     1     -18.073  -4.260  -4.145  0.00  0.00    +0.000 HD
ATOM     24  H   UNL     1     -18.197  -4.226  -2.381  0.00  0.00    +0.000 HD
ATOM     25  H   UNL     1     -17.136  -3.089  -3.195  0.00  0.00    +0.000 HD
ENDBRANCH  20  22
BRANCH  20  26
ATOM     26  C   UNL     1     -16.822  -6.372  -2.345  0.00  0.00    +0.000 C 
ATOM     27  H   UNL     1     -16.365  -6.426  -1.350  0.00  0.00    +0.000 HD
ATOM     28  H   UNL     1     -16.543  -7.284  -2.885  0.00  0.00    +0.000 HD
ATOM     29  H   UNL     1     -17.910  -6.406  -2.235  0.00  0.00    +0.000 HD
ENDBRANCH  20  26
ENDBRANCH   2  20
TORSDOF 4
ENDMDL
MODEL 8
REMARK VINA RESULT:    -4.369     26.205     27.446
REMARK INTER + INTRA:          -5.158
REMARK INTER:                  -4.997
REMARK INTRA:                  -0.161
REMARK UNBOUND:                -0.150
REMARK  Name = 26447
REMARK  4 active torsions:
REMARK  status: ('A' for Active; 'I' for Inactive)
REMARK    1  A    between atoms: C_2  and  C_6
REMARK    2  A    between atoms: C_4  and  C_9
REMARK    3  A    between atoms: C_6  and  C_10
REMARK    4  A    between atoms: C_6  and  C_11
REMARK                            x       y       z     vdW  Elec       q    Type
REMARK                         _______ _______ _______ _____ _____    ______ ____
ROOT
ATOM      1  O   UNL     1       2.203   4.959 -23.161  0.00  0.00    +0.000 OA
ATOM      2  C   UNL     1       0.873   3.825 -21.515  0.00  0.00    +0.000 C 
ATOM      3  C   UNL     1       1.048   3.830 -19.995  0.00  0.00    +0.000 C 
ATOM      4  C   UNL     1       1.447   6.350 -19.974  0.00  0.00    +0.000 C 
ATOM      5  C   UNL     1       0.691   5.169 -19.349  0.00  0.00    +0.000 C 
ATOM      6  C   UNL     1       1.251   6.389 -21.490  0.00  0.00    +0.000 C 
ATOM      7  C   UNL     1       1.536   5.046 -22.131  0.00  0.00    +0.000 C 
ATOM      8  H   UNL     1       1.402   2.943 -21.902  0.00  0.00    +0.000 HD
ATOM      9  H   UNL     1       2.105   3.620 -19.777  0.00  0.00    +0.000 HD
ATOM     10  H   UNL     1       0.503   3.020 -19.504  0.00  0.00    +0.000 HD
ATOM     11  H   UNL     1       1.030   7.274 -19.555  0.00  0.00    +0.000 HD
ATOM     12  H   UNL     1      -0.388   5.341 -19.446  0.00  0.00    +0.000 HD
ATOM     13  H   UNL     1       0.899   5.119 -18.273  0.00  0.00    +0.000 HD
ATOM     14  H   UNL     1       1.904   7.144 -21.943  0.00  0.00    +0.000 HD
ATOM     15  H   UNL     1       0.218   6.663 -21.735  0.00  0.00    +0.000 HD
ENDROOT
BRANCH   4  16
ATOM     16  C   UNL     1       2.935   6.332 -19.609  0.00  0.00    +0.000 C 
ATOM     17  H   UNL     1       3.423   5.440 -20.015  0.00  0.00    +0.000 HD
ATOM     18  H   UNL     1       3.467   7.211 -19.987  0.00  0.00    +0.000 HD
ATOM     19  H   UNL     1       3.061   6.312 -18.522  0.00  0.00    +0.000 HD
ENDBRANCH   4  16
BRANCH   2  20
ATOM     20  C   UNL     1      -0.591   3.760 -21.942  0.00  0.00    +0.000 C 
ATOM     21  H   UNL     1      -1.086   4.723 -21.762  0.00  0.00    +0.000 HD
BRANCH  20  22
ATOM     22  C   UNL     1      -0.704   3.477 -23.439  0.00  0.00    +0.000 C 
ATOM     23  H   UNL     1      -0.885   2.414 -23.632  0.00  0.00    +0.000 HD
ATOM     24  H   UNL     1      -1.535   4.040 -23.877  0.00  0.00    +0.000 HD
ATOM     25  H   UNL     1       0.198   3.777 -23.981  0.00  0.00    +0.000 HD
ENDBRANCH  20  22
BRANCH  20  26
ATOM     26  C   UNL     1      -1.339   2.700 -21.138  0.00  0.00    +0.000 C 
ATOM     27  H   UNL     1      -2.252   2.374 -21.649  0.00  0.00    +0.000 HD
ATOM     28  H   UNL     1      -1.634   3.095 -20.159  0.00  0.00    +0.000 HD
ATOM     29  H   UNL     1      -0.717   1.824 -20.935  0.00  0.00    +0.000 HD
ENDBRANCH  20  26
ENDBRANCH   2  20
TORSDOF 4
ENDMDL
MODEL 9
REMARK VINA RESULT:    -4.361     33.699     36.070
REMARK INTER + INTRA:          -5.149
REMARK INTER:                  -4.991
REMARK INTRA:                  -0.158
REMARK UNBOUND:                -0.150
REMARK  Name = 26447
REMARK  4 active torsions:
REMARK  status: ('A' for Active; 'I' for Inactive)
REMARK    1  A    between atoms: C_2  and  C_6
REMARK    2  A    between atoms: C_4  and  C_9
REMARK    3  A    between atoms: C_6  and  C_10
REMARK    4  A    between atoms: C_6  and  C_11
REMARK                            x       y       z     vdW  Elec       q    Type
REMARK                         _______ _______ _______ _____ _____    ______ ____
ROOT
ATOM      1  O   UNL     1     -18.074  -3.748  -5.004  0.00  0.00    +0.000 OA
ATOM      2  C   UNL     1     -18.955  -5.243  -3.343  0.00  0.00    +0.000 C 
ATOM      3  C   UNL     1     -18.381  -6.584  -2.882  0.00  0.00    +0.000 C 
ATOM      4  C   UNL     1     -16.019  -5.625  -2.786  0.00  0.00    +0.000 C 
ATOM      5  C   UNL     1     -17.098  -6.443  -2.062  0.00  0.00    +0.000 C 
ATOM      6  C   UNL     1     -16.560  -4.261  -3.218  0.00  0.00    +0.000 C 
ATOM      7  C   UNL     1     -17.868  -4.387  -3.972  0.00  0.00    +0.000 C 
ATOM      8  H   UNL     1     -19.692  -5.456  -4.130  0.00  0.00    +0.000 HD
ATOM      9  H   UNL     1     -18.147  -7.176  -3.777  0.00  0.00    +0.000 HD
ATOM     10  H   UNL     1     -19.109  -7.191  -2.337  0.00  0.00    +0.000 HD
ATOM     11  H   UNL     1     -15.198  -5.453  -2.077  0.00  0.00    +0.000 HD
ATOM     12  H   UNL     1     -17.332  -5.963  -1.104  0.00  0.00    +0.000 HD
ATOM     13  H   UNL     1     -16.711  -7.440  -1.821  0.00  0.00    +0.000 HD
ATOM     14  H   UNL     1     -15.833  -3.743  -3.854  0.00  0.00    +0.000 HD
ATOM     15  H   UNL     1     -16.738  -3.625  -2.343  0.00  0.00    +0.000 HD
ENDROOT
BRANCH   4  16
ATOM     16  C   UNL     1     -15.425  -6.387  -3.975  0.00  0.00    +0.000 C 
ATOM     17  H   UNL     1     -14.829  -7.238  -3.631  0.00  0.00    +0.000 HD
ATOM     18  H   UNL     1     -16.196  -6.765  -4.654  0.00  0.00    +0.000 HD
ATOM     19  H   UNL     1     -14.765  -5.734  -4.555  0.00  0.00    +0.000 HD
ENDBRANCH   4  16
BRANCH   2  20
ATOM     20  C   UNL     1     -19.635  -4.471  -2.215  0.00  0.00    +0.000 C 
ATOM     21  H   UNL     1     -18.887  -4.059  -1.526  0.00  0.00    +0.000 HD
BRANCH  20  22
ATOM     22  C   UNL     1     -20.424  -3.287  -2.772  0.00  0.00    +0.000 C 
ATOM     23  H   UNL     1     -20.904  -3.538  -3.724  0.00  0.00    +0.000 HD
ATOM     24  H   UNL     1     -21.211  -2.985  -2.073  0.00  0.00    +0.000 HD
ATOM     25  H   UNL     1     -19.789  -2.409  -2.927  0.00  0.00    +0.000 HD
ENDBRANCH  20  22
BRANCH  20  26
ATOM     26  C   UNL     1     -20.547  -5.391  -1.407  0.00  0.00    +0.000 C 
ATOM     27  H   UNL     1     -20.188  -6.426  -1.415  0.00  0.00    +0.000 HD
ATOM     28  H   UNL     1     -21.561  -5.391  -1.824  0.00  0.00    +0.000 HD
ATOM     29  H   UNL     1     -20.647  -5.060  -0.369  0.00  0.00    +0.000 HD
ENDBRANCH  20  26
ENDBRANCH   2  20
TORSDOF 4
ENDMDL
MODEL 10
REMARK VINA RESULT:    -4.190     26.187     27.085
REMARK INTER + INTRA:          -4.952
REMARK INTER:                  -4.802
REMARK INTRA:                  -0.150
REMARK UNBOUND:                -0.150
REMARK  Name = 26447
REMARK  4 active torsions:
REMARK  status: ('A' for Active; 'I' for Inactive)
REMARK    1  A    between atoms: C_2  and  C_6
REMARK    2  A    between atoms: C_4  and  C_9
REMARK    3  A    between atoms: C_6  and  C_10
REMARK    4  A    between atoms: C_6  and  C_11
REMARK                            x       y       z     vdW  Elec       q    Type
REMARK                         _______ _______ _______ _____ _____    ______ ____
ROOT
ATOM      1  O   UNL     1      14.825  20.381 -12.059  0.00  0.00    +0.000 OA
ATOM      2  C   UNL     1      13.482  18.570 -11.233  0.00  0.00    +0.000 C 
ATOM      3  C   UNL     1      12.139  18.648 -10.504  0.00  0.00    +0.000 C 
ATOM      4  C   UNL     1      11.268  20.400 -12.142  0.00  0.00    +0.000 C 
ATOM      5  C   UNL     1      10.984  19.082 -11.409  0.00  0.00    +0.000 C 
ATOM      6  C   UNL     1      12.587  20.329 -12.913  0.00  0.00    +0.000 C 
ATOM      7  C   UNL     1      13.723  19.834 -12.042  0.00  0.00    +0.000 C 
ATOM      8  H   UNL     1      14.268  18.524 -10.466  0.00  0.00    +0.000 HD
ATOM      9  H   UNL     1      12.235  19.390  -9.699  0.00  0.00    +0.000 HD
ATOM     10  H   UNL     1      11.882  17.719  -9.988  0.00  0.00    +0.000 HD
ATOM     11  H   UNL     1      10.460  20.559 -12.868  0.00  0.00    +0.000 HD
ATOM     12  H   UNL     1      10.788  18.294 -12.146  0.00  0.00    +0.000 HD
ATOM     13  H   UNL     1      10.071  19.176 -10.809  0.00  0.00    +0.000 HD
ATOM     14  H   UNL     1      12.851  21.313 -13.316  0.00  0.00    +0.000 HD
ATOM     15  H   UNL     1      12.495  19.643 -13.764  0.00  0.00    +0.000 HD
ENDROOT
BRANCH   4  16
ATOM     16  C   UNL     1      11.248  21.599 -11.189  0.00  0.00    +0.000 C 
ATOM     17  H   UNL     1      10.267  22.085 -11.197  0.00  0.00    +0.000 HD
ATOM     18  H   UNL     1      11.479  21.315 -10.158  0.00  0.00    +0.000 HD
ATOM     19  H   UNL     1      11.989  22.344 -11.499  0.00  0.00    +0.000 HD
ENDBRANCH   4  16
BRANCH   2  20
ATOM     20  C   UNL     1      13.593  17.346 -12.138  0.00  0.00    +0.000 C 
ATOM     21  H   UNL     1      12.925  17.446 -13.003  0.00  0.00    +0.000 HD
BRANCH  20  22
ATOM     22  C   UNL     1      15.012  17.210 -12.689  0.00  0.00    +0.000 C 
ATOM     23  H   UNL     1      15.679  17.970 -12.267  0.00  0.00    +0.000 HD
ATOM     24  H   UNL     1      15.429  16.228 -12.443  0.00  0.00    +0.000 HD
ATOM     25  H   UNL     1      15.038  17.297 -13.779  0.00  0.00    +0.000 HD
ENDBRANCH  20  22
BRANCH  20  26
ATOM     26  C   UNL     1      13.186  16.081 -11.387  0.00  0.00    +0.000 C 
ATOM     27  H   UNL     1      12.267  15.646 -11.794  0.00  0.00    +0.000 HD
ATOM     28  H   UNL     1      13.005  16.302 -10.329  0.00  0.00    +0.000 HD
ATOM     29  H   UNL     1      13.974  15.322 -11.406  0.00  0.00    +0.000 HD
ENDBRANCH  20  26
ENDBRANCH   2  20
TORSDOF 4
ENDMDL
