MODEL 1
REMARK VINA RESULT:    -5.279      0.000      0.000
REMARK INTER + INTRA:          -9.137
REMARK INTER:                  -8.540
REMARK INTRA:                  -0.597
REMARK UNBOUND:                -0.772
REMARK  Name = 8050
REMARK  11 active torsions:
REMARK  status: ('A' for Active; 'I' for Inactive)
REMARK    1  A    between atoms: O_1  and  C_12
REMARK    2  A    between atoms: O_1  and  C_13
REMARK    3  A    between atoms: C_3  and  C_4
REMARK    4  A    between atoms: C_3  and  C_5
REMARK    5  A    between atoms: C_4  and  C_6
REMARK    6  A    between atoms: C_5  and  C_7
REMARK    7  A    between atoms: C_6  and  C_8
REMARK    8  A    between atoms: C_7  and  C_9
REMARK    9  A    between atoms: C_8  and  C_10
REMARK   10  A    between atoms: C_9  and  C_11
REMARK   11  A    between atoms: C_10  and  C_12
REMARK                            x       y       z     vdW  Elec       q    Type
REMARK                         _______ _______ _______ _____ _____    ______ ____
ROOT
ATOM      1  C   UNL     1       3.505  -7.701  -8.430  0.00  0.00    +0.000 C 
ATOM      2  H   UNL     1       2.560  -7.958  -8.924  0.00  0.00    +0.000 HD
ATOM      3  H   UNL     1       3.748  -8.526  -7.749  0.00  0.00    +0.000 HD
ENDROOT
BRANCH   1   4
ATOM      4  C   UNL     1       4.611  -7.560  -9.478  0.00  0.00    +0.000 C 
ATOM      5  H   UNL     1       5.152  -8.508  -9.576  0.00  0.00    +0.000 HD
ATOM      6  H   UNL     1       4.167  -7.337 -10.455  0.00  0.00    +0.000 HD
BRANCH   4   7
ATOM      7  C   UNL     1       5.593  -6.448  -9.100  0.00  0.00    +0.000 C 
ATOM      8  H   UNL     1       6.583  -6.884  -8.922  0.00  0.00    +0.000 HD
ATOM      9  H   UNL     1       5.274  -5.989  -8.156  0.00  0.00    +0.000 HD
BRANCH   7  10
ATOM     10  C   UNL     1       5.713  -5.355 -10.166  0.00  0.00    +0.000 C 
ATOM     11  H   UNL     1       6.571  -5.574 -10.813  0.00  0.00    +0.000 HD
ATOM     12  H   UNL     1       5.926  -4.399  -9.671  0.00  0.00    +0.000 HD
BRANCH  10  13
ATOM     13  C   UNL     1       4.459  -5.208 -11.030  0.00  0.00    +0.000 C 
ATOM     14  H   UNL     1       4.189  -6.178 -11.460  0.00  0.00    +0.000 HD
ATOM     15  H   UNL     1       3.616  -4.881 -10.408  0.00  0.00    +0.000 HD
BRANCH  13  16
ATOM     16  C   UNL     1       4.672  -4.200 -12.148  0.00  0.00    +0.000 C 
ATOM     17  H   UNL     1       3.741  -4.016 -12.695  0.00  0.00    +0.000 HD
ATOM     18  H   UNL     1       5.414  -4.575 -12.860  0.00  0.00    +0.000 HD
ATOM     19  H   UNL     1       5.033  -3.246 -11.752  0.00  0.00    +0.000 HD
ENDBRANCH  13  16
ENDBRANCH  10  13
ENDBRANCH   7  10
ENDBRANCH   4   7
ENDBRANCH   1   4
BRANCH   1  20
ATOM     20  C   UNL     1       3.332  -6.411  -7.626  0.00  0.00    +0.000 C 
ATOM     21  H   UNL     1       3.343  -6.639  -6.555  0.00  0.00    +0.000 HD
ATOM     22  H   UNL     1       4.178  -5.741  -7.824  0.00  0.00    +0.000 HD
BRANCH  20  23
ATOM     23  C   UNL     1       2.023  -5.705  -7.983  0.00  0.00    +0.000 C 
ATOM     24  H   UNL     1       1.404  -6.368  -8.600  0.00  0.00    +0.000 HD
ATOM     25  H   UNL     1       2.241  -4.819  -8.592  0.00  0.00    +0.000 HD
BRANCH  23  26
ATOM     26  C   UNL     1       1.255  -5.295  -6.731  0.00  0.00    +0.000 C 
ATOM     27  H   UNL     1       1.349  -4.216  -6.568  0.00  0.00    +0.000 HD
ATOM     28  H   UNL     1       1.653  -5.828  -5.860  0.00  0.00    +0.000 HD
BRANCH  26  30
ATOM     29  O   UNL     1      -0.652  -6.409  -7.703  0.00  0.00    +0.000 OA
ATOM     30  C   UNL     1      -0.208  -5.629  -6.871  0.00  0.00    +0.000 C 
BRANCH  30  31
ATOM     31  O   UNL     1      -0.930  -4.954  -5.930  0.00  0.00    +0.000 OA
BRANCH  31  32
ATOM     32  C   UNL     1      -1.112  -5.638  -4.687  0.00  0.00    +0.000 C 
ATOM     33  H   UNL     1      -1.814  -6.468  -4.811  0.00  0.00    +0.000 HD
ATOM     34  H   UNL     1      -1.467  -4.943  -3.920  0.00  0.00    +0.000 HD
ATOM     35  H   UNL     1      -0.145  -6.040  -4.376  0.00  0.00    +0.000 HD
ENDBRANCH  31  32
ENDBRANCH  30  31
ENDBRANCH  26  30
ENDBRANCH  23  26
ENDBRANCH  20  23
ENDBRANCH   1  20
TORSDOF 11
ENDMDL
MODEL 2
REMARK VINA RESULT:    -5.008      2.191      3.624
REMARK INTER + INTRA:          -8.707
REMARK INTER:                  -8.294
REMARK INTRA:                  -0.413
REMARK UNBOUND:                -0.772
REMARK  Name = 8050
REMARK  11 active torsions:
REMARK  status: ('A' for Active; 'I' for Inactive)
REMARK    1  A    between atoms: O_1  and  C_12
REMARK    2  A    between atoms: O_1  and  C_13
REMARK    3  A    between atoms: C_3  and  C_4
REMARK    4  A    between atoms: C_3  and  C_5
REMARK    5  A    between atoms: C_4  and  C_6
REMARK    6  A    between atoms: C_5  and  C_7
REMARK    7  A    between atoms: C_6  and  C_8
REMARK    8  A    between atoms: C_7  and  C_9
REMARK    9  A    between atoms: C_8  and  C_10
REMARK   10  A    between atoms: C_9  and  C_11
REMARK   11  A    between atoms: C_10  and  C_12
REMARK                            x       y       z     vdW  Elec       q    Type
REMARK                         _______ _______ _______ _____ _____    ______ ____
ROOT
ATOM      1  C   UNL     1       5.336  -5.206 -10.785  0.00  0.00    +0.000 C 
ATOM      2  H   UNL     1       6.153  -5.787 -11.230  0.00  0.00    +0.000 HD
ATOM      3  H   UNL     1       5.748  -4.688  -9.910  0.00  0.00    +0.000 HD
ENDROOT
BRANCH   1   4
ATOM      4  C   UNL     1       4.830  -4.175 -11.797  0.00  0.00    +0.000 C 
ATOM      5  H   UNL     1       4.697  -3.205 -11.304  0.00  0.00    +0.000 HD
ATOM      6  H   UNL     1       5.577  -4.037 -12.588  0.00  0.00    +0.000 HD
BRANCH   4   7
ATOM      7  C   UNL     1       3.504  -4.618 -12.421  0.00  0.00    +0.000 C 
ATOM      8  H   UNL     1       2.762  -3.820 -12.297  0.00  0.00    +0.000 HD
ATOM      9  H   UNL     1       3.124  -5.493 -11.880  0.00  0.00    +0.000 HD
BRANCH   7  10
ATOM     10  C   UNL     1       3.619  -4.967 -13.908  0.00  0.00    +0.000 C 
ATOM     11  H   UNL     1       4.488  -5.619 -14.059  0.00  0.00    +0.000 HD
ATOM     12  H   UNL     1       3.811  -4.048 -14.474  0.00  0.00    +0.000 HD
BRANCH  10  13
ATOM     13  C   UNL     1       2.373  -5.655 -14.468  0.00  0.00    +0.000 C 
ATOM     14  H   UNL     1       2.667  -6.428 -15.187  0.00  0.00    +0.000 HD
ATOM     15  H   UNL     1       1.828  -6.154 -13.658  0.00  0.00    +0.000 HD
BRANCH  13  16
ATOM     16  C   UNL     1       1.448  -4.658 -15.149  0.00  0.00    +0.000 C 
ATOM     17  H   UNL     1       0.838  -4.122 -14.414  0.00  0.00    +0.000 HD
ATOM     18  H   UNL     1       0.774  -5.175 -15.838  0.00  0.00    +0.000 HD
ATOM     19  H   UNL     1       2.021  -3.921 -15.722  0.00  0.00    +0.000 HD
ENDBRANCH  13  16
ENDBRANCH  10  13
ENDBRANCH   7  10
ENDBRANCH   4   7
ENDBRANCH   1   4
BRANCH   1  20
ATOM     20  C   UNL     1       4.216  -6.147 -10.341  0.00  0.00    +0.000 C 
ATOM     21  H   UNL     1       3.243  -5.691 -10.558  0.00  0.00    +0.000 HD
ATOM     22  H   UNL     1       4.271  -7.079 -10.918  0.00  0.00    +0.000 HD
BRANCH  20  23
ATOM     23  C   UNL     1       4.311  -6.460  -8.847  0.00  0.00    +0.000 C 
ATOM     24  H   UNL     1       4.557  -5.545  -8.295  0.00  0.00    +0.000 HD
ATOM     25  H   UNL     1       5.134  -7.165  -8.675  0.00  0.00    +0.000 HD
BRANCH  23  26
ATOM     26  C   UNL     1       3.008  -7.050  -8.320  0.00  0.00    +0.000 C 
ATOM     27  H   UNL     1       3.218  -7.902  -7.665  0.00  0.00    +0.000 HD
ATOM     28  H   UNL     1       2.384  -7.382  -9.158  0.00  0.00    +0.000 HD
BRANCH  26  30
ATOM     29  O   UNL     1       2.354  -5.869  -6.320  0.00  0.00    +0.000 OA
ATOM     30  C   UNL     1       2.240  -6.022  -7.529  0.00  0.00    +0.000 C 
BRANCH  30  31
ATOM     31  O   UNL     1       1.438  -5.298  -8.362  0.00  0.00    +0.000 OA
BRANCH  31  32
ATOM     32  C   UNL     1       0.051  -5.272  -8.012  0.00  0.00    +0.000 C 
ATOM     33  H   UNL     1      -0.063  -5.224  -6.924  0.00  0.00    +0.000 HD
ATOM     34  H   UNL     1      -0.459  -6.151  -8.416  0.00  0.00    +0.000 HD
ATOM     35  H   UNL     1      -0.393  -4.375  -8.451  0.00  0.00    +0.000 HD
ENDBRANCH  31  32
ENDBRANCH  30  31
ENDBRANCH  26  30
ENDBRANCH  23  26
ENDBRANCH  20  23
ENDBRANCH   1  20
TORSDOF 11
ENDMDL
MODEL 3
REMARK VINA RESULT:    -4.437     15.845     18.525
REMARK INTER + INTRA:          -7.803
REMARK INTER:                  -6.880
REMARK INTRA:                  -0.922
REMARK UNBOUND:                -0.772
REMARK  Name = 8050
REMARK  11 active torsions:
REMARK  status: ('A' for Active; 'I' for Inactive)
REMARK    1  A    between atoms: O_1  and  C_12
REMARK    2  A    between atoms: O_1  and  C_13
REMARK    3  A    between atoms: C_3  and  C_4
REMARK    4  A    between atoms: C_3  and  C_5
REMARK    5  A    between atoms: C_4  and  C_6
REMARK    6  A    between atoms: C_5  and  C_7
REMARK    7  A    between atoms: C_6  and  C_8
REMARK    8  A    between atoms: C_7  and  C_9
REMARK    9  A    between atoms: C_8  and  C_10
REMARK   10  A    between atoms: C_9  and  C_11
REMARK   11  A    between atoms: C_10  and  C_12
REMARK                            x       y       z     vdW  Elec       q    Type
REMARK                         _______ _______ _______ _____ _____    ______ ____
ROOT
ATOM      1  C   UNL     1      -7.681 -12.983   4.988  0.00  0.00    +0.000 C 
ATOM      2  H   UNL     1      -7.979 -11.944   4.801  0.00  0.00    +0.000 HD
ATOM      3  H   UNL     1      -8.282 -13.616   4.324  0.00  0.00    +0.000 HD
ENDROOT
BRANCH   1   4
ATOM      4  C   UNL     1      -6.197 -13.159   4.655  0.00  0.00    +0.000 C 
ATOM      5  H   UNL     1      -5.658 -12.226   4.862  0.00  0.00    +0.000 HD
ATOM      6  H   UNL     1      -5.764 -13.933   5.299  0.00  0.00    +0.000 HD
BRANCH   4   7
ATOM      7  C   UNL     1      -6.001 -13.549   3.188  0.00  0.00    +0.000 C 
ATOM      8  H   UNL     1      -5.359 -14.436   3.133  0.00  0.00    +0.000 HD
ATOM      9  H   UNL     1      -5.472 -12.742   2.667  0.00  0.00    +0.000 HD
BRANCH   7  10
ATOM     10  C   UNL     1      -7.314 -13.835   2.455  0.00  0.00    +0.000 C 
ATOM     11  H   UNL     1      -7.899 -12.909   2.388  0.00  0.00    +0.000 HD
ATOM     12  H   UNL     1      -7.907 -14.540   3.051  0.00  0.00    +0.000 HD
BRANCH  10  13
ATOM     13  C   UNL     1      -7.114 -14.404   1.049  0.00  0.00    +0.000 C 
ATOM     14  H   UNL     1      -6.166 -14.950   1.001  0.00  0.00    +0.000 HD
ATOM     15  H   UNL     1      -7.914 -15.118   0.821  0.00  0.00    +0.000 HD
BRANCH  13  16
ATOM     16  C   UNL     1      -7.117 -13.303   0.000  0.00  0.00    +0.000 C 
ATOM     17  H   UNL     1      -6.129 -13.196  -0.461  0.00  0.00    +0.000 HD
ATOM     18  H   UNL     1      -7.383 -12.345   0.457  0.00  0.00    +0.000 HD
ATOM     19  H   UNL     1      -7.844 -13.516  -0.790  0.00  0.00    +0.000 HD
ENDBRANCH  13  16
ENDBRANCH  10  13
ENDBRANCH   7  10
ENDBRANCH   4   7
ENDBRANCH   1   4
BRANCH   1  20
ATOM     20  C   UNL     1      -7.971 -13.349   6.444  0.00  0.00    +0.000 C 
ATOM     21  H   UNL     1      -7.252 -12.847   7.102  0.00  0.00    +0.000 HD
ATOM     22  H   UNL     1      -8.969 -12.987   6.720  0.00  0.00    +0.000 HD
BRANCH  20  23
ATOM     23  C   UNL     1      -7.892 -14.860   6.664  0.00  0.00    +0.000 C 
ATOM     24  H   UNL     1      -8.049 -15.087   7.725  0.00  0.00    +0.000 HD
ATOM     25  H   UNL     1      -6.883 -15.212   6.412  0.00  0.00    +0.000 HD
BRANCH  23  26
ATOM     26  C   UNL     1      -8.922 -15.598   5.817  0.00  0.00    +0.000 C 
ATOM     27  H   UNL     1      -9.501 -14.885   5.220  0.00  0.00    +0.000 HD
ATOM     28  H   UNL     1      -9.602 -16.162   6.466  0.00  0.00    +0.000 HD
BRANCH  26  30
ATOM     29  O   UNL     1      -8.826 -17.160   3.979  0.00  0.00    +0.000 OA
ATOM     30  C   UNL     1      -8.246 -16.564   4.877  0.00  0.00    +0.000 C 
BRANCH  30  31
ATOM     31  O   UNL     1      -6.916 -16.642   5.171  0.00  0.00    +0.000 OA
BRANCH  31  32
ATOM     32  C   UNL     1      -6.085 -17.161   4.127  0.00  0.00    +0.000 C 
ATOM     33  H   UNL     1      -5.214 -16.516   3.981  0.00  0.00    +0.000 HD
ATOM     34  H   UNL     1      -6.657 -17.256   3.199  0.00  0.00    +0.000 HD
ATOM     35  H   UNL     1      -5.740 -18.153   4.430  0.00  0.00    +0.000 HD
ENDBRANCH  31  32
ENDBRANCH  30  31
ENDBRANCH  26  30
ENDBRANCH  23  26
ENDBRANCH  20  23
ENDBRANCH   1  20
TORSDOF 11
ENDMDL
MODEL 4
REMARK VINA RESULT:    -4.359     15.749     17.959
REMARK INTER + INTRA:          -7.680
REMARK INTER:                  -7.066
REMARK INTRA:                  -0.613
REMARK UNBOUND:                -0.772
REMARK  Name = 8050
REMARK  11 active torsions:
REMARK  status: ('A' for Active; 'I' for Inactive)
REMARK    1  A    between atoms: O_1  and  C_12
REMARK    2  A    between atoms: O_1  and  C_13
REMARK    3  A    between atoms: C_3  and  C_4
REMARK    4  A    between atoms: C_3  and  C_5
REMARK    5  A    between atoms: C_4  and  C_6
REMARK    6  A    between atoms: C_5  and  C_7
REMARK    7  A    between atoms: C_6  and  C_8
REMARK    8  A    between atoms: C_7  and  C_9
REMARK    9  A    between atoms: C_8  and  C_10
REMARK   10  A    between atoms: C_9  and  C_11
REMARK   11  A    between atoms: C_10  and  C_12
REMARK                            x       y       z     vdW  Elec       q    Type
REMARK                         _______ _______ _______ _____ _____    ______ ____
ROOT
ATOM      1  C   UNL     1      17.032  -6.333  -3.948  0.00  0.00    +0.000 C 
ATOM      2  H   UNL     1      17.013  -7.130  -3.195  0.00  0.00    +0.000 HD
ATOM      3  H   UNL     1      16.167  -6.487  -4.604  0.00  0.00    +0.000 HD
ENDROOT
BRANCH   1   4
ATOM      4  C   UNL     1      16.913  -4.972  -3.257  0.00  0.00    +0.000 C 
ATOM      5  H   UNL     1      17.862  -4.719  -2.771  0.00  0.00    +0.000 HD
ATOM      6  H   UNL     1      16.714  -4.195  -4.005  0.00  0.00    +0.000 HD
BRANCH   4   7
ATOM      7  C   UNL     1      15.790  -4.975  -2.217  0.00  0.00    +0.000 C 
ATOM      8  H   UNL     1      14.955  -4.366  -2.584  0.00  0.00    +0.000 HD
ATOM      9  H   UNL     1      16.149  -4.499  -1.296  0.00  0.00    +0.000 HD
BRANCH   7  10
ATOM     10  C   UNL     1      15.276  -6.378  -1.882  0.00  0.00    +0.000 C 
ATOM     11  H   UNL     1      15.826  -7.116  -2.479  0.00  0.00    +0.000 HD
ATOM     12  H   UNL     1      14.223  -6.451  -2.181  0.00  0.00    +0.000 HD
BRANCH  10  13
ATOM     13  C   UNL     1      15.407  -6.735  -0.400  0.00  0.00    +0.000 C 
ATOM     14  H   UNL     1      14.466  -7.162  -0.036  0.00  0.00    +0.000 HD
ATOM     15  H   UNL     1      16.183  -7.499  -0.270  0.00  0.00    +0.000 HD
BRANCH  13  16
ATOM     16  C   UNL     1      15.765  -5.516   0.434  0.00  0.00    +0.000 C 
ATOM     17  H   UNL     1      16.323  -5.803   1.332  0.00  0.00    +0.000 HD
ATOM     18  H   UNL     1      14.858  -4.993   0.751  0.00  0.00    +0.000 HD
ATOM     19  H   UNL     1      16.378  -4.814  -0.141  0.00  0.00    +0.000 HD
ENDBRANCH  13  16
ENDBRANCH  10  13
ENDBRANCH   7  10
ENDBRANCH   4   7
ENDBRANCH   1   4
BRANCH   1  20
ATOM     20  C   UNL     1      18.319  -6.429  -4.768  0.00  0.00    +0.000 C 
ATOM     21  H   UNL     1      18.302  -7.341  -5.376  0.00  0.00    +0.000 HD
ATOM     22  H   UNL     1      18.375  -5.580  -5.460  0.00  0.00    +0.000 HD
BRANCH  20  23
ATOM     23  C   UNL     1      19.554  -6.441  -3.866  0.00  0.00    +0.000 C 
ATOM     24  H   UNL     1      20.011  -7.438  -3.881  0.00  0.00    +0.000 HD
ATOM     25  H   UNL     1      19.249  -6.249  -2.829  0.00  0.00    +0.000 HD
BRANCH  23  26
ATOM     26  C   UNL     1      20.573  -5.396  -4.307  0.00  0.00    +0.000 C 
ATOM     27  H   UNL     1      20.244  -4.917  -5.235  0.00  0.00    +0.000 HD
ATOM     28  H   UNL     1      21.546  -5.872  -4.470  0.00  0.00    +0.000 HD
BRANCH  26  30
ATOM     29  O   UNL     1      19.962  -3.386  -3.119  0.00  0.00    +0.000 OA
ATOM     30  C   UNL     1      20.730  -4.330  -3.253  0.00  0.00    +0.000 C 
BRANCH  30  31
ATOM     31  O   UNL     1      21.825  -4.595  -2.484  0.00  0.00    +0.000 OA
BRANCH  31  32
ATOM     32  C   UNL     1      22.992  -5.015  -3.198  0.00  0.00    +0.000 C 
ATOM     33  H   UNL     1      23.344  -4.211  -3.853  0.00  0.00    +0.000 HD
ATOM     34  H   UNL     1      22.778  -5.919  -3.777  0.00  0.00    +0.000 HD
ATOM     35  H   UNL     1      23.773  -5.241  -2.469  0.00  0.00    +0.000 HD
ENDBRANCH  31  32
ENDBRANCH  30  31
ENDBRANCH  26  30
ENDBRANCH  23  26
ENDBRANCH  20  23
ENDBRANCH   1  20
TORSDOF 11
ENDMDL
MODEL 5
REMARK VINA RESULT:    -4.353     15.178     16.514
REMARK INTER + INTRA:          -7.669
REMARK INTER:                  -6.575
REMARK INTRA:                  -1.094
REMARK UNBOUND:                -0.772
REMARK  Name = 8050
REMARK  11 active torsions:
REMARK  status: ('A' for Active; 'I' for Inactive)
REMARK    1  A    between atoms: O_1  and  C_12
REMARK    2  A    between atoms: O_1  and  C_13
REMARK    3  A    between atoms: C_3  and  C_4
REMARK    4  A    between atoms: C_3  and  C_5
REMARK    5  A    between atoms: C_4  and  C_6
REMARK    6  A    between atoms: C_5  and  C_7
REMARK    7  A    between atoms: C_6  and  C_8
REMARK    8  A    between atoms: C_7  and  C_9
REMARK    9  A    between atoms: C_8  and  C_10
REMARK   10  A    between atoms: C_9  and  C_11
REMARK   11  A    between atoms: C_10  and  C_12
REMARK                            x       y       z     vdW  Elec       q    Type
REMARK                         _______ _______ _______ _____ _____    ______ ____
ROOT
ATOM      1  C   UNL     1      16.965  -4.215  -1.730  0.00  0.00    +0.000 C 
ATOM      2  H   UNL     1      17.192  -4.712  -0.779  0.00  0.00    +0.000 HD
ATOM      3  H   UNL     1      16.636  -3.196  -1.491  0.00  0.00    +0.000 HD
ENDROOT
BRANCH   1   4
ATOM      4  C   UNL     1      18.229  -4.155  -2.593  0.00  0.00    +0.000 C 
ATOM      5  H   UNL     1      17.957  -4.227  -3.652  0.00  0.00    +0.000 HD
ATOM      6  H   UNL     1      18.727  -3.189  -2.450  0.00  0.00    +0.000 HD
BRANCH   4   7
ATOM      7  C   UNL     1      19.197  -5.285  -2.234  0.00  0.00    +0.000 C 
ATOM      8  H   UNL     1      18.977  -5.642  -1.221  0.00  0.00    +0.000 HD
ATOM      9  H   UNL     1      20.221  -4.890  -2.216  0.00  0.00    +0.000 HD
BRANCH   7  10
ATOM     10  C   UNL     1      19.139  -6.467  -3.205  0.00  0.00    +0.000 C 
ATOM     11  H   UNL     1      18.387  -7.185  -2.855  0.00  0.00    +0.000 HD
ATOM     12  H   UNL     1      20.104  -6.987  -3.188  0.00  0.00    +0.000 HD
BRANCH  10  13
ATOM     13  C   UNL     1      18.810  -6.057  -4.642  0.00  0.00    +0.000 C 
ATOM     14  H   UNL     1      18.619  -4.980  -4.687  0.00  0.00    +0.000 HD
ATOM     15  H   UNL     1      19.668  -6.264  -5.292  0.00  0.00    +0.000 HD
BRANCH  13  16
ATOM     16  C   UNL     1      17.596  -6.808  -5.167  0.00  0.00    +0.000 C 
ATOM     17  H   UNL     1      17.085  -7.344  -4.361  0.00  0.00    +0.000 HD
ATOM     18  H   UNL     1      17.900  -7.539  -5.922  0.00  0.00    +0.000 HD
ATOM     19  H   UNL     1      16.880  -6.120  -5.629  0.00  0.00    +0.000 HD
ENDBRANCH  13  16
ENDBRANCH  10  13
ENDBRANCH   7  10
ENDBRANCH   4   7
ENDBRANCH   1   4
BRANCH   1  20
ATOM     20  C   UNL     1      15.838  -4.961  -2.445  0.00  0.00    +0.000 C 
ATOM     21  H   UNL     1      14.936  -4.338  -2.463  0.00  0.00    +0.000 HD
ATOM     22  H   UNL     1      16.125  -5.143  -3.488  0.00  0.00    +0.000 HD
BRANCH  20  23
ATOM     23  C   UNL     1      15.527  -6.290  -1.757  0.00  0.00    +0.000 C 
ATOM     24  H   UNL     1      16.261  -7.044  -2.062  0.00  0.00    +0.000 HD
ATOM     25  H   UNL     1      14.545  -6.651  -2.090  0.00  0.00    +0.000 HD
BRANCH  23  26
ATOM     26  C   UNL     1      15.534  -6.143  -0.239  0.00  0.00    +0.000 C 
ATOM     27  H   UNL     1      14.507  -6.108   0.141  0.00  0.00    +0.000 HD
ATOM     28  H   UNL     1      16.056  -5.222   0.043  0.00  0.00    +0.000 HD
BRANCH  26  30
ATOM     29  O   UNL     1      15.756  -7.981   1.309  0.00  0.00    +0.000 OA
ATOM     30  C   UNL     1      16.238  -7.310   0.405  0.00  0.00    +0.000 C 
BRANCH  30  31
ATOM     31  O   UNL     1      17.453  -7.502  -0.184  0.00  0.00    +0.000 OA
BRANCH  31  32
ATOM     32  C   UNL     1      18.508  -7.897   0.698  0.00  0.00    +0.000 C 
ATOM     33  H   UNL     1      19.470  -7.862   0.177  0.00  0.00    +0.000 HD
ATOM     34  H   UNL     1      18.318  -8.901   1.091  0.00  0.00    +0.000 HD
ATOM     35  H   UNL     1      18.535  -7.192   1.533  0.00  0.00    +0.000 HD
ENDBRANCH  31  32
ENDBRANCH  30  31
ENDBRANCH  26  30
ENDBRANCH  23  26
ENDBRANCH  20  23
ENDBRANCH   1  20
TORSDOF 11
ENDMDL
MODEL 6
REMARK VINA RESULT:    -4.151     14.746     15.932
REMARK INTER + INTRA:          -7.350
REMARK INTER:                  -6.854
REMARK INTRA:                  -0.495
REMARK UNBOUND:                -0.772
REMARK  Name = 8050
REMARK  11 active torsions:
REMARK  status: ('A' for Active; 'I' for Inactive)
REMARK    1  A    between atoms: O_1  and  C_12
REMARK    2  A    between atoms: O_1  and  C_13
REMARK    3  A    between atoms: C_3  and  C_4
REMARK    4  A    between atoms: C_3  and  C_5
REMARK    5  A    between atoms: C_4  and  C_6
REMARK    6  A    between atoms: C_5  and  C_7
REMARK    7  A    between atoms: C_6  and  C_8
REMARK    8  A    between atoms: C_7  and  C_9
REMARK    9  A    between atoms: C_8  and  C_10
REMARK   10  A    between atoms: C_9  and  C_11
REMARK   11  A    between atoms: C_10  and  C_12
REMARK                            x       y       z     vdW  Elec       q    Type
REMARK                         _______ _______ _______ _____ _____    ______ ____
ROOT
ATOM      1  C   UNL     1       3.449   5.430 -20.507  0.00  0.00    +0.000 C 
ATOM      2  H   UNL     1       3.943   6.073 -21.245  0.00  0.00    +0.000 HD
ATOM      3  H   UNL     1       2.806   4.736 -21.062  0.00  0.00    +0.000 HD
ENDROOT
BRANCH   1   4
ATOM      4  C   UNL     1       4.503   4.638 -19.728  0.00  0.00    +0.000 C 
ATOM      5  H   UNL     1       4.012   3.876 -19.111  0.00  0.00    +0.000 HD
ATOM      6  H   UNL     1       5.161   4.112 -20.430  0.00  0.00    +0.000 HD
BRANCH   4   7
ATOM      7  C   UNL     1       5.340   5.558 -18.837  0.00  0.00    +0.000 C 
ATOM      8  H   UNL     1       4.677   6.260 -18.318  0.00  0.00    +0.000 HD
ATOM      9  H   UNL     1       6.009   6.159 -19.465  0.00  0.00    +0.000 HD
BRANCH   7  10
ATOM     10  C   UNL     1       6.178   4.803 -17.802  0.00  0.00    +0.000 C 
ATOM     11  H   UNL     1       5.771   3.792 -17.676  0.00  0.00    +0.000 HD
ATOM     12  H   UNL     1       6.080   5.306 -16.832  0.00  0.00    +0.000 HD
BRANCH  10  13
ATOM     13  C   UNL     1       7.659   4.705 -18.173  0.00  0.00    +0.000 C 
ATOM     14  H   UNL     1       7.900   5.448 -18.941  0.00  0.00    +0.000 HD
ATOM     15  H   UNL     1       8.277   4.929 -17.296  0.00  0.00    +0.000 HD
BRANCH  13  16
ATOM     16  C   UNL     1       8.010   3.317 -18.686  0.00  0.00    +0.000 C 
ATOM     17  H   UNL     1       9.017   3.299 -19.115  0.00  0.00    +0.000 HD
ATOM     18  H   UNL     1       7.304   3.011 -19.465  0.00  0.00    +0.000 HD
ATOM     19  H   UNL     1       7.967   2.578 -17.879  0.00  0.00    +0.000 HD
ENDBRANCH  13  16
ENDBRANCH  10  13
ENDBRANCH   7  10
ENDBRANCH   4   7
ENDBRANCH   1   4
BRANCH   1  20
ATOM     20  C   UNL     1       2.592   6.284 -19.571  0.00  0.00    +0.000 C 
ATOM     21  H   UNL     1       3.015   6.263 -18.560  0.00  0.00    +0.000 HD
ATOM     22  H   UNL     1       2.611   7.327 -19.908  0.00  0.00    +0.000 HD
BRANCH  20  23
ATOM     23  C   UNL     1       1.147   5.783 -19.529  0.00  0.00    +0.000 C 
ATOM     24  H   UNL     1       0.461   6.638 -19.538  0.00  0.00    +0.000 HD
ATOM     25  H   UNL     1       0.975   5.249 -18.585  0.00  0.00    +0.000 HD
BRANCH  23  26
ATOM     26  C   UNL     1       0.845   4.861 -20.705  0.00  0.00    +0.000 C 
ATOM     27  H   UNL     1       1.772   4.599 -21.227  0.00  0.00    +0.000 HD
ATOM     28  H   UNL     1       0.166   5.362 -21.404  0.00  0.00    +0.000 HD
BRANCH  26  30
ATOM     29  O   UNL     1       0.278   3.167 -19.084  0.00  0.00    +0.000 OA
ATOM     30  C   UNL     1       0.193   3.588 -20.230  0.00  0.00    +0.000 C 
BRANCH  30  31
ATOM     31  O   UNL     1      -0.504   3.014 -21.252  0.00  0.00    +0.000 OA
BRANCH  31  32
ATOM     32  C   UNL     1      -0.714   3.846 -22.397  0.00  0.00    +0.000 C 
ATOM     33  H   UNL     1      -0.226   4.816 -22.255  0.00  0.00    +0.000 HD
ATOM     34  H   UNL     1      -1.785   3.975 -22.581  0.00  0.00    +0.000 HD
ATOM     35  H   UNL     1      -0.266   3.352 -23.263  0.00  0.00    +0.000 HD
ENDBRANCH  31  32
ENDBRANCH  30  31
ENDBRANCH  26  30
ENDBRANCH  23  26
ENDBRANCH  20  23
ENDBRANCH   1  20
TORSDOF 11
ENDMDL
MODEL 7
REMARK VINA RESULT:    -4.146     15.029     16.484
REMARK INTER + INTRA:          -7.342
REMARK INTER:                  -6.181
REMARK INTRA:                  -1.160
REMARK UNBOUND:                -0.772
REMARK  Name = 8050
REMARK  11 active torsions:
REMARK  status: ('A' for Active; 'I' for Inactive)
REMARK    1  A    between atoms: O_1  and  C_12
REMARK    2  A    between atoms: O_1  and  C_13
REMARK    3  A    between atoms: C_3  and  C_4
REMARK    4  A    between atoms: C_3  and  C_5
REMARK    5  A    between atoms: C_4  and  C_6
REMARK    6  A    between atoms: C_5  and  C_7
REMARK    7  A    between atoms: C_6  and  C_8
REMARK    8  A    between atoms: C_7  and  C_9
REMARK    9  A    between atoms: C_8  and  C_10
REMARK   10  A    between atoms: C_9  and  C_11
REMARK   11  A    between atoms: C_10  and  C_12
REMARK                            x       y       z     vdW  Elec       q    Type
REMARK                         _______ _______ _______ _____ _____    ______ ____
ROOT
ATOM      1  C   UNL     1       4.369   4.087 -20.765  0.00  0.00    +0.000 C 
ATOM      2  H   UNL     1       3.860   4.523 -21.633  0.00  0.00    +0.000 HD
ATOM      3  H   UNL     1       5.382   3.815 -21.087  0.00  0.00    +0.000 HD
ENDROOT
BRANCH   1   4
ATOM      4  C   UNL     1       4.452   5.126 -19.643  0.00  0.00    +0.000 C 
ATOM      5  H   UNL     1       4.100   4.685 -18.703  0.00  0.00    +0.000 HD
ATOM      6  H   UNL     1       5.497   5.422 -19.492  0.00  0.00    +0.000 HD
BRANCH   4   7
ATOM      7  C   UNL     1       3.615   6.364 -19.973  0.00  0.00    +0.000 C 
ATOM      8  H   UNL     1       3.460   6.417 -21.057  0.00  0.00    +0.000 HD
ATOM      9  H   UNL     1       4.173   7.264 -19.688  0.00  0.00    +0.000 HD
BRANCH   7  10
ATOM     10  C   UNL     1       2.254   6.383 -19.271  0.00  0.00    +0.000 C 
ATOM     11  H   UNL     1       2.211   7.241 -18.590  0.00  0.00    +0.000 HD
ATOM     12  H   UNL     1       2.163   5.482 -18.652  0.00  0.00    +0.000 HD
BRANCH  10  13
ATOM     13  C   UNL     1       1.072   6.453 -20.240  0.00  0.00    +0.000 C 
ATOM     14  H   UNL     1       0.413   5.591 -20.085  0.00  0.00    +0.000 HD
ATOM     15  H   UNL     1       0.481   7.354 -20.039  0.00  0.00    +0.000 HD
BRANCH  13  16
ATOM     16  C   UNL     1       1.541   6.477 -21.686  0.00  0.00    +0.000 C 
ATOM     17  H   UNL     1       1.069   5.678 -22.267  0.00  0.00    +0.000 HD
ATOM     18  H   UNL     1       2.625   6.336 -21.735  0.00  0.00    +0.000 HD
ATOM     19  H   UNL     1       1.301   7.434 -22.160  0.00  0.00    +0.000 HD
ENDBRANCH  13  16
ENDBRANCH  10  13
ENDBRANCH   7  10
ENDBRANCH   4   7
ENDBRANCH   1   4
BRANCH   1  20
ATOM     20  C   UNL     1       3.625   2.832 -20.306  0.00  0.00    +0.000 C 
ATOM     21  H   UNL     1       4.265   1.953 -20.442  0.00  0.00    +0.000 HD
ATOM     22  H   UNL     1       3.404   2.909 -19.235  0.00  0.00    +0.000 HD
BRANCH  20  23
ATOM     23  C   UNL     1       2.324   2.641 -21.088  0.00  0.00    +0.000 C 
ATOM     24  H   UNL     1       2.338   1.668 -21.593  0.00  0.00    +0.000 HD
ATOM     25  H   UNL     1       2.257   3.404 -21.874  0.00  0.00    +0.000 HD
BRANCH  23  26
ATOM     26  C   UNL     1       1.108   2.734 -20.172  0.00  0.00    +0.000 C 
ATOM     27  H   UNL     1       1.225   3.571 -19.474  0.00  0.00    +0.000 HD
ATOM     28  H   UNL     1       0.997   1.803 -19.606  0.00  0.00    +0.000 HD
BRANCH  26  30
ATOM     29  O   UNL     1      -1.277   2.874 -20.513  0.00  0.00    +0.000 OA
ATOM     30  C   UNL     1      -0.147   2.959 -20.976  0.00  0.00    +0.000 C 
BRANCH  30  31
ATOM     31  O   UNL     1       0.177   3.285 -22.261  0.00  0.00    +0.000 OA
BRANCH  31  32
ATOM     32  C   UNL     1      -0.806   2.953 -23.246  0.00  0.00    +0.000 C 
ATOM     33  H   UNL     1      -0.342   2.413 -24.077  0.00  0.00    +0.000 HD
ATOM     34  H   UNL     1      -1.305   3.859 -23.604  0.00  0.00    +0.000 HD
ATOM     35  H   UNL     1      -1.550   2.304 -22.777  0.00  0.00    +0.000 HD
ENDBRANCH  31  32
ENDBRANCH  30  31
ENDBRANCH  26  30
ENDBRANCH  23  26
ENDBRANCH  20  23
ENDBRANCH   1  20
TORSDOF 11
ENDMDL
MODEL 8
REMARK VINA RESULT:    -4.129     15.171     16.129
REMARK INTER + INTRA:          -7.314
REMARK INTER:                  -6.662
REMARK INTRA:                  -0.652
REMARK UNBOUND:                -0.772
REMARK  Name = 8050
REMARK  11 active torsions:
REMARK  status: ('A' for Active; 'I' for Inactive)
REMARK    1  A    between atoms: O_1  and  C_12
REMARK    2  A    between atoms: O_1  and  C_13
REMARK    3  A    between atoms: C_3  and  C_4
REMARK    4  A    between atoms: C_3  and  C_5
REMARK    5  A    between atoms: C_4  and  C_6
REMARK    6  A    between atoms: C_5  and  C_7
REMARK    7  A    between atoms: C_6  and  C_8
REMARK    8  A    between atoms: C_7  and  C_9
REMARK    9  A    between atoms: C_8  and  C_10
REMARK   10  A    between atoms: C_9  and  C_11
REMARK   11  A    between atoms: C_10  and  C_12
REMARK                            x       y       z     vdW  Elec       q    Type
REMARK                         _______ _______ _______ _____ _____    ______ ____
ROOT
ATOM      1  C   UNL     1      16.188  -4.901  -2.767  0.00  0.00    +0.000 C 
ATOM      2  H   UNL     1      17.007  -4.179  -2.872  0.00  0.00    +0.000 HD
ATOM      3  H   UNL     1      15.336  -4.508  -3.334  0.00  0.00    +0.000 HD
ENDROOT
BRANCH   1   4
ATOM      4  C   UNL     1      16.615  -6.249  -3.354  0.00  0.00    +0.000 C 
ATOM      5  H   UNL     1      16.970  -6.907  -2.552  0.00  0.00    +0.000 HD
ATOM      6  H   UNL     1      15.750  -6.739  -3.818  0.00  0.00    +0.000 HD
BRANCH   4   7
ATOM      7  C   UNL     1      17.720  -6.073  -4.399  0.00  0.00    +0.000 C 
ATOM      8  H   UNL     1      17.662  -5.061  -4.819  0.00  0.00    +0.000 HD
ATOM      9  H   UNL     1      17.549  -6.771  -5.227  0.00  0.00    +0.000 HD
BRANCH   7  10
ATOM     10  C   UNL     1      19.127  -6.303  -3.840  0.00  0.00    +0.000 C 
ATOM     11  H   UNL     1      19.506  -7.266  -4.204  0.00  0.00    +0.000 HD
ATOM     12  H   UNL     1      19.066  -6.380  -2.747  0.00  0.00    +0.000 HD
BRANCH  10  13
ATOM     13  C   UNL     1      20.118  -5.200  -4.215  0.00  0.00    +0.000 C 
ATOM     14  H   UNL     1      21.124  -5.476  -3.883  0.00  0.00    +0.000 HD
ATOM     15  H   UNL     1      20.153  -5.088  -5.305  0.00  0.00    +0.000 HD
BRANCH  13  16
ATOM     16  C   UNL     1      19.727  -3.869  -3.592  0.00  0.00    +0.000 C 
ATOM     17  H   UNL     1      19.856  -3.047  -4.304  0.00  0.00    +0.000 HD
ATOM     18  H   UNL     1      20.352  -3.662  -2.718  0.00  0.00    +0.000 HD
ATOM     19  H   UNL     1      18.682  -3.880  -3.267  0.00  0.00    +0.000 HD
ENDBRANCH  13  16
ENDBRANCH  10  13
ENDBRANCH   7  10
ENDBRANCH   4   7
ENDBRANCH   1   4
BRANCH   1  20
ATOM     20  C   UNL     1      15.803  -5.034  -1.293  0.00  0.00    +0.000 C 
ATOM     21  H   UNL     1      16.639  -4.711  -0.662  0.00  0.00    +0.000 HD
ATOM     22  H   UNL     1      14.958  -4.370  -1.075  0.00  0.00    +0.000 HD
BRANCH  20  23
ATOM     23  C   UNL     1      15.429  -6.475  -0.944  0.00  0.00    +0.000 C 
ATOM     24  H   UNL     1      15.666  -7.132  -1.789  0.00  0.00    +0.000 HD
ATOM     25  H   UNL     1      14.344  -6.541  -0.787  0.00  0.00    +0.000 HD
BRANCH  23  26
ATOM     26  C   UNL     1      16.161  -6.952   0.305  0.00  0.00    +0.000 C 
ATOM     27  H   UNL     1      16.944  -6.236   0.579  0.00  0.00    +0.000 HD
ATOM     28  H   UNL     1      16.616  -7.931   0.119  0.00  0.00    +0.000 HD
BRANCH  26  30
ATOM     29  O   UNL     1      14.647  -8.122   1.775  0.00  0.00    +0.000 OA
ATOM     30  C   UNL     1      15.208  -7.079   1.465  0.00  0.00    +0.000 C 
BRANCH  30  31
ATOM     31  O   UNL     1      15.094  -5.880   2.106  0.00  0.00    +0.000 OA
BRANCH  31  32
ATOM     32  C   UNL     1      16.329  -5.266   2.487  0.00  0.00    +0.000 C 
ATOM     33  H   UNL     1      17.173  -5.886   2.171  0.00  0.00    +0.000 HD
ATOM     34  H   UNL     1      16.353  -5.102   3.569  0.00  0.00    +0.000 HD
ATOM     35  H   UNL     1      16.396  -4.298   1.983  0.00  0.00    +0.000 HD
ENDBRANCH  31  32
ENDBRANCH  30  31
ENDBRANCH  26  30
ENDBRANCH  23  26
ENDBRANCH  20  23
ENDBRANCH   1  20
TORSDOF 11
ENDMDL
MODEL 9
REMARK VINA RESULT:    -4.121     15.101     16.389
REMARK INTER + INTRA:          -7.301
REMARK INTER:                  -6.876
REMARK INTRA:                  -0.425
REMARK UNBOUND:                -0.772
REMARK  Name = 8050
REMARK  11 active torsions:
REMARK  status: ('A' for Active; 'I' for Inactive)
REMARK    1  A    between atoms: O_1  and  C_12
REMARK    2  A    between atoms: O_1  and  C_13
REMARK    3  A    between atoms: C_3  and  C_4
REMARK    4  A    between atoms: C_3  and  C_5
REMARK    5  A    between atoms: C_4  and  C_6
REMARK    6  A    between atoms: C_5  and  C_7
REMARK    7  A    between atoms: C_6  and  C_8
REMARK    8  A    between atoms: C_7  and  C_9
REMARK    9  A    between atoms: C_8  and  C_10
REMARK   10  A    between atoms: C_9  and  C_11
REMARK   11  A    between atoms: C_10  and  C_12
REMARK                            x       y       z     vdW  Elec       q    Type
REMARK                         _______ _______ _______ _____ _____    ______ ____
ROOT
ATOM      1  C   UNL     1       1.960   6.263 -19.824  0.00  0.00    +0.000 C 
ATOM      2  H   UNL     1       1.757   7.017 -19.053  0.00  0.00    +0.000 HD
ATOM      3  H   UNL     1       1.735   6.724 -20.794  0.00  0.00    +0.000 HD
ENDROOT
BRANCH   1   4
ATOM      4  C   UNL     1       3.437   5.865 -19.778  0.00  0.00    +0.000 C 
ATOM      5  H   UNL     1       3.527   4.797 -19.549  0.00  0.00    +0.000 HD
ATOM      6  H   UNL     1       3.893   6.025 -20.762  0.00  0.00    +0.000 HD
BRANCH   4   7
ATOM      7  C   UNL     1       4.197   6.679 -18.728  0.00  0.00    +0.000 C 
ATOM      8  H   UNL     1       3.498   7.004 -17.947  0.00  0.00    +0.000 HD
ATOM      9  H   UNL     1       4.596   7.588 -19.194  0.00  0.00    +0.000 HD
BRANCH   7  10
ATOM     10  C   UNL     1       5.350   5.909 -18.078  0.00  0.00    +0.000 C 
ATOM     11  H   UNL     1       5.076   5.652 -17.047  0.00  0.00    +0.000 HD
ATOM     12  H   UNL     1       6.226   6.566 -18.018  0.00  0.00    +0.000 HD
BRANCH  10  13
ATOM     13  C   UNL     1       5.726   4.631 -18.829  0.00  0.00    +0.000 C 
ATOM     14  H   UNL     1       4.850   3.979 -18.916  0.00  0.00    +0.000 HD
ATOM     15  H   UNL     1       6.049   4.880 -19.847  0.00  0.00    +0.000 HD
BRANCH  13  16
ATOM     16  C   UNL     1       6.845   3.881 -18.122  0.00  0.00    +0.000 C 
ATOM     17  H   UNL     1       7.763   4.477 -18.097  0.00  0.00    +0.000 HD
ATOM     18  H   UNL     1       7.062   2.945 -18.644  0.00  0.00    +0.000 HD
ATOM     19  H   UNL     1       6.564   3.639 -17.092  0.00  0.00    +0.000 HD
ENDBRANCH  13  16
ENDBRANCH  10  13
ENDBRANCH   7  10
ENDBRANCH   4   7
ENDBRANCH   1   4
BRANCH   1  20
ATOM     20  C   UNL     1       1.051   5.051 -19.612  0.00  0.00    +0.000 C 
ATOM     21  H   UNL     1       1.050   4.772 -18.552  0.00  0.00    +0.000 HD
ATOM     22  H   UNL     1       0.020   5.317 -19.877  0.00  0.00    +0.000 HD
BRANCH  20  23
ATOM     23  C   UNL     1       1.509   3.859 -20.452  0.00  0.00    +0.000 C 
ATOM     24  H   UNL     1       1.217   2.925 -19.957  0.00  0.00    +0.000 HD
ATOM     25  H   UNL     1       2.605   3.855 -20.512  0.00  0.00    +0.000 HD
BRANCH  23  26
ATOM     26  C   UNL     1       0.917   3.910 -21.856  0.00  0.00    +0.000 C 
ATOM     27  H   UNL     1       1.447   4.652 -22.463  0.00  0.00    +0.000 HD
ATOM     28  H   UNL     1      -0.145   4.178 -21.802  0.00  0.00    +0.000 HD
BRANCH  26  30
ATOM     29  O   UNL     1       2.095   1.962 -22.657  0.00  0.00    +0.000 OA
ATOM     30  C   UNL     1       1.039   2.569 -22.534  0.00  0.00    +0.000 C 
BRANCH  30  31
ATOM     31  O   UNL     1      -0.188   2.149 -22.956  0.00  0.00    +0.000 OA
BRANCH  31  32
ATOM     32  C   UNL     1      -1.206   2.115 -21.951  0.00  0.00    +0.000 C 
ATOM     33  H   UNL     1      -0.759   2.208 -20.957  0.00  0.00    +0.000 HD
ATOM     34  H   UNL     1      -1.786   1.190 -22.030  0.00  0.00    +0.000 HD
ATOM     35  H   UNL     1      -1.874   2.964 -22.116  0.00  0.00    +0.000 HD
ENDBRANCH  31  32
ENDBRANCH  30  31
ENDBRANCH  26  30
ENDBRANCH  23  26
ENDBRANCH  20  23
ENDBRANCH   1  20
TORSDOF 11
ENDMDL
MODEL 10
REMARK VINA RESULT:    -4.015     17.669     18.683
REMARK INTER + INTRA:          -7.134
REMARK INTER:                  -6.362
REMARK INTRA:                  -0.772
REMARK UNBOUND:                -0.772
REMARK  Name = 8050
REMARK  11 active torsions:
REMARK  status: ('A' for Active; 'I' for Inactive)
REMARK    1  A    between atoms: O_1  and  C_12
REMARK    2  A    between atoms: O_1  and  C_13
REMARK    3  A    between atoms: C_3  and  C_4
REMARK    4  A    between atoms: C_3  and  C_5
REMARK    5  A    between atoms: C_4  and  C_6
REMARK    6  A    between atoms: C_5  and  C_7
REMARK    7  A    between atoms: C_6  and  C_8
REMARK    8  A    between atoms: C_7  and  C_9
REMARK    9  A    between atoms: C_8  and  C_10
REMARK   10  A    between atoms: C_9  and  C_11
REMARK   11  A    between atoms: C_10  and  C_12
REMARK                            x       y       z     vdW  Elec       q    Type
REMARK                         _______ _______ _______ _____ _____    ______ ____
ROOT
ATOM      1  C   UNL     1      15.798   3.802  -0.508  0.00  0.00    +0.000 C 
ATOM      2  H   UNL     1      15.094   3.311  -1.192  0.00  0.00    +0.000 HD
ATOM      3  H   UNL     1      16.746   3.254  -0.573  0.00  0.00    +0.000 HD
ENDROOT
BRANCH   1   4
ATOM      4  C   UNL     1      16.014   5.252  -0.948  0.00  0.00    +0.000 C 
ATOM      5  H   UNL     1      15.682   5.933  -0.156  0.00  0.00    +0.000 HD
ATOM      6  H   UNL     1      17.084   5.434  -1.104  0.00  0.00    +0.000 HD
BRANCH   4   7
ATOM      7  C   UNL     1      15.252   5.558  -2.240  0.00  0.00    +0.000 C 
ATOM      8  H   UNL     1      14.190   5.324  -2.097  0.00  0.00    +0.000 HD
ATOM      9  H   UNL     1      15.618   4.901  -3.039  0.00  0.00    +0.000 HD
BRANCH   7  10
ATOM     10  C   UNL     1      15.387   7.014  -2.695  0.00  0.00    +0.000 C 
ATOM     11  H   UNL     1      14.448   7.543  -2.494  0.00  0.00    +0.000 HD
ATOM     12  H   UNL     1      15.535   7.033  -3.782  0.00  0.00    +0.000 HD
BRANCH  10  13
ATOM     13  C   UNL     1      16.537   7.759  -2.014  0.00  0.00    +0.000 C 
ATOM     14  H   UNL     1      16.200   8.752  -1.698  0.00  0.00    +0.000 HD
ATOM     15  H   UNL     1      16.848   7.218  -1.113  0.00  0.00    +0.000 HD
BRANCH  13  16
ATOM     16  C   UNL     1      17.731   7.904  -2.945  0.00  0.00    +0.000 C 
ATOM     17  H   UNL     1      18.219   8.875  -2.811  0.00  0.00    +0.000 HD
ATOM     18  H   UNL     1      17.410   7.825  -3.988  0.00  0.00    +0.000 HD
ATOM     19  H   UNL     1      18.471   7.119  -2.757  0.00  0.00    +0.000 HD
ENDBRANCH  13  16
ENDBRANCH  10  13
ENDBRANCH   7  10
ENDBRANCH   4   7
ENDBRANCH   1   4
BRANCH   1  20
ATOM     20  C   UNL     1      15.262   3.729   0.923  0.00  0.00    +0.000 C 
ATOM     21  H   UNL     1      15.970   3.179   1.554  0.00  0.00    +0.000 HD
ATOM     22  H   UNL     1      15.182   4.742   1.335  0.00  0.00    +0.000 HD
BRANCH  20  23
ATOM     23  C   UNL     1      13.897   3.043   0.971  0.00  0.00    +0.000 C 
ATOM     24  H   UNL     1      13.682   2.721   1.997  0.00  0.00    +0.000 HD
ATOM     25  H   UNL     1      13.923   2.135   0.354  0.00  0.00    +0.000 HD
BRANCH  23  26
ATOM     26  C   UNL     1      12.792   3.971   0.476  0.00  0.00    +0.000 C 
ATOM     27  H   UNL     1      11.813   3.504   0.626  0.00  0.00    +0.000 HD
ATOM     28  H   UNL     1      12.934   4.181  -0.590  0.00  0.00    +0.000 HD
BRANCH  26  30
ATOM     29  O   UNL     1      12.732   5.360   2.449  0.00  0.00    +0.000 OA
ATOM     30  C   UNL     1      12.816   5.275   1.230  0.00  0.00    +0.000 C 
BRANCH  30  31
ATOM     31  O   UNL     1      12.964   6.314   0.358  0.00  0.00    +0.000 OA
BRANCH  31  32
ATOM     32  C   UNL     1      13.580   7.487   0.897  0.00  0.00    +0.000 C 
ATOM     33  H   UNL     1      14.669   7.375   0.903  0.00  0.00    +0.000 HD
ATOM     34  H   UNL     1      13.206   7.682   1.907  0.00  0.00    +0.000 HD
ATOM     35  H   UNL     1      13.319   8.333   0.256  0.00  0.00    +0.000 HD
ENDBRANCH  31  32
ENDBRANCH  30  31
ENDBRANCH  26  30
ENDBRANCH  23  26
ENDBRANCH  20  23
ENDBRANCH   1  20
TORSDOF 11
ENDMDL
