MODEL 1
REMARK VINA RESULT:    -4.322      0.000      0.000
REMARK INTER + INTRA:          -7.168
REMARK INTER:                  -6.687
REMARK INTRA:                  -0.481
REMARK UNBOUND:                -0.572
REMARK  Name = 15606
REMARK  10 active torsions:
REMARK  status: ('A' for Active; 'I' for Inactive)
REMARK    1  A    between atoms: O_1  and  C_11
REMARK    2  A    between atoms: O_1  and  C_12
REMARK    3  A    between atoms: C_3  and  C_4
REMARK    4  A    between atoms: C_3  and  C_5
REMARK    5  A    between atoms: C_4  and  C_6
REMARK    6  A    between atoms: C_5  and  C_7
REMARK    7  A    between atoms: C_6  and  C_8
REMARK    8  A    between atoms: C_7  and  C_9
REMARK    9  A    between atoms: C_8  and  C_10
REMARK   10  A    between atoms: C_9  and  C_11
REMARK                            x       y       z     vdW  Elec       q    Type
REMARK                         _______ _______ _______ _____ _____    ______ ____
ROOT
ATOM      1  C   UNL     1      16.870  -4.971  -3.211  0.00  0.00    +0.000 C 
ATOM      2  H   UNL     1      17.828  -4.700  -2.751  0.00  0.00    +0.000 HD
ATOM      3  H   UNL     1      16.627  -4.177  -3.928  0.00  0.00    +0.000 HD
ENDROOT
BRANCH   1   4
ATOM      4  C   UNL     1      15.789  -5.010  -2.127  0.00  0.00    +0.000 C 
ATOM      5  H   UNL     1      16.195  -4.590  -1.198  0.00  0.00    +0.000 HD
ATOM      6  H   UNL     1      14.960  -4.359  -2.431  0.00  0.00    +0.000 HD
BRANCH   4   7
ATOM      7  C   UNL     1      15.253  -6.416  -1.850  0.00  0.00    +0.000 C 
ATOM      8  H   UNL     1      15.785  -7.142  -2.478  0.00  0.00    +0.000 HD
ATOM      9  H   UNL     1      14.194  -6.463  -2.127  0.00  0.00    +0.000 HD
BRANCH   7  10
ATOM     10  C   UNL     1      15.413  -6.789  -0.375  0.00  0.00    +0.000 C 
ATOM     11  H   UNL     1      16.206  -7.538  -0.263  0.00  0.00    +0.000 HD
ATOM     12  H   UNL     1      14.486  -7.239  -0.003  0.00  0.00    +0.000 HD
BRANCH  10  13
ATOM     13  C   UNL     1      15.756  -5.574   0.472  0.00  0.00    +0.000 C 
ATOM     14  H   UNL     1      15.339  -4.661   0.034  0.00  0.00    +0.000 HD
ATOM     15  H   UNL     1      16.841  -5.449   0.559  0.00  0.00    +0.000 HD
ATOM     16  H   UNL     1      15.346  -5.686   1.480  0.00  0.00    +0.000 HD
ENDBRANCH  10  13
ENDBRANCH   7  10
ENDBRANCH   4   7
ENDBRANCH   1   4
BRANCH   1  17
ATOM     17  C   UNL     1      17.027  -6.296  -3.961  0.00  0.00    +0.000 C 
ATOM     18  H   UNL     1      16.942  -7.132  -3.256  0.00  0.00    +0.000 HD
ATOM     19  H   UNL     1      16.214  -6.402  -4.690  0.00  0.00    +0.000 HD
BRANCH  17  20
ATOM     20  C   UNL     1      18.377  -6.366  -4.683  0.00  0.00    +0.000 C 
ATOM     21  H   UNL     1      18.391  -5.634  -5.500  0.00  0.00    +0.000 HD
ATOM     22  H   UNL     1      18.491  -7.354  -5.148  0.00  0.00    +0.000 HD
BRANCH  20  23
ATOM     23  C   UNL     1      19.554  -6.109  -3.745  0.00  0.00    +0.000 C 
ATOM     24  H   UNL     1      19.184  -5.923  -2.731  0.00  0.00    +0.000 HD
ATOM     25  H   UNL     1      20.207  -6.987  -3.730  0.00  0.00    +0.000 HD
BRANCH  23  27
ATOM     26  O   UNL     1      20.116  -3.764  -3.855  0.00  0.00    +0.000 OA
ATOM     27  C   UNL     1      20.379  -4.918  -4.168  0.00  0.00    +0.000 C 
BRANCH  27  28
ATOM     28  O   UNL     1      21.431  -5.327  -4.934  0.00  0.00    +0.000 OA
BRANCH  28  29
ATOM     29  C   UNL     1      22.263  -6.333  -4.349  0.00  0.00    +0.000 C 
ATOM     30  H   UNL     1      21.747  -7.298  -4.349  0.00  0.00    +0.000 HD
ATOM     31  H   UNL     1      22.470  -6.046  -3.315  0.00  0.00    +0.000 HD
ATOM     32  H   UNL     1      23.212  -6.402  -4.890  0.00  0.00    +0.000 HD
ENDBRANCH  28  29
ENDBRANCH  27  28
ENDBRANCH  23  27
ENDBRANCH  20  23
ENDBRANCH  17  20
ENDBRANCH   1  17
TORSDOF 10
ENDMDL
MODEL 2
REMARK VINA RESULT:    -4.265      2.834      5.490
REMARK INTER + INTRA:          -7.080
REMARK INTER:                  -6.440
REMARK INTRA:                  -0.641
REMARK UNBOUND:                -0.572
REMARK  Name = 15606
REMARK  10 active torsions:
REMARK  status: ('A' for Active; 'I' for Inactive)
REMARK    1  A    between atoms: O_1  and  C_11
REMARK    2  A    between atoms: O_1  and  C_12
REMARK    3  A    between atoms: C_3  and  C_4
REMARK    4  A    between atoms: C_3  and  C_5
REMARK    5  A    between atoms: C_4  and  C_6
REMARK    6  A    between atoms: C_5  and  C_7
REMARK    7  A    between atoms: C_6  and  C_8
REMARK    8  A    between atoms: C_7  and  C_9
REMARK    9  A    between atoms: C_8  and  C_10
REMARK   10  A    between atoms: C_9  and  C_11
REMARK                            x       y       z     vdW  Elec       q    Type
REMARK                         _______ _______ _______ _____ _____    ______ ____
ROOT
ATOM      1  C   UNL     1      15.821  -4.975  -2.349  0.00  0.00    +0.000 C 
ATOM      2  H   UNL     1      14.994  -4.367  -2.734  0.00  0.00    +0.000 HD
ATOM      3  H   UNL     1      16.141  -4.514  -1.407  0.00  0.00    +0.000 HD
ENDROOT
BRANCH   1   4
ATOM      4  C   UNL     1      16.983  -4.926  -3.345  0.00  0.00    +0.000 C 
ATOM      5  H   UNL     1      16.596  -5.090  -4.359  0.00  0.00    +0.000 HD
ATOM      6  H   UNL     1      17.416  -3.918  -3.333  0.00  0.00    +0.000 HD
BRANCH   4   7
ATOM      7  C   UNL     1      18.080  -5.953  -3.054  0.00  0.00    +0.000 C 
ATOM      8  H   UNL     1      17.679  -6.746  -2.411  0.00  0.00    +0.000 HD
ATOM      9  H   UNL     1      18.894  -5.468  -2.501  0.00  0.00    +0.000 HD
BRANCH   7  10
ATOM     10  C   UNL     1      18.629  -6.558  -4.347  0.00  0.00    +0.000 C 
ATOM     11  H   UNL     1      19.134  -7.507  -4.130  0.00  0.00    +0.000 HD
ATOM     12  H   UNL     1      19.375  -5.886  -4.785  0.00  0.00    +0.000 HD
BRANCH  10  13
ATOM     13  C   UNL     1      17.521  -6.807  -5.358  0.00  0.00    +0.000 C 
ATOM     14  H   UNL     1      17.335  -5.913  -5.963  0.00  0.00    +0.000 HD
ATOM     15  H   UNL     1      16.588  -7.086  -4.859  0.00  0.00    +0.000 HD
ATOM     16  H   UNL     1      17.800  -7.622  -6.033  0.00  0.00    +0.000 HD
ENDBRANCH  10  13
ENDBRANCH   7  10
ENDBRANCH   4   7
ENDBRANCH   1   4
BRANCH   1  17
ATOM     17  C   UNL     1      15.319  -6.394  -2.072  0.00  0.00    +0.000 C 
ATOM     18  H   UNL     1      14.276  -6.487  -2.397  0.00  0.00    +0.000 HD
ATOM     19  H   UNL     1      15.907  -7.112  -2.656  0.00  0.00    +0.000 HD
BRANCH  17  20
ATOM     20  C   UNL     1      15.426  -6.736  -0.582  0.00  0.00    +0.000 C 
ATOM     21  H   UNL     1      16.193  -7.509  -0.440  0.00  0.00    +0.000 HD
ATOM     22  H   UNL     1      14.479  -7.171  -0.238  0.00  0.00    +0.000 HD
BRANCH  20  23
ATOM     23  C   UNL     1      15.765  -5.518   0.274  0.00  0.00    +0.000 C 
ATOM     24  H   UNL     1      15.834  -4.628  -0.362  0.00  0.00    +0.000 HD
ATOM     25  H   UNL     1      14.975  -5.363   1.017  0.00  0.00    +0.000 HD
BRANCH  23  27
ATOM     26  O   UNL     1      18.167  -5.664   0.456  0.00  0.00    +0.000 OA
ATOM     27  C   UNL     1      17.074  -5.673   1.008  0.00  0.00    +0.000 C 
BRANCH  27  28
ATOM     28  O   UNL     1      16.846  -5.822   2.344  0.00  0.00    +0.000 OA
BRANCH  28  29
ATOM     29  C   UNL     1      17.561  -4.920   3.194  0.00  0.00    +0.000 C 
ATOM     30  H   UNL     1      17.067  -3.945   3.213  0.00  0.00    +0.000 HD
ATOM     31  H   UNL     1      18.569  -4.797   2.790  0.00  0.00    +0.000 HD
ATOM     32  H   UNL     1      17.638  -5.333   4.206  0.00  0.00    +0.000 HD
ENDBRANCH  28  29
ENDBRANCH  27  28
ENDBRANCH  23  27
ENDBRANCH  20  23
ENDBRANCH  17  20
ENDBRANCH   1  17
TORSDOF 10
ENDMDL
MODEL 3
REMARK VINA RESULT:    -4.235     23.848     25.094
REMARK INTER + INTRA:          -7.035
REMARK INTER:                  -6.594
REMARK INTRA:                  -0.441
REMARK UNBOUND:                -0.572
REMARK  Name = 15606
REMARK  10 active torsions:
REMARK  status: ('A' for Active; 'I' for Inactive)
REMARK    1  A    between atoms: O_1  and  C_11
REMARK    2  A    between atoms: O_1  and  C_12
REMARK    3  A    between atoms: C_3  and  C_4
REMARK    4  A    between atoms: C_3  and  C_5
REMARK    5  A    between atoms: C_4  and  C_6
REMARK    6  A    between atoms: C_5  and  C_7
REMARK    7  A    between atoms: C_6  and  C_8
REMARK    8  A    between atoms: C_7  and  C_9
REMARK    9  A    between atoms: C_8  and  C_10
REMARK   10  A    between atoms: C_9  and  C_11
REMARK                            x       y       z     vdW  Elec       q    Type
REMARK                         _______ _______ _______ _____ _____    ______ ____
ROOT
ATOM      1  C   UNL     1       3.871   4.175 -20.108  0.00  0.00    +0.000 C 
ATOM      2  H   UNL     1       3.360   4.753 -20.886  0.00  0.00    +0.000 HD
ATOM      3  H   UNL     1       3.355   4.390 -19.163  0.00  0.00    +0.000 HD
ENDROOT
BRANCH   1   4
ATOM      4  C   UNL     1       5.322   4.654 -20.002  0.00  0.00    +0.000 C 
ATOM      5  H   UNL     1       5.993   3.788 -20.073  0.00  0.00    +0.000 HD
ATOM      6  H   UNL     1       5.545   5.297 -20.861  0.00  0.00    +0.000 HD
BRANCH   4   7
ATOM      7  C   UNL     1       5.619   5.415 -18.708  0.00  0.00    +0.000 C 
ATOM      8  H   UNL     1       4.678   5.741 -18.249  0.00  0.00    +0.000 HD
ATOM      9  H   UNL     1       6.195   6.318 -18.942  0.00  0.00    +0.000 HD
BRANCH   7  10
ATOM     10  C   UNL     1       6.404   4.548 -17.723  0.00  0.00    +0.000 C 
ATOM     11  H   UNL     1       5.713   4.030 -17.047  0.00  0.00    +0.000 HD
ATOM     12  H   UNL     1       7.051   5.179 -17.104  0.00  0.00    +0.000 HD
BRANCH  10  13
ATOM     13  C   UNL     1       7.255   3.516 -18.446  0.00  0.00    +0.000 C 
ATOM     14  H   UNL     1       7.668   2.786 -17.742  0.00  0.00    +0.000 HD
ATOM     15  H   UNL     1       8.087   3.993 -18.975  0.00  0.00    +0.000 HD
ATOM     16  H   UNL     1       6.652   2.975 -19.181  0.00  0.00    +0.000 HD
ENDBRANCH  10  13
ENDBRANCH   7  10
ENDBRANCH   4   7
ENDBRANCH   1   4
BRANCH   1  17
ATOM     17  C   UNL     1       3.745   2.682 -20.422  0.00  0.00    +0.000 C 
ATOM     18  H   UNL     1       3.885   2.518 -21.497  0.00  0.00    +0.000 HD
ATOM     19  H   UNL     1       4.538   2.130 -19.903  0.00  0.00    +0.000 HD
BRANCH  17  20
ATOM     20  C   UNL     1       2.378   2.140 -19.992  0.00  0.00    +0.000 C 
ATOM     21  H   UNL     1       2.184   2.426 -18.950  0.00  0.00    +0.000 HD
ATOM     22  H   UNL     1       2.396   1.043 -20.016  0.00  0.00    +0.000 HD
BRANCH  20  23
ATOM     23  C   UNL     1       1.244   2.648 -20.880  0.00  0.00    +0.000 C 
ATOM     24  H   UNL     1       1.620   3.433 -21.546  0.00  0.00    +0.000 HD
ATOM     25  H   UNL     1       0.857   1.822 -21.486  0.00  0.00    +0.000 HD
BRANCH  23  27
ATOM     26  O   UNL     1       0.243   3.903 -19.077  0.00  0.00    +0.000 OA
ATOM     27  C   UNL     1       0.097   3.220 -20.082  0.00  0.00    +0.000 C 
BRANCH  27  28
ATOM     28  O   UNL     1      -1.090   2.860 -20.648  0.00  0.00    +0.000 OA
BRANCH  28  29
ATOM     29  C   UNL     1      -0.993   2.186 -21.906  0.00  0.00    +0.000 C 
ATOM     30  H   UNL     1      -1.965   1.774 -22.192  0.00  0.00    +0.000 HD
ATOM     31  H   UNL     1      -0.280   1.364 -21.799  0.00  0.00    +0.000 HD
ATOM     32  H   UNL     1      -0.623   2.871 -22.676  0.00  0.00    +0.000 HD
ENDBRANCH  28  29
ENDBRANCH  27  28
ENDBRANCH  23  27
ENDBRANCH  20  23
ENDBRANCH  17  20
ENDBRANCH   1  17
TORSDOF 10
ENDMDL
MODEL 4
REMARK VINA RESULT:    -4.199     26.923     28.665
REMARK INTER + INTRA:          -6.980
REMARK INTER:                  -6.374
REMARK INTRA:                  -0.606
REMARK UNBOUND:                -0.572
REMARK  Name = 15606
REMARK  10 active torsions:
REMARK  status: ('A' for Active; 'I' for Inactive)
REMARK    1  A    between atoms: O_1  and  C_11
REMARK    2  A    between atoms: O_1  and  C_12
REMARK    3  A    between atoms: C_3  and  C_4
REMARK    4  A    between atoms: C_3  and  C_5
REMARK    5  A    between atoms: C_4  and  C_6
REMARK    6  A    between atoms: C_5  and  C_7
REMARK    7  A    between atoms: C_6  and  C_8
REMARK    8  A    between atoms: C_7  and  C_9
REMARK    9  A    between atoms: C_8  and  C_10
REMARK   10  A    between atoms: C_9  and  C_11
REMARK                            x       y       z     vdW  Elec       q    Type
REMARK                         _______ _______ _______ _____ _____    ______ ____
ROOT
ATOM      1  C   UNL     1      -6.545 -12.805   4.341  0.00  0.00    +0.000 C 
ATOM      2  H   UNL     1      -6.386 -11.726   4.447  0.00  0.00    +0.000 HD
ATOM      3  H   UNL     1      -5.749 -13.300   4.911  0.00  0.00    +0.000 HD
ENDROOT
BRANCH   1   4
ATOM      4  C   UNL     1      -6.410 -13.188   2.864  0.00  0.00    +0.000 C 
ATOM      5  H   UNL     1      -6.949 -12.454   2.251  0.00  0.00    +0.000 HD
ATOM      6  H   UNL     1      -5.354 -13.123   2.578  0.00  0.00    +0.000 HD
BRANCH   4   7
ATOM      7  C   UNL     1      -6.936 -14.590   2.547  0.00  0.00    +0.000 C 
ATOM      8  H   UNL     1      -7.829 -14.792   3.150  0.00  0.00    +0.000 HD
ATOM      9  H   UNL     1      -6.180 -15.333   2.829  0.00  0.00    +0.000 HD
BRANCH   7  10
ATOM     10  C   UNL     1      -7.268 -14.734   1.061  0.00  0.00    +0.000 C 
ATOM     11  H   UNL     1      -8.305 -15.066   0.941  0.00  0.00    +0.000 HD
ATOM     12  H   UNL     1      -6.627 -15.500   0.610  0.00  0.00    +0.000 HD
BRANCH  10  13
ATOM     13  C   UNL     1      -7.078 -13.421   0.319  0.00  0.00    +0.000 C 
ATOM     14  H   UNL     1      -7.908 -12.735   0.519  0.00  0.00    +0.000 HD
ATOM     15  H   UNL     1      -7.020 -13.585  -0.762  0.00  0.00    +0.000 HD
ATOM     16  H   UNL     1      -6.152 -12.934   0.639  0.00  0.00    +0.000 HD
ENDBRANCH  10  13
ENDBRANCH   7  10
ENDBRANCH   4   7
ENDBRANCH   1   4
BRANCH   1  17
ATOM     17  C   UNL     1      -7.902 -13.177   4.944  0.00  0.00    +0.000 C 
ATOM     18  H   UNL     1      -8.613 -12.358   4.787  0.00  0.00    +0.000 HD
ATOM     19  H   UNL     1      -8.303 -14.059   4.428  0.00  0.00    +0.000 HD
BRANCH  17  20
ATOM     20  C   UNL     1      -7.778 -13.473   6.442  0.00  0.00    +0.000 C 
ATOM     21  H   UNL     1      -8.368 -12.740   7.008  0.00  0.00    +0.000 HD
ATOM     22  H   UNL     1      -6.734 -13.341   6.755  0.00  0.00    +0.000 HD
BRANCH  20  23
ATOM     23  C   UNL     1      -8.240 -14.884   6.799  0.00  0.00    +0.000 C 
ATOM     24  H   UNL     1      -8.082 -15.065   7.868  0.00  0.00    +0.000 HD
ATOM     25  H   UNL     1      -9.307 -14.986   6.574  0.00  0.00    +0.000 HD
BRANCH  23  27
ATOM     26  O   UNL     1      -6.298 -16.167   6.159  0.00  0.00    +0.000 OA
ATOM     27  C   UNL     1      -7.495 -15.947   6.029  0.00  0.00    +0.000 C 
BRANCH  27  28
ATOM     28  O   UNL     1      -8.349 -16.600   5.189  0.00  0.00    +0.000 OA
BRANCH  28  29
ATOM     29  C   UNL     1      -9.685 -16.761   5.675  0.00  0.00    +0.000 C 
ATOM     30  H   UNL     1     -10.368 -16.967   4.845  0.00  0.00    +0.000 HD
ATOM     31  H   UNL     1      -9.988 -15.828   6.157  0.00  0.00    +0.000 HD
ATOM     32  H   UNL     1      -9.725 -17.567   6.416  0.00  0.00    +0.000 HD
ENDBRANCH  28  29
ENDBRANCH  27  28
ENDBRANCH  23  27
ENDBRANCH  20  23
ENDBRANCH  17  20
ENDBRANCH   1  17
TORSDOF 10
ENDMDL
MODEL 5
REMARK VINA RESULT:    -4.063     27.427     29.889
REMARK INTER + INTRA:          -6.773
REMARK INTER:                  -6.510
REMARK INTRA:                  -0.263
REMARK UNBOUND:                -0.572
REMARK  Name = 15606
REMARK  10 active torsions:
REMARK  status: ('A' for Active; 'I' for Inactive)
REMARK    1  A    between atoms: O_1  and  C_11
REMARK    2  A    between atoms: O_1  and  C_12
REMARK    3  A    between atoms: C_3  and  C_4
REMARK    4  A    between atoms: C_3  and  C_5
REMARK    5  A    between atoms: C_4  and  C_6
REMARK    6  A    between atoms: C_5  and  C_7
REMARK    7  A    between atoms: C_6  and  C_8
REMARK    8  A    between atoms: C_7  and  C_9
REMARK    9  A    between atoms: C_8  and  C_10
REMARK   10  A    between atoms: C_9  and  C_11
REMARK                            x       y       z     vdW  Elec       q    Type
REMARK                         _______ _______ _______ _____ _____    ______ ____
ROOT
ATOM      1  C   UNL     1      -8.134 -13.495   5.963  0.00  0.00    +0.000 C 
ATOM      2  H   UNL     1      -8.989 -12.863   6.226  0.00  0.00    +0.000 HD
ATOM      3  H   UNL     1      -7.417 -13.420   6.790  0.00  0.00    +0.000 HD
ENDROOT
BRANCH   1   4
ATOM      4  C   UNL     1      -7.481 -12.947   4.690  0.00  0.00    +0.000 C 
ATOM      5  H   UNL     1      -8.017 -12.044   4.370  0.00  0.00    +0.000 HD
ATOM      6  H   UNL     1      -6.455 -12.639   4.924  0.00  0.00    +0.000 HD
BRANCH   4   7
ATOM      7  C   UNL     1      -7.458 -13.952   3.535  0.00  0.00    +0.000 C 
ATOM      8  H   UNL     1      -8.461 -14.034   3.100  0.00  0.00    +0.000 HD
ATOM      9  H   UNL     1      -7.190 -14.942   3.922  0.00  0.00    +0.000 HD
BRANCH   7  10
ATOM     10  C   UNL     1      -6.457 -13.534   2.458  0.00  0.00    +0.000 C 
ATOM     11  H   UNL     1      -5.586 -14.200   2.478  0.00  0.00    +0.000 HD
ATOM     12  H   UNL     1      -6.094 -12.520   2.661  0.00  0.00    +0.000 HD
BRANCH  10  13
ATOM     13  C   UNL     1      -7.081 -13.576   1.072  0.00  0.00    +0.000 C 
ATOM     14  H   UNL     1      -7.161 -14.606   0.709  0.00  0.00    +0.000 HD
ATOM     15  H   UNL     1      -6.483 -13.003   0.355  0.00  0.00    +0.000 HD
ATOM     16  H   UNL     1      -8.086 -13.145   1.096  0.00  0.00    +0.000 HD
ENDBRANCH  10  13
ENDBRANCH   7  10
ENDBRANCH   4   7
ENDBRANCH   1   4
BRANCH   1  17
ATOM     17  C   UNL     1      -8.600 -14.947   5.830  0.00  0.00    +0.000 C 
ATOM     18  H   UNL     1      -9.685 -14.974   5.677  0.00  0.00    +0.000 HD
ATOM     19  H   UNL     1      -8.135 -15.401   4.946  0.00  0.00    +0.000 HD
BRANCH  17  20
ATOM     20  C   UNL     1      -8.235 -15.760   7.077  0.00  0.00    +0.000 C 
ATOM     21  H   UNL     1      -8.456 -15.169   7.975  0.00  0.00    +0.000 HD
ATOM     22  H   UNL     1      -7.154 -15.948   7.086  0.00  0.00    +0.000 HD
BRANCH  20  23
ATOM     23  C   UNL     1      -8.982 -17.090   7.145  0.00  0.00    +0.000 C 
ATOM     24  H   UNL     1     -10.054 -16.905   7.278  0.00  0.00    +0.000 HD
ATOM     25  H   UNL     1      -8.830 -17.642   6.211  0.00  0.00    +0.000 HD
BRANCH  23  27
ATOM     26  O   UNL     1      -9.215 -18.272   9.236  0.00  0.00    +0.000 OA
ATOM     27  C   UNL     1      -8.511 -17.959   8.285  0.00  0.00    +0.000 C 
BRANCH  27  28
ATOM     28  O   UNL     1      -7.212 -18.325   8.088  0.00  0.00    +0.000 OA
BRANCH  28  29
ATOM     29  C   UNL     1      -6.854 -19.617   8.589  0.00  0.00    +0.000 C 
ATOM     30  H   UNL     1      -6.414 -19.527   9.587  0.00  0.00    +0.000 HD
ATOM     31  H   UNL     1      -6.112 -20.050   7.914  0.00  0.00    +0.000 HD
ATOM     32  H   UNL     1      -7.732 -20.272   8.612  0.00  0.00    +0.000 HD
ENDBRANCH  28  29
ENDBRANCH  27  28
ENDBRANCH  23  27
ENDBRANCH  20  23
ENDBRANCH  17  20
ENDBRANCH   1  17
TORSDOF 10
ENDMDL
MODEL 6
REMARK VINA RESULT:    -4.035      1.555      2.163
REMARK INTER + INTRA:          -6.730
REMARK INTER:                  -6.220
REMARK INTRA:                  -0.510
REMARK UNBOUND:                -0.572
REMARK  Name = 15606
REMARK  10 active torsions:
REMARK  status: ('A' for Active; 'I' for Inactive)
REMARK    1  A    between atoms: O_1  and  C_11
REMARK    2  A    between atoms: O_1  and  C_12
REMARK    3  A    between atoms: C_3  and  C_4
REMARK    4  A    between atoms: C_3  and  C_5
REMARK    5  A    between atoms: C_4  and  C_6
REMARK    6  A    between atoms: C_5  and  C_7
REMARK    7  A    between atoms: C_6  and  C_8
REMARK    8  A    between atoms: C_7  and  C_9
REMARK    9  A    between atoms: C_8  and  C_10
REMARK   10  A    between atoms: C_9  and  C_11
REMARK                            x       y       z     vdW  Elec       q    Type
REMARK                         _______ _______ _______ _____ _____    ______ ____
ROOT
ATOM      1  C   UNL     1      16.858  -6.382  -3.597  0.00  0.00    +0.000 C 
ATOM      2  H   UNL     1      15.905  -6.867  -3.839  0.00  0.00    +0.000 HD
ATOM      3  H   UNL     1      17.309  -6.960  -2.781  0.00  0.00    +0.000 HD
ENDROOT
BRANCH   1   4
ATOM      4  C   UNL     1      16.584  -4.958  -3.104  0.00  0.00    +0.000 C 
ATOM      5  H   UNL     1      17.538  -4.428  -2.985  0.00  0.00    +0.000 HD
ATOM      6  H   UNL     1      16.019  -4.420  -3.875  0.00  0.00    +0.000 HD
BRANCH   4   7
ATOM      7  C   UNL     1      15.812  -4.908  -1.783  0.00  0.00    +0.000 C 
ATOM      8  H   UNL     1      14.919  -4.284  -1.904  0.00  0.00    +0.000 HD
ATOM      9  H   UNL     1      16.437  -4.436  -1.016  0.00  0.00    +0.000 HD
BRANCH   7  10
ATOM     10  C   UNL     1      15.409  -6.310  -1.324  0.00  0.00    +0.000 C 
ATOM     11  H   UNL     1      16.054  -7.059  -1.799  0.00  0.00    +0.000 HD
ATOM     12  H   UNL     1      14.381  -6.523  -1.637  0.00  0.00    +0.000 HD
BRANCH  10  13
ATOM     13  C   UNL     1      15.513  -6.452   0.186  0.00  0.00    +0.000 C 
ATOM     14  H   UNL     1      16.483  -6.093   0.547  0.00  0.00    +0.000 HD
ATOM     15  H   UNL     1      15.398  -7.498   0.491  0.00  0.00    +0.000 HD
ATOM     16  H   UNL     1      14.730  -5.867   0.677  0.00  0.00    +0.000 HD
ENDBRANCH  10  13
ENDBRANCH   7  10
ENDBRANCH   4   7
ENDBRANCH   1   4
BRANCH   1  17
ATOM     17  C   UNL     1      17.777  -6.436  -4.820  0.00  0.00    +0.000 C 
ATOM     18  H   UNL     1      17.815  -7.460  -5.209  0.00  0.00    +0.000 HD
ATOM     19  H   UNL     1      17.367  -5.801  -5.615  0.00  0.00    +0.000 HD
BRANCH  17  20
ATOM     20  C   UNL     1      19.193  -5.966  -4.468  0.00  0.00    +0.000 C 
ATOM     21  H   UNL     1      19.185  -4.881  -4.298  0.00  0.00    +0.000 HD
ATOM     22  H   UNL     1      19.859  -6.142  -5.322  0.00  0.00    +0.000 HD
BRANCH  20  23
ATOM     23  C   UNL     1      19.752  -6.672  -3.235  0.00  0.00    +0.000 C 
ATOM     24  H   UNL     1      19.007  -7.373  -2.842  0.00  0.00    +0.000 HD
ATOM     25  H   UNL     1      20.654  -7.229  -3.512  0.00  0.00    +0.000 HD
BRANCH  23  27
ATOM     26  O   UNL     1      20.103  -5.999  -0.944  0.00  0.00    +0.000 OA
ATOM     27  C   UNL     1      20.117  -5.708  -2.133  0.00  0.00    +0.000 C 
BRANCH  27  28
ATOM     28  O   UNL     1      20.452  -4.497  -2.663  0.00  0.00    +0.000 OA
BRANCH  28  29
ATOM     29  C   UNL     1      19.981  -3.357  -1.937  0.00  0.00    +0.000 C 
ATOM     30  H   UNL     1      20.441  -3.324  -0.945  0.00  0.00    +0.000 HD
ATOM     31  H   UNL     1      18.898  -3.450  -1.821  0.00  0.00    +0.000 HD
ATOM     32  H   UNL     1      20.196  -2.438  -2.492  0.00  0.00    +0.000 HD
ENDBRANCH  28  29
ENDBRANCH  27  28
ENDBRANCH  23  27
ENDBRANCH  20  23
ENDBRANCH  17  20
ENDBRANCH   1  17
TORSDOF 10
ENDMDL
MODEL 7
REMARK VINA RESULT:    -4.015     25.497     27.700
REMARK INTER + INTRA:          -6.699
REMARK INTER:                  -6.230
REMARK INTRA:                  -0.469
REMARK UNBOUND:                -0.572
REMARK  Name = 15606
REMARK  10 active torsions:
REMARK  status: ('A' for Active; 'I' for Inactive)
REMARK    1  A    between atoms: O_1  and  C_11
REMARK    2  A    between atoms: O_1  and  C_12
REMARK    3  A    between atoms: C_3  and  C_4
REMARK    4  A    between atoms: C_3  and  C_5
REMARK    5  A    between atoms: C_4  and  C_6
REMARK    6  A    between atoms: C_5  and  C_7
REMARK    7  A    between atoms: C_6  and  C_8
REMARK    8  A    between atoms: C_7  and  C_9
REMARK    9  A    between atoms: C_8  and  C_10
REMARK   10  A    between atoms: C_9  and  C_11
REMARK                            x       y       z     vdW  Elec       q    Type
REMARK                         _______ _______ _______ _____ _____    ______ ____
ROOT
ATOM      1  C   UNL     1      -8.519 -14.995   5.895  0.00  0.00    +0.000 C 
ATOM      2  H   UNL     1      -9.598 -14.908   5.724  0.00  0.00    +0.000 HD
ATOM      3  H   UNL     1      -8.095 -15.475   5.004  0.00  0.00    +0.000 HD
ENDROOT
BRANCH   1   4
ATOM      4  C   UNL     1      -8.276 -15.897   7.108  0.00  0.00    +0.000 C 
ATOM      5  H   UNL     1      -7.792 -15.312   7.901  0.00  0.00    +0.000 HD
ATOM      6  H   UNL     1      -9.245 -16.225   7.504  0.00  0.00    +0.000 HD
BRANCH   4   7
ATOM      7  C   UNL     1      -7.416 -17.124   6.794  0.00  0.00    +0.000 C 
ATOM      8  H   UNL     1      -7.939 -17.764   6.073  0.00  0.00    +0.000 HD
ATOM      9  H   UNL     1      -7.276 -17.712   7.708  0.00  0.00    +0.000 HD
BRANCH   7  10
ATOM     10  C   UNL     1      -6.053 -16.715   6.233  0.00  0.00    +0.000 C 
ATOM     11  H   UNL     1      -5.778 -15.722   6.606  0.00  0.00    +0.000 HD
ATOM     12  H   UNL     1      -6.105 -16.649   5.140  0.00  0.00    +0.000 HD
BRANCH  10  13
ATOM     13  C   UNL     1      -4.970 -17.708   6.624  0.00  0.00    +0.000 C 
ATOM     14  H   UNL     1      -4.861 -17.760   7.712  0.00  0.00    +0.000 HD
ATOM     15  H   UNL     1      -4.004 -17.425   6.194  0.00  0.00    +0.000 HD
ATOM     16  H   UNL     1      -5.223 -18.708   6.260  0.00  0.00    +0.000 HD
ENDBRANCH  10  13
ENDBRANCH   7  10
ENDBRANCH   4   7
ENDBRANCH   1   4
BRANCH   1  17
ATOM     17  C   UNL     1      -7.917 -13.596   6.047  0.00  0.00    +0.000 C 
ATOM     18  H   UNL     1      -8.535 -13.000   6.728  0.00  0.00    +0.000 HD
ATOM     19  H   UNL     1      -6.919 -13.673   6.497  0.00  0.00    +0.000 HD
BRANCH  17  20
ATOM     20  C   UNL     1      -7.814 -12.888   4.692  0.00  0.00    +0.000 C 
ATOM     21  H   UNL     1      -7.285 -11.934   4.818  0.00  0.00    +0.000 HD
ATOM     22  H   UNL     1      -8.821 -12.640   4.332  0.00  0.00    +0.000 HD
BRANCH  20  23
ATOM     23  C   UNL     1      -7.095 -13.736   3.644  0.00  0.00    +0.000 C 
ATOM     24  H   UNL     1      -6.960 -14.755   4.024  0.00  0.00    +0.000 HD
ATOM     25  H   UNL     1      -7.698 -13.773   2.730  0.00  0.00    +0.000 HD
BRANCH  23  27
ATOM     26  O   UNL     1      -5.336 -12.083   3.642  0.00  0.00    +0.000 OA
ATOM     27  C   UNL     1      -5.737 -13.184   3.287  0.00  0.00    +0.000 C 
BRANCH  27  28
ATOM     28  O   UNL     1      -5.052 -14.085   2.526  0.00  0.00    +0.000 OA
BRANCH  28  29
ATOM     29  C   UNL     1      -4.431 -15.153   3.247  0.00  0.00    +0.000 C 
ATOM     30  H   UNL     1      -3.420 -14.869   3.549  0.00  0.00    +0.000 HD
ATOM     31  H   UNL     1      -4.370 -16.021   2.584  0.00  0.00    +0.000 HD
ATOM     32  H   UNL     1      -5.034 -15.422   4.121  0.00  0.00    +0.000 HD
ENDBRANCH  28  29
ENDBRANCH  27  28
ENDBRANCH  23  27
ENDBRANCH  20  23
ENDBRANCH  17  20
ENDBRANCH   1  17
TORSDOF 10
ENDMDL
MODEL 8
REMARK VINA RESULT:    -3.960      1.566      2.358
REMARK INTER + INTRA:          -6.615
REMARK INTER:                  -6.244
REMARK INTRA:                  -0.372
REMARK UNBOUND:                -0.572
REMARK  Name = 15606
REMARK  10 active torsions:
REMARK  status: ('A' for Active; 'I' for Inactive)
REMARK    1  A    between atoms: O_1  and  C_11
REMARK    2  A    between atoms: O_1  and  C_12
REMARK    3  A    between atoms: C_3  and  C_4
REMARK    4  A    between atoms: C_3  and  C_5
REMARK    5  A    between atoms: C_4  and  C_6
REMARK    6  A    between atoms: C_5  and  C_7
REMARK    7  A    between atoms: C_6  and  C_8
REMARK    8  A    between atoms: C_7  and  C_9
REMARK    9  A    between atoms: C_8  and  C_10
REMARK   10  A    between atoms: C_9  and  C_11
REMARK                            x       y       z     vdW  Elec       q    Type
REMARK                         _______ _______ _______ _____ _____    ______ ____
ROOT
ATOM      1  C   UNL     1      17.539  -6.042  -4.173  0.00  0.00    +0.000 C 
ATOM      2  H   UNL     1      17.248  -5.561  -5.114  0.00  0.00    +0.000 HD
ATOM      3  H   UNL     1      16.918  -6.940  -4.071  0.00  0.00    +0.000 HD
ENDROOT
BRANCH   1   4
ATOM      4  C   UNL     1      17.233  -5.092  -3.012  0.00  0.00    +0.000 C 
ATOM      5  H   UNL     1      17.801  -5.408  -2.128  0.00  0.00    +0.000 HD
ATOM      6  H   UNL     1      17.588  -4.088  -3.273  0.00  0.00    +0.000 HD
BRANCH   4   7
ATOM      7  C   UNL     1      15.745  -5.025  -2.655  0.00  0.00    +0.000 C 
ATOM      8  H   UNL     1      15.181  -4.629  -3.507  0.00  0.00    +0.000 HD
ATOM      9  H   UNL     1      15.603  -4.329  -1.820  0.00  0.00    +0.000 HD
BRANCH   7  10
ATOM     10  C   UNL     1      15.206  -6.404  -2.270  0.00  0.00    +0.000 C 
ATOM     11  H   UNL     1      15.688  -7.177  -2.880  0.00  0.00    +0.000 HD
ATOM     12  H   UNL     1      14.131  -6.453  -2.474  0.00  0.00    +0.000 HD
BRANCH  10  13
ATOM     13  C   UNL     1      15.453  -6.707  -0.801  0.00  0.00    +0.000 C 
ATOM     14  H   UNL     1      16.024  -7.634  -0.683  0.00  0.00    +0.000 HD
ATOM     15  H   UNL     1      14.508  -6.814  -0.258  0.00  0.00    +0.000 HD
ATOM     16  H   UNL     1      16.021  -5.896  -0.336  0.00  0.00    +0.000 HD
ENDBRANCH  10  13
ENDBRANCH   7  10
ENDBRANCH   4   7
ENDBRANCH   1   4
BRANCH   1  17
ATOM     17  C   UNL     1      19.011  -6.453  -4.250  0.00  0.00    +0.000 C 
ATOM     18  H   UNL     1      19.259  -7.098  -3.400  0.00  0.00    +0.000 HD
ATOM     19  H   UNL     1      19.182  -7.037  -5.162  0.00  0.00    +0.000 HD
BRANCH  17  20
ATOM     20  C   UNL     1      19.928  -5.225  -4.249  0.00  0.00    +0.000 C 
ATOM     21  H   UNL     1      19.870  -4.727  -3.272  0.00  0.00    +0.000 HD
ATOM     22  H   UNL     1      19.568  -4.500  -4.990  0.00  0.00    +0.000 HD
BRANCH  20  23
ATOM     23  C   UNL     1      21.381  -5.582  -4.553  0.00  0.00    +0.000 C 
ATOM     24  H   UNL     1      21.487  -6.670  -4.623  0.00  0.00    +0.000 HD
ATOM     25  H   UNL     1      21.674  -5.134  -5.509  0.00  0.00    +0.000 HD
BRANCH  23  27
ATOM     26  O   UNL     1      23.550  -5.203  -3.562  0.00  0.00    +0.000 OA
ATOM     27  C   UNL     1      22.333  -5.085  -3.493  0.00  0.00    +0.000 C 
BRANCH  27  28
ATOM     28  O   UNL     1      21.636  -4.503  -2.475  0.00  0.00    +0.000 OA
BRANCH  28  29
ATOM     29  C   UNL     1      22.427  -3.806  -1.507  0.00  0.00    +0.000 C 
ATOM     30  H   UNL     1      22.111  -4.075  -0.495  0.00  0.00    +0.000 HD
ATOM     31  H   UNL     1      22.275  -2.734  -1.651  0.00  0.00    +0.000 HD
ATOM     32  H   UNL     1      23.490  -4.031  -1.653  0.00  0.00    +0.000 HD
ENDBRANCH  28  29
ENDBRANCH  27  28
ENDBRANCH  23  27
ENDBRANCH  20  23
ENDBRANCH  17  20
ENDBRANCH   1  17
TORSDOF 10
ENDMDL
MODEL 9
REMARK VINA RESULT:    -3.901     23.833     26.149
REMARK INTER + INTRA:          -6.526
REMARK INTER:                  -6.074
REMARK INTRA:                  -0.452
REMARK UNBOUND:                -0.572
REMARK  Name = 15606
REMARK  10 active torsions:
REMARK  status: ('A' for Active; 'I' for Inactive)
REMARK    1  A    between atoms: O_1  and  C_11
REMARK    2  A    between atoms: O_1  and  C_12
REMARK    3  A    between atoms: C_3  and  C_4
REMARK    4  A    between atoms: C_3  and  C_5
REMARK    5  A    between atoms: C_4  and  C_6
REMARK    6  A    between atoms: C_5  and  C_7
REMARK    7  A    between atoms: C_6  and  C_8
REMARK    8  A    between atoms: C_7  and  C_9
REMARK    9  A    between atoms: C_8  and  C_10
REMARK   10  A    between atoms: C_9  and  C_11
REMARK                            x       y       z     vdW  Elec       q    Type
REMARK                         _______ _______ _______ _____ _____    ______ ____
ROOT
ATOM      1  C   UNL     1      -6.512 -13.208   2.879  0.00  0.00    +0.000 C 
ATOM      2  H   UNL     1      -5.456 -13.215   2.588  0.00  0.00    +0.000 HD
ATOM      3  H   UNL     1      -7.003 -12.438   2.270  0.00  0.00    +0.000 HD
ENDROOT
BRANCH   1   4
ATOM      4  C   UNL     1      -6.621 -12.818   4.356  0.00  0.00    +0.000 C 
ATOM      5  H   UNL     1      -5.849 -13.348   4.927  0.00  0.00    +0.000 HD
ATOM      6  H   UNL     1      -6.407 -11.746   4.455  0.00  0.00    +0.000 HD
BRANCH   4   7
ATOM      7  C   UNL     1      -7.992 -13.119   4.967  0.00  0.00    +0.000 C 
ATOM      8  H   UNL     1      -8.469 -13.937   4.413  0.00  0.00    +0.000 HD
ATOM      9  H   UNL     1      -8.637 -12.238   4.863  0.00  0.00    +0.000 HD
BRANCH   7  10
ATOM     10  C   UNL     1      -7.870 -13.493   6.444  0.00  0.00    +0.000 C 
ATOM     11  H   UNL     1      -8.588 -12.915   7.037  0.00  0.00    +0.000 HD
ATOM     12  H   UNL     1      -6.868 -13.241   6.810  0.00  0.00    +0.000 HD
BRANCH  10  13
ATOM     13  C   UNL     1      -8.125 -14.976   6.665  0.00  0.00    +0.000 C 
ATOM     14  H   UNL     1      -7.215 -15.485   6.997  0.00  0.00    +0.000 HD
ATOM     15  H   UNL     1      -8.472 -15.457   5.745  0.00  0.00    +0.000 HD
ATOM     16  H   UNL     1      -8.893 -15.118   7.432  0.00  0.00    +0.000 HD
ENDBRANCH  10  13
ENDBRANCH   7  10
ENDBRANCH   4   7
ENDBRANCH   1   4
BRANCH   1  17
ATOM     17  C   UNL     1      -7.133 -14.571   2.563  0.00  0.00    +0.000 C 
ATOM     18  H   UNL     1      -7.699 -14.929   3.430  0.00  0.00    +0.000 HD
ATOM     19  H   UNL     1      -7.841 -14.468   1.732  0.00  0.00    +0.000 HD
BRANCH  17  20
ATOM     20  C   UNL     1      -6.055 -15.596   2.194  0.00  0.00    +0.000 C 
ATOM     21  H   UNL     1      -6.470 -16.319   1.479  0.00  0.00    +0.000 HD
ATOM     22  H   UNL     1      -5.773 -16.168   3.087  0.00  0.00    +0.000 HD
BRANCH  20  23
ATOM     23  C   UNL     1      -4.811 -14.944   1.595  0.00  0.00    +0.000 C 
ATOM     24  H   UNL     1      -4.641 -15.332   0.585  0.00  0.00    +0.000 HD
ATOM     25  H   UNL     1      -4.957 -13.860   1.541  0.00  0.00    +0.000 HD
BRANCH  23  27
ATOM     26  O   UNL     1      -3.587 -15.712   3.529  0.00  0.00    +0.000 OA
ATOM     27  C   UNL     1      -3.570 -15.208   2.413  0.00  0.00    +0.000 C 
BRANCH  27  28
ATOM     28  O   UNL     1      -2.463 -14.803   1.728  0.00  0.00    +0.000 OA
BRANCH  28  29
ATOM     29  C   UNL     1      -1.216 -15.298   2.225  0.00  0.00    +0.000 C 
ATOM     30  H   UNL     1      -0.518 -15.464   1.399  0.00  0.00    +0.000 HD
ATOM     31  H   UNL     1      -1.404 -16.252   2.725  0.00  0.00    +0.000 HD
ATOM     32  H   UNL     1      -0.793 -14.599   2.953  0.00  0.00    +0.000 HD
ENDBRANCH  28  29
ENDBRANCH  27  28
ENDBRANCH  23  27
ENDBRANCH  20  23
ENDBRANCH  17  20
ENDBRANCH   1  17
TORSDOF 10
ENDMDL
MODEL 10
REMARK VINA RESULT:    -3.795      1.761      2.217
REMARK INTER + INTRA:          -6.364
REMARK INTER:                  -5.792
REMARK INTRA:                  -0.572
REMARK UNBOUND:                -0.572
REMARK  Name = 15606
REMARK  10 active torsions:
REMARK  status: ('A' for Active; 'I' for Inactive)
REMARK    1  A    between atoms: O_1  and  C_11
REMARK    2  A    between atoms: O_1  and  C_12
REMARK    3  A    between atoms: C_3  and  C_4
REMARK    4  A    between atoms: C_3  and  C_5
REMARK    5  A    between atoms: C_4  and  C_6
REMARK    6  A    between atoms: C_5  and  C_7
REMARK    7  A    between atoms: C_6  and  C_8
REMARK    8  A    between atoms: C_7  and  C_9
REMARK    9  A    between atoms: C_8  and  C_10
REMARK   10  A    between atoms: C_9  and  C_11
REMARK                            x       y       z     vdW  Elec       q    Type
REMARK                         _______ _______ _______ _____ _____    ______ ____
ROOT
ATOM      1  C   UNL     1      16.726  -6.024  -2.882  0.00  0.00    +0.000 C 
ATOM      2  H   UNL     1      15.810  -6.625  -2.854  0.00  0.00    +0.000 HD
ATOM      3  H   UNL     1      17.478  -6.565  -2.293  0.00  0.00    +0.000 HD
ENDROOT
BRANCH   1   4
ATOM      4  C   UNL     1      16.456  -4.670  -2.219  0.00  0.00    +0.000 C 
ATOM      5  H   UNL     1      15.652  -4.157  -2.762  0.00  0.00    +0.000 HD
ATOM      6  H   UNL     1      16.088  -4.842  -1.200  0.00  0.00    +0.000 HD
BRANCH   4   7
ATOM      7  C   UNL     1      17.686  -3.760  -2.167  0.00  0.00    +0.000 C 
ATOM      8  H   UNL     1      17.393  -2.733  -2.418  0.00  0.00    +0.000 HD
ATOM      9  H   UNL     1      18.410  -4.085  -2.924  0.00  0.00    +0.000 HD
BRANCH   7  10
ATOM     10  C   UNL     1      18.339  -3.792  -0.785  0.00  0.00    +0.000 C 
ATOM     11  H   UNL     1      18.962  -4.689  -0.687  0.00  0.00    +0.000 HD
ATOM     12  H   UNL     1      17.568  -3.847  -0.010  0.00  0.00    +0.000 HD
BRANCH  10  13
ATOM     13  C   UNL     1      19.202  -2.562  -0.549  0.00  0.00    +0.000 C 
ATOM     14  H   UNL     1      18.844  -1.993   0.314  0.00  0.00    +0.000 HD
ATOM     15  H   UNL     1      19.194  -1.903  -1.424  0.00  0.00    +0.000 HD
ATOM     16  H   UNL     1      20.238  -2.857  -0.356  0.00  0.00    +0.000 HD
ENDBRANCH  10  13
ENDBRANCH   7  10
ENDBRANCH   4   7
ENDBRANCH   1   4
BRANCH   1  17
ATOM     17  C   UNL     1      17.210  -5.907  -4.329  0.00  0.00    +0.000 C 
ATOM     18  H   UNL     1      16.401  -6.187  -5.013  0.00  0.00    +0.000 HD
ATOM     19  H   UNL     1      17.471  -4.863  -4.545  0.00  0.00    +0.000 HD
BRANCH  17  20
ATOM     20  C   UNL     1      18.429  -6.802  -4.579  0.00  0.00    +0.000 C 
ATOM     21  H   UNL     1      18.784  -6.655  -5.607  0.00  0.00    +0.000 HD
ATOM     22  H   UNL     1      18.130  -7.855  -4.500  0.00  0.00    +0.000 HD
BRANCH  20  23
ATOM     23  C   UNL     1      19.567  -6.524  -3.600  0.00  0.00    +0.000 C 
ATOM     24  H   UNL     1      19.169  -6.048  -2.697  0.00  0.00    +0.000 HD
ATOM     25  H   UNL     1      20.049  -7.468  -3.323  0.00  0.00    +0.000 HD
BRANCH  23  27
ATOM     26  O   UNL     1      20.507  -4.397  -4.248  0.00  0.00    +0.000 OA
ATOM     27  C   UNL     1      20.621  -5.614  -4.184  0.00  0.00    +0.000 C 
BRANCH  27  28
ATOM     28  O   UNL     1      21.685  -6.349  -4.616  0.00  0.00    +0.000 OA
BRANCH  28  29
ATOM     29  C   UNL     1      22.862  -5.599  -4.933  0.00  0.00    +0.000 C 
ATOM     30  H   UNL     1      23.673  -5.858  -4.245  0.00  0.00    +0.000 HD
ATOM     31  H   UNL     1      22.630  -4.537  -4.820  0.00  0.00    +0.000 HD
ATOM     32  H   UNL     1      23.162  -5.784  -5.970  0.00  0.00    +0.000 HD
ENDBRANCH  28  29
ENDBRANCH  27  28
ENDBRANCH  23  27
ENDBRANCH  20  23
ENDBRANCH  17  20
ENDBRANCH   1  17
TORSDOF 10
ENDMDL
