MODEL 1
REMARK VINA RESULT:    -3.398      0.000      0.000
REMARK INTER + INTRA:          -4.314
REMARK INTER:                  -4.249
REMARK INTRA:                  -0.065
REMARK UNBOUND:                -0.122
REMARK  Name = 12180
REMARK  5 active torsions:
REMARK  status: ('A' for Active; 'I' for Inactive)
REMARK    1  A    between atoms: O_1  and  C_6
REMARK    2  A    between atoms: O_1  and  C_7
REMARK    3  A    between atoms: C_3  and  C_4
REMARK    4  A    between atoms: C_3  and  C_5
REMARK    5  A    between atoms: C_4  and  C_6
REMARK                            x       y       z     vdW  Elec       q    Type
REMARK                         _______ _______ _______ _____ _____    ______ ____
ROOT
ATOM      1  C   UNL     1      17.544  -6.104  -2.976  0.00  0.00    +0.000 C 
ATOM      2  H   UNL     1      18.254  -6.320  -2.169  0.00  0.00    +0.000 HD
ATOM      3  H   UNL     1      16.791  -6.898  -3.011  0.00  0.00    +0.000 HD
ENDROOT
BRANCH   1   4
ATOM      4  C   UNL     1      18.283  -6.038  -4.310  0.00  0.00    +0.000 C 
ATOM      5  H   UNL     1      18.377  -4.994  -4.634  0.00  0.00    +0.000 HD
ATOM      6  H   UNL     1      19.303  -6.425  -4.192  0.00  0.00    +0.000 HD
BRANCH   4   7
ATOM      7  C   UNL     1      17.567  -6.837  -5.385  0.00  0.00    +0.000 C 
ATOM      8  H   UNL     1      17.962  -7.856  -5.428  0.00  0.00    +0.000 HD
ATOM      9  H   UNL     1      16.493  -6.898  -5.179  0.00  0.00    +0.000 HD
ATOM     10  H   UNL     1      17.701  -6.378  -6.370  0.00  0.00    +0.000 HD
ENDBRANCH   4   7
ENDBRANCH   1   4
BRANCH   1  12
ATOM     11  O   UNL     1      15.650  -4.684  -2.417  0.00  0.00    +0.000 OA
ATOM     12  C   UNL     1      16.846  -4.803  -2.650  0.00  0.00    +0.000 C 
BRANCH  12  13
ATOM     13  O   UNL     1      17.765  -3.794  -2.656  0.00  0.00    +0.000 OA
BRANCH  13  14
ATOM     14  C   UNL     1      18.343  -3.478  -1.385  0.00  0.00    +0.000 C 
ATOM     15  H   UNL     1      17.586  -3.050  -0.721  0.00  0.00    +0.000 HD
ATOM     16  H   UNL     1      19.130  -2.737  -1.544  0.00  0.00    +0.000 HD
ATOM     17  H   UNL     1      18.789  -4.373  -0.940  0.00  0.00    +0.000 HD
ENDBRANCH  13  14
ENDBRANCH  12  13
ENDBRANCH   1  12
TORSDOF 5
ENDMDL
MODEL 2
REMARK VINA RESULT:    -3.314     26.512     27.506
REMARK INTER + INTRA:          -4.210
REMARK INTER:                  -4.155
REMARK INTRA:                  -0.055
REMARK UNBOUND:                -0.122
REMARK  Name = 12180
REMARK  5 active torsions:
REMARK  status: ('A' for Active; 'I' for Inactive)
REMARK    1  A    between atoms: O_1  and  C_6
REMARK    2  A    between atoms: O_1  and  C_7
REMARK    3  A    between atoms: C_3  and  C_4
REMARK    4  A    between atoms: C_3  and  C_5
REMARK    5  A    between atoms: C_4  and  C_6
REMARK                            x       y       z     vdW  Elec       q    Type
REMARK                         _______ _______ _______ _____ _____    ______ ____
ROOT
ATOM      1  C   UNL     1      -8.232 -13.030   5.196  0.00  0.00    +0.000 C 
ATOM      2  H   UNL     1      -8.512 -11.971   5.252  0.00  0.00    +0.000 HD
ATOM      3  H   UNL     1      -9.092 -13.607   4.838  0.00  0.00    +0.000 HD
ENDROOT
BRANCH   1   4
ATOM      4  C   UNL     1      -7.816 -13.529   6.576  0.00  0.00    +0.000 C 
ATOM      5  H   UNL     1      -6.748 -13.336   6.737  0.00  0.00    +0.000 HD
ATOM      6  H   UNL     1      -8.357 -12.975   7.354  0.00  0.00    +0.000 HD
BRANCH   4   7
ATOM      7  C   UNL     1      -8.090 -15.014   6.738  0.00  0.00    +0.000 C 
ATOM      8  H   UNL     1      -8.797 -15.355   5.976  0.00  0.00    +0.000 HD
ATOM      9  H   UNL     1      -7.169 -15.597   6.632  0.00  0.00    +0.000 HD
ATOM     10  H   UNL     1      -8.520 -15.229   7.722  0.00  0.00    +0.000 HD
ENDBRANCH   4   7
ENDBRANCH   1   4
BRANCH   1  12
ATOM     11  O   UNL     1      -5.946 -12.870   4.379  0.00  0.00    +0.000 OA
ATOM     12  C   UNL     1      -7.118 -13.166   4.183  0.00  0.00    +0.000 C 
BRANCH  12  13
ATOM     13  O   UNL     1      -7.632 -13.672   3.024  0.00  0.00    +0.000 OA
BRANCH  13  14
ATOM     14  C   UNL     1      -6.786 -13.565   1.875  0.00  0.00    +0.000 C 
ATOM     15  H   UNL     1      -7.244 -12.910   1.127  0.00  0.00    +0.000 HD
ATOM     16  H   UNL     1      -6.670 -14.562   1.443  0.00  0.00    +0.000 HD
ATOM     17  H   UNL     1      -5.800 -13.191   2.165  0.00  0.00    +0.000 HD
ENDBRANCH  13  14
ENDBRANCH  12  13
ENDBRANCH   1  12
TORSDOF 5
ENDMDL
MODEL 3
REMARK VINA RESULT:    -3.198     38.168     39.447
REMARK INTER + INTRA:          -4.067
REMARK INTER:                  -4.028
REMARK INTRA:                  -0.039
REMARK UNBOUND:                -0.122
REMARK  Name = 12180
REMARK  5 active torsions:
REMARK  status: ('A' for Active; 'I' for Inactive)
REMARK    1  A    between atoms: O_1  and  C_6
REMARK    2  A    between atoms: O_1  and  C_7
REMARK    3  A    between atoms: C_3  and  C_4
REMARK    4  A    between atoms: C_3  and  C_5
REMARK    5  A    between atoms: C_4  and  C_6
REMARK                            x       y       z     vdW  Elec       q    Type
REMARK                         _______ _______ _______ _____ _____    ______ ____
ROOT
ATOM      1  C   UNL     1      -5.359   4.496  26.869  0.00  0.00    +0.000 C 
ATOM      2  H   UNL     1      -4.468   5.043  27.198  0.00  0.00    +0.000 HD
ATOM      3  H   UNL     1      -5.230   3.433  27.098  0.00  0.00    +0.000 HD
ENDROOT
BRANCH   1   4
ATOM      4  C   UNL     1      -5.552   4.678  25.366  0.00  0.00    +0.000 C 
ATOM      5  H   UNL     1      -6.294   3.961  24.994  0.00  0.00    +0.000 HD
ATOM      6  H   UNL     1      -5.949   5.680  25.158  0.00  0.00    +0.000 HD
BRANCH   4   7
ATOM      7  C   UNL     1      -4.248   4.490  24.609  0.00  0.00    +0.000 C 
ATOM      8  H   UNL     1      -3.546   3.898  25.203  0.00  0.00    +0.000 HD
ATOM      9  H   UNL     1      -4.416   3.968  23.662  0.00  0.00    +0.000 HD
ATOM     10  H   UNL     1      -3.779   5.455  24.391  0.00  0.00    +0.000 HD
ENDBRANCH   4   7
ENDBRANCH   1   4
BRANCH   1  12
ATOM     11  O   UNL     1      -7.212   5.992  27.366  0.00  0.00    +0.000 OA
ATOM     12  C   UNL     1      -6.541   5.011  27.659  0.00  0.00    +0.000 C 
BRANCH  12  13
ATOM     13  O   UNL     1      -6.734   4.203  28.743  0.00  0.00    +0.000 OA
BRANCH  13  14
ATOM     14  C   UNL     1      -5.553   3.600  29.281  0.00  0.00    +0.000 C 
ATOM     15  H   UNL     1      -4.754   3.600  28.532  0.00  0.00    +0.000 HD
ATOM     16  H   UNL     1      -5.788   2.566  29.543  0.00  0.00    +0.000 HD
ATOM     17  H   UNL     1      -5.236   4.129  30.185  0.00  0.00    +0.000 HD
ENDBRANCH  13  14
ENDBRANCH  12  13
ENDBRANCH   1  12
TORSDOF 5
ENDMDL
MODEL 4
REMARK VINA RESULT:    -3.176     26.069     26.732
REMARK INTER + INTRA:          -4.041
REMARK INTER:                  -4.023
REMARK INTRA:                  -0.018
REMARK UNBOUND:                -0.122
REMARK  Name = 12180
REMARK  5 active torsions:
REMARK  status: ('A' for Active; 'I' for Inactive)
REMARK    1  A    between atoms: O_1  and  C_6
REMARK    2  A    between atoms: O_1  and  C_7
REMARK    3  A    between atoms: C_3  and  C_4
REMARK    4  A    between atoms: C_3  and  C_5
REMARK    5  A    between atoms: C_4  and  C_6
REMARK                            x       y       z     vdW  Elec       q    Type
REMARK                         _______ _______ _______ _____ _____    ______ ____
ROOT
ATOM      1  C   UNL     1      -7.343 -13.958   2.896  0.00  0.00    +0.000 C 
ATOM      2  H   UNL     1      -6.848 -14.925   3.044  0.00  0.00    +0.000 HD
ATOM      3  H   UNL     1      -8.418 -14.077   3.073  0.00  0.00    +0.000 HD
ENDROOT
BRANCH   1   4
ATOM      4  C   UNL     1      -7.108 -13.470   1.469  0.00  0.00    +0.000 C 
ATOM      5  H   UNL     1      -7.905 -12.776   1.175  0.00  0.00    +0.000 HD
ATOM      6  H   UNL     1      -6.166 -12.910   1.416  0.00  0.00    +0.000 HD
BRANCH   4   7
ATOM      7  C   UNL     1      -7.058 -14.626   0.485  0.00  0.00    +0.000 C 
ATOM      8  H   UNL     1      -6.114 -14.614  -0.068  0.00  0.00    +0.000 HD
ATOM      9  H   UNL     1      -7.135 -15.587   1.005  0.00  0.00    +0.000 HD
ATOM     10  H   UNL     1      -7.877 -14.561  -0.239  0.00  0.00    +0.000 HD
ENDBRANCH   4   7
ENDBRANCH   1   4
BRANCH   1  12
ATOM     11  O   UNL     1      -5.648 -12.577   3.962  0.00  0.00    +0.000 OA
ATOM     12  C   UNL     1      -6.799 -12.991   3.923  0.00  0.00    +0.000 C 
BRANCH  12  13
ATOM     13  O   UNL     1      -7.799 -12.659   4.792  0.00  0.00    +0.000 OA
BRANCH  13  14
ATOM     14  C   UNL     1      -7.833 -13.410   6.009  0.00  0.00    +0.000 C 
ATOM     15  H   UNL     1      -6.827 -13.491   6.432  0.00  0.00    +0.000 HD
ATOM     16  H   UNL     1      -8.198 -14.414   5.779  0.00  0.00    +0.000 HD
ATOM     17  H   UNL     1      -8.517 -12.942   6.723  0.00  0.00    +0.000 HD
ENDBRANCH  13  14
ENDBRANCH  12  13
ENDBRANCH   1  12
TORSDOF 5
ENDMDL
MODEL 5
REMARK VINA RESULT:    -3.125     25.319     26.049
REMARK INTER + INTRA:          -3.977
REMARK INTER:                  -3.961
REMARK INTRA:                  -0.016
REMARK UNBOUND:                -0.122
REMARK  Name = 12180
REMARK  5 active torsions:
REMARK  status: ('A' for Active; 'I' for Inactive)
REMARK    1  A    between atoms: O_1  and  C_6
REMARK    2  A    between atoms: O_1  and  C_7
REMARK    3  A    between atoms: C_3  and  C_4
REMARK    4  A    between atoms: C_3  and  C_5
REMARK    5  A    between atoms: C_4  and  C_6
REMARK                            x       y       z     vdW  Elec       q    Type
REMARK                         _______ _______ _______ _____ _____    ______ ____
ROOT
ATOM      1  C   UNL     1      12.141  18.735 -10.806  0.00  0.00    +0.000 C 
ATOM      2  H   UNL     1      12.894  19.510 -10.990  0.00  0.00    +0.000 HD
ATOM      3  H   UNL     1      12.213  18.409  -9.762  0.00  0.00    +0.000 HD
ENDROOT
BRANCH   1   4
ATOM      4  C   UNL     1      12.385  17.548 -11.733  0.00  0.00    +0.000 C 
ATOM      5  H   UNL     1      11.426  17.139 -12.077  0.00  0.00    +0.000 HD
ATOM      6  H   UNL     1      12.927  17.877 -12.628  0.00  0.00    +0.000 HD
BRANCH   4   7
ATOM      7  C   UNL     1      13.179  16.453 -11.041  0.00  0.00    +0.000 C 
ATOM      8  H   UNL     1      13.307  15.596 -11.710  0.00  0.00    +0.000 HD
ATOM      9  H   UNL     1      14.173  16.811 -10.754  0.00  0.00    +0.000 HD
ATOM     10  H   UNL     1      12.665  16.106 -10.139  0.00  0.00    +0.000 HD
ENDBRANCH   4   7
ENDBRANCH   1   4
BRANCH   1  12
ATOM     11  O   UNL     1      10.163  19.361 -12.075  0.00  0.00    +0.000 OA
ATOM     12  C   UNL     1      10.776  19.349 -11.016  0.00  0.00    +0.000 C 
BRANCH  12  13
ATOM     13  O   UNL     1      10.343  19.881  -9.835  0.00  0.00    +0.000 OA
BRANCH  13  14
ATOM     14  C   UNL     1      10.524  21.294  -9.693  0.00  0.00    +0.000 C 
ATOM     15  H   UNL     1      11.516  21.586 -10.051  0.00  0.00    +0.000 HD
ATOM     16  H   UNL     1      10.447  21.542  -8.632  0.00  0.00    +0.000 HD
ATOM     17  H   UNL     1       9.742  21.832 -10.237  0.00  0.00    +0.000 HD
ENDBRANCH  13  14
ENDBRANCH  12  13
ENDBRANCH   1  12
TORSDOF 5
ENDMDL
MODEL 6
REMARK VINA RESULT:    -3.115     34.759     35.725
REMARK INTER + INTRA:          -3.964
REMARK INTER:                  -3.944
REMARK INTRA:                  -0.021
REMARK UNBOUND:                -0.122
REMARK  Name = 12180
REMARK  5 active torsions:
REMARK  status: ('A' for Active; 'I' for Inactive)
REMARK    1  A    between atoms: O_1  and  C_6
REMARK    2  A    between atoms: O_1  and  C_7
REMARK    3  A    between atoms: C_3  and  C_4
REMARK    4  A    between atoms: C_3  and  C_5
REMARK    5  A    between atoms: C_4  and  C_6
REMARK                            x       y       z     vdW  Elec       q    Type
REMARK                         _______ _______ _______ _____ _____    ______ ____
ROOT
ATOM      1  C   UNL     1     -16.026 -15.424   3.569  0.00  0.00    +0.000 C 
ATOM      2  H   UNL     1     -16.282 -14.367   3.710  0.00  0.00    +0.000 HD
ATOM      3  H   UNL     1     -16.691 -16.037   4.188  0.00  0.00    +0.000 HD
ENDROOT
BRANCH   1   4
ATOM      4  C   UNL     1     -14.576 -15.664   3.978  0.00  0.00    +0.000 C 
ATOM      5  H   UNL     1     -14.460 -16.685   4.362  0.00  0.00    +0.000 HD
ATOM      6  H   UNL     1     -13.921 -15.580   3.101  0.00  0.00    +0.000 HD
BRANCH   4   7
ATOM      7  C   UNL     1     -14.122 -14.673   5.037  0.00  0.00    +0.000 C 
ATOM      8  H   UNL     1     -14.440 -13.661   4.770  0.00  0.00    +0.000 HD
ATOM      9  H   UNL     1     -14.554 -14.918   6.013  0.00  0.00    +0.000 HD
ATOM     10  H   UNL     1     -13.032 -14.674   5.133  0.00  0.00    +0.000 HD
ENDBRANCH   4   7
ENDBRANCH   1   4
BRANCH   1  12
ATOM     11  O   UNL     1     -15.428 -15.756   1.235  0.00  0.00    +0.000 OA
ATOM     12  C   UNL     1     -16.273 -15.775   2.119  0.00  0.00    +0.000 C 
BRANCH  12  13
ATOM     13  O   UNL     1     -17.586 -16.116   1.964  0.00  0.00    +0.000 OA
BRANCH  13  14
ATOM     14  C   UNL     1     -17.893 -16.869   0.786  0.00  0.00    +0.000 C 
ATOM     15  H   UNL     1     -17.724 -16.260  -0.107  0.00  0.00    +0.000 HD
ATOM     16  H   UNL     1     -18.949 -17.148   0.826  0.00  0.00    +0.000 HD
ATOM     17  H   UNL     1     -17.290 -17.781   0.753  0.00  0.00    +0.000 HD
ENDBRANCH  13  14
ENDBRANCH  12  13
ENDBRANCH   1  12
TORSDOF 5
ENDMDL
MODEL 7
REMARK VINA RESULT:    -3.030     24.530     25.441
REMARK INTER + INTRA:          -3.861
REMARK INTER:                  -3.786
REMARK INTRA:                  -0.074
REMARK UNBOUND:                -0.122
REMARK  Name = 12180
REMARK  5 active torsions:
REMARK  status: ('A' for Active; 'I' for Inactive)
REMARK    1  A    between atoms: O_1  and  C_6
REMARK    2  A    between atoms: O_1  and  C_7
REMARK    3  A    between atoms: C_3  and  C_4
REMARK    4  A    between atoms: C_3  and  C_5
REMARK    5  A    between atoms: C_4  and  C_6
REMARK                            x       y       z     vdW  Elec       q    Type
REMARK                         _______ _______ _______ _____ _____    ______ ____
ROOT
ATOM      1  C   UNL     1       1.277   2.493 -20.968  0.00  0.00    +0.000 C 
ATOM      2  H   UNL     1       0.892   1.567 -21.409  0.00  0.00    +0.000 HD
ATOM      3  H   UNL     1       1.528   3.194 -21.771  0.00  0.00    +0.000 HD
ENDROOT
BRANCH   1   4
ATOM      4  C   UNL     1       2.523   2.192 -20.139  0.00  0.00    +0.000 C 
ATOM      5  H   UNL     1       2.286   2.258 -19.070  0.00  0.00    +0.000 HD
ATOM      6  H   UNL     1       2.856   1.163 -20.325  0.00  0.00    +0.000 HD
BRANCH   4   7
ATOM      7  C   UNL     1       3.655   3.151 -20.465  0.00  0.00    +0.000 C 
ATOM      8  H   UNL     1       3.279   3.999 -21.045  0.00  0.00    +0.000 HD
ATOM      9  H   UNL     1       4.113   3.542 -19.550  0.00  0.00    +0.000 HD
ATOM     10  H   UNL     1       4.433   2.654 -21.053  0.00  0.00    +0.000 HD
ENDBRANCH   4   7
ENDBRANCH   1   4
BRANCH   1  12
ATOM     11  O   UNL     1       0.346   3.791 -19.133  0.00  0.00    +0.000 OA
ATOM     12  C   UNL     1       0.175   3.107 -20.133  0.00  0.00    +0.000 C 
BRANCH  12  13
ATOM     13  O   UNL     1      -1.031   2.774 -20.679  0.00  0.00    +0.000 OA
BRANCH  13  14
ATOM     14  C   UNL     1      -0.974   2.139 -21.961  0.00  0.00    +0.000 C 
ATOM     15  H   UNL     1      -0.712   2.870 -22.733  0.00  0.00    +0.000 HD
ATOM     16  H   UNL     1      -1.964   1.733 -22.184  0.00  0.00    +0.000 HD
ATOM     17  H   UNL     1      -0.252   1.318 -21.944  0.00  0.00    +0.000 HD
ENDBRANCH  13  14
ENDBRANCH  12  13
ENDBRANCH   1  12
TORSDOF 5
ENDMDL
MODEL 8
REMARK VINA RESULT:    -2.954     37.019     38.169
REMARK INTER + INTRA:          -3.767
REMARK INTER:                  -3.673
REMARK INTRA:                  -0.094
REMARK UNBOUND:                -0.122
REMARK  Name = 12180
REMARK  5 active torsions:
REMARK  status: ('A' for Active; 'I' for Inactive)
REMARK    1  A    between atoms: O_1  and  C_6
REMARK    2  A    between atoms: O_1  and  C_7
REMARK    3  A    between atoms: C_3  and  C_4
REMARK    4  A    between atoms: C_3  and  C_5
REMARK    5  A    between atoms: C_4  and  C_6
REMARK                            x       y       z     vdW  Elec       q    Type
REMARK                         _______ _______ _______ _____ _____    ______ ____
ROOT
ATOM      1  C   UNL     1      -3.511   5.124  26.151  0.00  0.00    +0.000 C 
ATOM      2  H   UNL     1      -3.729   6.197  26.102  0.00  0.00    +0.000 HD
ATOM      3  H   UNL     1      -2.435   4.986  26.303  0.00  0.00    +0.000 HD
ENDROOT
BRANCH   1   4
ATOM      4  C   UNL     1      -3.937   4.449  24.850  0.00  0.00    +0.000 C 
ATOM      5  H   UNL     1      -3.370   4.867  24.009  0.00  0.00    +0.000 HD
ATOM      6  H   UNL     1      -3.701   3.378  24.889  0.00  0.00    +0.000 HD
BRANCH   4   7
ATOM      7  C   UNL     1      -5.424   4.624  24.592  0.00  0.00    +0.000 C 
ATOM      8  H   UNL     1      -5.835   5.397  25.248  0.00  0.00    +0.000 HD
ATOM      9  H   UNL     1      -5.609   4.926  23.555  0.00  0.00    +0.000 HD
ATOM     10  H   UNL     1      -5.967   3.693  24.781  0.00  0.00    +0.000 HD
ENDBRANCH   4   7
ENDBRANCH   1   4
BRANCH   1  12
ATOM     11  O   UNL     1      -5.013   5.171  28.064  0.00  0.00    +0.000 OA
ATOM     12  C   UNL     1      -4.234   4.553  27.349  0.00  0.00    +0.000 C 
BRANCH  12  13
ATOM     13  O   UNL     1      -3.878   3.243  27.499  0.00  0.00    +0.000 OA
BRANCH  13  14
ATOM     14  C   UNL     1      -4.591   2.522  28.509  0.00  0.00    +0.000 C 
ATOM     15  H   UNL     1      -4.123   1.547  28.679  0.00  0.00    +0.000 HD
ATOM     16  H   UNL     1      -5.613   2.363  28.156  0.00  0.00    +0.000 HD
ATOM     17  H   UNL     1      -4.625   3.102  29.436  0.00  0.00    +0.000 HD
ENDBRANCH  13  14
ENDBRANCH  12  13
ENDBRANCH   1  12
TORSDOF 5
ENDMDL
MODEL 9
REMARK VINA RESULT:    -2.882     23.805     24.495
REMARK INTER + INTRA:          -3.678
REMARK INTER:                  -3.584
REMARK INTRA:                  -0.093
REMARK UNBOUND:                -0.122
REMARK  Name = 12180
REMARK  5 active torsions:
REMARK  status: ('A' for Active; 'I' for Inactive)
REMARK    1  A    between atoms: O_1  and  C_6
REMARK    2  A    between atoms: O_1  and  C_7
REMARK    3  A    between atoms: C_3  and  C_4
REMARK    4  A    between atoms: C_3  and  C_5
REMARK    5  A    between atoms: C_4  and  C_6
REMARK                            x       y       z     vdW  Elec       q    Type
REMARK                         _______ _______ _______ _____ _____    ______ ____
ROOT
ATOM      1  C   UNL     1      13.863  16.379 -12.338  0.00  0.00    +0.000 C 
ATOM      2  H   UNL     1      13.415  16.505 -13.331  0.00  0.00    +0.000 HD
ATOM      3  H   UNL     1      14.146  15.329 -12.205  0.00  0.00    +0.000 HD
ENDROOT
BRANCH   1   4
ATOM      4  C   UNL     1      12.858  16.780 -11.263  0.00  0.00    +0.000 C 
ATOM      5  H   UNL     1      12.150  15.961 -11.087  0.00  0.00    +0.000 HD
ATOM      6  H   UNL     1      13.377  16.958 -10.312  0.00  0.00    +0.000 HD
BRANCH   4   7
ATOM      7  C   UNL     1      12.091  18.032 -11.655  0.00  0.00    +0.000 C 
ATOM      8  H   UNL     1      11.076  17.998 -11.249  0.00  0.00    +0.000 HD
ATOM      9  H   UNL     1      12.582  18.931 -11.267  0.00  0.00    +0.000 HD
ATOM     10  H   UNL     1      12.019  18.123 -12.744  0.00  0.00    +0.000 HD
ENDBRANCH   4   7
ENDBRANCH   1   4
BRANCH   1  12
ATOM     11  O   UNL     1      15.729  17.642 -13.255  0.00  0.00    +0.000 OA
ATOM     12  C   UNL     1      15.120  17.218 -12.282  0.00  0.00    +0.000 C 
BRANCH  12  13
ATOM     13  O   UNL     1      15.456  17.423 -10.975  0.00  0.00    +0.000 OA
BRANCH  13  14
ATOM     14  C   UNL     1      15.888  18.749 -10.650  0.00  0.00    +0.000 C 
ATOM     15  H   UNL     1      16.658  19.079 -11.354  0.00  0.00    +0.000 HD
ATOM     16  H   UNL     1      16.318  18.730  -9.645  0.00  0.00    +0.000 HD
ATOM     17  H   UNL     1      15.037  19.436 -10.656  0.00  0.00    +0.000 HD
ENDBRANCH  13  14
ENDBRANCH  12  13
ENDBRANCH   1  12
TORSDOF 5
ENDMDL
MODEL 10
REMARK VINA RESULT:    -2.806     24.573     25.351
REMARK INTER + INTRA:          -3.583
REMARK INTER:                  -3.462
REMARK INTRA:                  -0.122
REMARK UNBOUND:                -0.122
REMARK  Name = 12180
REMARK  5 active torsions:
REMARK  status: ('A' for Active; 'I' for Inactive)
REMARK    1  A    between atoms: O_1  and  C_6
REMARK    2  A    between atoms: O_1  and  C_7
REMARK    3  A    between atoms: C_3  and  C_4
REMARK    4  A    between atoms: C_3  and  C_5
REMARK    5  A    between atoms: C_4  and  C_6
REMARK                            x       y       z     vdW  Elec       q    Type
REMARK                         _______ _______ _______ _____ _____    ______ ____
ROOT
ATOM      1  C   UNL     1       0.592   5.203 -20.582  0.00  0.00    +0.000 C 
ATOM      2  H   UNL     1       1.167   5.312 -21.508  0.00  0.00    +0.000 HD
ATOM      3  H   UNL     1      -0.469   5.372 -20.799  0.00  0.00    +0.000 HD
ENDROOT
BRANCH   1   4
ATOM      4  C   UNL     1       1.074   6.221 -19.552  0.00  0.00    +0.000 C 
ATOM      5  H   UNL     1       0.682   7.215 -19.796  0.00  0.00    +0.000 HD
ATOM      6  H   UNL     1       0.684   5.962 -18.559  0.00  0.00    +0.000 HD
BRANCH   4   7
ATOM      7  C   UNL     1       2.591   6.279 -19.493  0.00  0.00    +0.000 C 
ATOM      8  H   UNL     1       2.915   7.100 -18.847  0.00  0.00    +0.000 HD
ATOM      9  H   UNL     1       3.004   5.348 -19.091  0.00  0.00    +0.000 HD
ATOM     10  H   UNL     1       3.016   6.441 -20.488  0.00  0.00    +0.000 HD
ENDBRANCH   4   7
ENDBRANCH   1   4
BRANCH   1  12
ATOM     11  O   UNL     1       0.214   3.310 -19.102  0.00  0.00    +0.000 OA
ATOM     12  C   UNL     1       0.754   3.781 -20.094  0.00  0.00    +0.000 C 
BRANCH  12  13
ATOM     13  O   UNL     1       1.595   3.116 -20.940  0.00  0.00    +0.000 OA
BRANCH  13  14
ATOM     14  C   UNL     1       2.697   2.450 -20.316  0.00  0.00    +0.000 C 
ATOM     15  H   UNL     1       3.570   3.110 -20.285  0.00  0.00    +0.000 HD
ATOM     16  H   UNL     1       2.944   1.569 -20.913  0.00  0.00    +0.000 HD
ATOM     17  H   UNL     1       2.421   2.125 -19.308  0.00  0.00    +0.000 HD
ENDBRANCH  13  14
ENDBRANCH  12  13
ENDBRANCH   1  12
TORSDOF 5
ENDMDL
