MODEL 1
REMARK VINA RESULT:    -4.661      0.000      0.000
REMARK INTER + INTRA:          -6.049
REMARK INTER:                  -5.861
REMARK INTRA:                  -0.188
REMARK UNBOUND:                -0.161
REMARK  Name = 82336
REMARK  6 active torsions:
REMARK  status: ('A' for Active; 'I' for Inactive)
REMARK    1  A    between atoms: O_1  and  C_12
REMARK    2  A    between atoms: O_1  and  C_13
REMARK    3  A    between atoms: N_3  and  C_4
REMARK    4  A    between atoms: N_3  and  C_8
REMARK    5  A    between atoms: N_3  and  C_9
REMARK    6  A    between atoms: C_5  and  C_12
REMARK                            x       y       z     vdW  Elec       q    Type
REMARK                         _______ _______ _______ _____ _____    ______ ____
ROOT
ATOM      1  C   UNL     1      -4.023   4.663  27.185  0.00  0.00    +0.000 A 
ATOM      2  C   UNL     1      -5.405   4.724  27.005  0.00  0.00    +0.000 A 
ATOM      3  C   UNL     1      -3.174   4.657  26.078  0.00  0.00    +0.000 A 
ATOM      4  C   UNL     1      -5.938   4.778  25.717  0.00  0.00    +0.000 A 
ATOM      5  C   UNL     1      -3.708   4.711  24.791  0.00  0.00    +0.000 A 
ATOM      6  C   UNL     1      -5.090   4.771  24.611  0.00  0.00    +0.000 A 
ATOM      7  H   UNL     1      -2.096   4.604  26.199  0.00  0.00    +0.000 HD
ATOM      8  H   UNL     1      -7.013   4.826  25.564  0.00  0.00    +0.000 HD
ATOM      9  H   UNL     1      -3.047   4.703  23.928  0.00  0.00    +0.000 HD
ATOM     10  H   UNL     1      -5.505   4.813  23.607  0.00  0.00    +0.000 HD
ENDROOT
BRANCH   2  12
ATOM     11  O   UNL     1      -6.628   3.730  28.795  0.00  0.00    +0.000 OA
ATOM     12  C   UNL     1      -6.317   4.733  28.141  0.00  0.00    +0.000 C 
BRANCH  12  13
ATOM     13  O   UNL     1      -6.788   5.992  28.395  0.00  0.00    +0.000 OA
BRANCH  13  14
ATOM     14  C   UNL     1      -6.755   6.429  29.757  0.00  0.00    +0.000 C 
ATOM     15  H   UNL     1      -5.741   6.734  30.030  0.00  0.00    +0.000 HD
ATOM     16  H   UNL     1      -7.110   5.632  30.419  0.00  0.00    +0.000 HD
ATOM     17  H   UNL     1      -7.421   7.291  29.855  0.00  0.00    +0.000 HD
ENDBRANCH  13  14
ENDBRANCH  12  13
ENDBRANCH   2  12
BRANCH   1  18
ATOM     18  N   UNL     1      -3.462   4.609  28.481  0.00  0.00    +0.000 N 
BRANCH  18  19
ATOM     19  C   UNL     1      -3.162   3.332  29.095  0.00  0.00    +0.000 C 
ATOM     20  H   UNL     1      -3.532   3.297  30.126  0.00  0.00    +0.000 HD
ATOM     21  H   UNL     1      -2.082   3.150  29.105  0.00  0.00    +0.000 HD
ATOM     22  H   UNL     1      -3.635   2.509  28.550  0.00  0.00    +0.000 HD
ENDBRANCH  18  19
BRANCH  18  23
ATOM     23  C   UNL     1      -3.168   5.829  29.203  0.00  0.00    +0.000 C 
ATOM     24  H   UNL     1      -3.140   5.632  30.281  0.00  0.00    +0.000 HD
ATOM     25  H   UNL     1      -3.929   6.601  29.041  0.00  0.00    +0.000 HD
ATOM     26  H   UNL     1      -2.189   6.225  28.914  0.00  0.00    +0.000 HD
ENDBRANCH  18  23
ENDBRANCH   1  18
TORSDOF 6
ENDMDL
MODEL 2
REMARK VINA RESULT:    -4.487     47.281     48.388
REMARK INTER + INTRA:          -5.829
REMARK INTER:                  -5.628
REMARK INTRA:                  -0.201
REMARK UNBOUND:                -0.161
REMARK  Name = 82336
REMARK  6 active torsions:
REMARK  status: ('A' for Active; 'I' for Inactive)
REMARK    1  A    between atoms: O_1  and  C_12
REMARK    2  A    between atoms: O_1  and  C_13
REMARK    3  A    between atoms: N_3  and  C_4
REMARK    4  A    between atoms: N_3  and  C_8
REMARK    5  A    between atoms: N_3  and  C_9
REMARK    6  A    between atoms: C_5  and  C_12
REMARK                            x       y       z     vdW  Elec       q    Type
REMARK                         _______ _______ _______ _____ _____    ______ ____
ROOT
ATOM      1  C   UNL     1       2.866   5.590 -19.951  0.00  0.00    +0.000 A 
ATOM      2  C   UNL     1       3.045   4.258 -20.325  0.00  0.00    +0.000 A 
ATOM      3  C   UNL     1       3.903   6.287 -19.332  0.00  0.00    +0.000 A 
ATOM      4  C   UNL     1       4.262   3.623 -20.078  0.00  0.00    +0.000 A 
ATOM      5  C   UNL     1       5.120   5.651 -19.085  0.00  0.00    +0.000 A 
ATOM      6  C   UNL     1       5.299   4.319 -19.458  0.00  0.00    +0.000 A 
ATOM      7  H   UNL     1       3.780   7.323 -19.028  0.00  0.00    +0.000 HD
ATOM      8  H   UNL     1       4.414   2.585 -20.365  0.00  0.00    +0.000 HD
ATOM      9  H   UNL     1       5.928   6.192 -18.600  0.00  0.00    +0.000 HD
ATOM     10  H   UNL     1       6.247   3.824 -19.266  0.00  0.00    +0.000 HD
ENDROOT
BRANCH   2  12
ATOM     11  O   UNL     1       1.857   3.386 -22.200  0.00  0.00    +0.000 OA
ATOM     12  C   UNL     1       1.981   3.504 -20.975  0.00  0.00    +0.000 C 
BRANCH  12  13
ATOM     13  O   UNL     1       1.136   2.940 -20.059  0.00  0.00    +0.000 OA
BRANCH  13  14
ATOM     14  C   UNL     1      -0.260   2.963 -20.371  0.00  0.00    +0.000 C 
ATOM     15  H   UNL     1      -0.453   2.373 -21.272  0.00  0.00    +0.000 HD
ATOM     16  H   UNL     1      -0.601   3.994 -20.504  0.00  0.00    +0.000 HD
ATOM     17  H   UNL     1      -0.804   2.516 -19.535  0.00  0.00    +0.000 HD
ENDBRANCH  13  14
ENDBRANCH  12  13
ENDBRANCH   2  12
BRANCH   1  18
ATOM     18  N   UNL     1       1.641   6.253 -20.192  0.00  0.00    +0.000 N 
BRANCH  18  19
ATOM     19  C   UNL     1       1.355   6.809 -21.498  0.00  0.00    +0.000 C 
ATOM     20  H   UNL     1       2.278   7.094 -22.014  0.00  0.00    +0.000 HD
ATOM     21  H   UNL     1       0.715   7.694 -21.412  0.00  0.00    +0.000 HD
ATOM     22  H   UNL     1       0.837   6.083 -22.134  0.00  0.00    +0.000 HD
ENDBRANCH  18  19
BRANCH  18  23
ATOM     23  C   UNL     1       0.654   6.371 -19.140  0.00  0.00    +0.000 C 
ATOM     24  H   UNL     1      -0.221   5.753 -19.372  0.00  0.00    +0.000 HD
ATOM     25  H   UNL     1       0.294   7.399 -19.022  0.00  0.00    +0.000 HD
ATOM     26  H   UNL     1       1.061   6.021 -18.185  0.00  0.00    +0.000 HD
ENDBRANCH  18  23
ENDBRANCH   1  18
TORSDOF 6
ENDMDL
MODEL 3
REMARK VINA RESULT:    -4.468     46.347     48.148
REMARK INTER + INTRA:          -5.805
REMARK INTER:                  -5.631
REMARK INTRA:                  -0.174
REMARK UNBOUND:                -0.161
REMARK  Name = 82336
REMARK  6 active torsions:
REMARK  status: ('A' for Active; 'I' for Inactive)
REMARK    1  A    between atoms: O_1  and  C_12
REMARK    2  A    between atoms: O_1  and  C_13
REMARK    3  A    between atoms: N_3  and  C_4
REMARK    4  A    between atoms: N_3  and  C_8
REMARK    5  A    between atoms: N_3  and  C_9
REMARK    6  A    between atoms: C_5  and  C_12
REMARK                            x       y       z     vdW  Elec       q    Type
REMARK                         _______ _______ _______ _____ _____    ______ ____
ROOT
ATOM      1  C   UNL     1       3.058   4.355 -20.374  0.00  0.00    +0.000 A 
ATOM      2  C   UNL     1       2.813   5.610 -19.817  0.00  0.00    +0.000 A 
ATOM      3  C   UNL     1       4.316   3.767 -20.243  0.00  0.00    +0.000 A 
ATOM      4  C   UNL     1       3.825   6.277 -19.128  0.00  0.00    +0.000 A 
ATOM      5  C   UNL     1       5.329   4.435 -19.554  0.00  0.00    +0.000 A 
ATOM      6  C   UNL     1       5.084   5.690 -18.998  0.00  0.00    +0.000 A 
ATOM      7  H   UNL     1       4.528   2.793 -20.676  0.00  0.00    +0.000 HD
ATOM      8  H   UNL     1       3.646   7.256 -18.690  0.00  0.00    +0.000 HD
ATOM      9  H   UNL     1       6.310   3.978 -19.454  0.00  0.00    +0.000 HD
ATOM     10  H   UNL     1       5.873   6.210 -18.461  0.00  0.00    +0.000 HD
ENDROOT
BRANCH   2  12
ATOM     11  O   UNL     1       1.191   7.021 -20.850  0.00  0.00    +0.000 OA
ATOM     12  C   UNL     1       1.509   6.250 -19.936  0.00  0.00    +0.000 C 
BRANCH  12  13
ATOM     13  O   UNL     1       0.679   5.891 -18.911  0.00  0.00    +0.000 OA
BRANCH  13  14
ATOM     14  C   UNL     1       0.168   6.949 -18.094  0.00  0.00    +0.000 C 
ATOM     15  H   UNL     1       0.982   7.609 -17.781  0.00  0.00    +0.000 HD
ATOM     16  H   UNL     1      -0.351   6.537 -17.223  0.00  0.00    +0.000 HD
ATOM     17  H   UNL     1      -0.544   7.526 -18.689  0.00  0.00    +0.000 HD
ENDBRANCH  13  14
ENDBRANCH  12  13
ENDBRANCH   2  12
BRANCH   1  18
ATOM     18  N   UNL     1       2.046   3.662 -21.076  0.00  0.00    +0.000 N 
BRANCH  18  19
ATOM     19  C   UNL     1       1.180   2.732 -20.381  0.00  0.00    +0.000 C 
ATOM     20  H   UNL     1       1.591   1.717 -20.411  0.00  0.00    +0.000 HD
ATOM     21  H   UNL     1       0.182   2.720 -20.833  0.00  0.00    +0.000 HD
ATOM     22  H   UNL     1       1.066   3.008 -19.328  0.00  0.00    +0.000 HD
ENDBRANCH  18  19
BRANCH  18  23
ATOM     23  C   UNL     1       1.855   3.884 -22.494  0.00  0.00    +0.000 C 
ATOM     24  H   UNL     1       1.704   4.951 -22.691  0.00  0.00    +0.000 HD
ATOM     25  H   UNL     1       0.973   3.362 -22.881  0.00  0.00    +0.000 HD
ATOM     26  H   UNL     1       2.737   3.566 -23.059  0.00  0.00    +0.000 HD
ENDBRANCH  18  23
ENDBRANCH   1  18
TORSDOF 6
ENDMDL
MODEL 4
REMARK VINA RESULT:    -4.412     28.996     30.679
REMARK INTER + INTRA:          -5.734
REMARK INTER:                  -5.502
REMARK INTRA:                  -0.232
REMARK UNBOUND:                -0.161
REMARK  Name = 82336
REMARK  6 active torsions:
REMARK  status: ('A' for Active; 'I' for Inactive)
REMARK    1  A    between atoms: O_1  and  C_12
REMARK    2  A    between atoms: O_1  and  C_13
REMARK    3  A    between atoms: N_3  and  C_4
REMARK    4  A    between atoms: N_3  and  C_8
REMARK    5  A    between atoms: N_3  and  C_9
REMARK    6  A    between atoms: C_5  and  C_12
REMARK                            x       y       z     vdW  Elec       q    Type
REMARK                         _______ _______ _______ _____ _____    ______ ____
ROOT
ATOM      1  C   UNL     1      -6.538 -15.255   4.700  0.00  0.00    +0.000 A 
ATOM      2  C   UNL     1      -6.961 -13.960   4.400  0.00  0.00    +0.000 A 
ATOM      3  C   UNL     1      -6.916 -15.852   5.902  0.00  0.00    +0.000 A 
ATOM      4  C   UNL     1      -7.761 -13.261   5.303  0.00  0.00    +0.000 A 
ATOM      5  C   UNL     1      -7.716 -15.153   6.806  0.00  0.00    +0.000 A 
ATOM      6  C   UNL     1      -8.138 -13.857   6.506  0.00  0.00    +0.000 A 
ATOM      7  H   UNL     1      -6.591 -16.857   6.156  0.00  0.00    +0.000 HD
ATOM      8  H   UNL     1      -8.097 -12.251   5.081  0.00  0.00    +0.000 HD
ATOM      9  H   UNL     1      -8.009 -15.616   7.744  0.00  0.00    +0.000 HD
ATOM     10  H   UNL     1      -8.762 -13.313   7.210  0.00  0.00    +0.000 HD
ENDROOT
BRANCH   2  12
ATOM     11  O   UNL     1      -5.560 -12.631   2.999  0.00  0.00    +0.000 OA
ATOM     12  C   UNL     1      -6.584 -13.309   3.152  0.00  0.00    +0.000 C 
BRANCH  12  13
ATOM     13  O   UNL     1      -7.503 -13.544   2.167  0.00  0.00    +0.000 OA
BRANCH  13  14
ATOM     14  C   UNL     1      -7.011 -13.600   0.825  0.00  0.00    +0.000 C 
ATOM     15  H   UNL     1      -5.938 -13.388   0.809  0.00  0.00    +0.000 HD
ATOM     16  H   UNL     1      -7.554 -12.890   0.193  0.00  0.00    +0.000 HD
ATOM     17  H   UNL     1      -7.176 -14.610   0.442  0.00  0.00    +0.000 HD
ENDBRANCH  13  14
ENDBRANCH  12  13
ENDBRANCH   2  12
BRANCH   1  18
ATOM     18  N   UNL     1      -5.727 -15.980   3.798  0.00  0.00    +0.000 N 
BRANCH  18  19
ATOM     19  C   UNL     1      -4.284 -15.871   3.860  0.00  0.00    +0.000 C 
ATOM     20  H   UNL     1      -3.921 -16.063   4.876  0.00  0.00    +0.000 HD
ATOM     21  H   UNL     1      -3.957 -14.872   3.554  0.00  0.00    +0.000 HD
ATOM     22  H   UNL     1      -3.802 -16.598   3.198  0.00  0.00    +0.000 HD
ENDBRANCH  18  19
BRANCH  18  23
ATOM     23  C   UNL     1      -6.329 -16.852   2.810  0.00  0.00    +0.000 C 
ATOM     24  H   UNL     1      -6.801 -17.709   3.302  0.00  0.00    +0.000 HD
ATOM     25  H   UNL     1      -5.592 -17.255   2.108  0.00  0.00    +0.000 HD
ATOM     26  H   UNL     1      -7.107 -16.323   2.250  0.00  0.00    +0.000 HD
ENDBRANCH  18  23
ENDBRANCH   1  18
TORSDOF 6
ENDMDL
MODEL 5
REMARK VINA RESULT:    -4.408     43.816     45.446
REMARK INTER + INTRA:          -5.729
REMARK INTER:                  -5.501
REMARK INTRA:                  -0.228
REMARK UNBOUND:                -0.161
REMARK  Name = 82336
REMARK  6 active torsions:
REMARK  status: ('A' for Active; 'I' for Inactive)
REMARK    1  A    between atoms: O_1  and  C_12
REMARK    2  A    between atoms: O_1  and  C_13
REMARK    3  A    between atoms: N_3  and  C_4
REMARK    4  A    between atoms: N_3  and  C_8
REMARK    5  A    between atoms: N_3  and  C_9
REMARK    6  A    between atoms: C_5  and  C_12
REMARK                            x       y       z     vdW  Elec       q    Type
REMARK                         _______ _______ _______ _____ _____    ______ ____
ROOT
ATOM      1  C   UNL     1      13.346  19.170 -12.406  0.00  0.00    +0.000 A 
ATOM      2  C   UNL     1      12.345  18.463 -11.740  0.00  0.00    +0.000 A 
ATOM      3  C   UNL     1      14.516  18.521 -12.798  0.00  0.00    +0.000 A 
ATOM      4  C   UNL     1      12.514  17.106 -11.466  0.00  0.00    +0.000 A 
ATOM      5  C   UNL     1      14.685  17.164 -12.524  0.00  0.00    +0.000 A 
ATOM      6  C   UNL     1      13.684  16.457 -11.857  0.00  0.00    +0.000 A 
ATOM      7  H   UNL     1      15.309  19.057 -13.312  0.00  0.00    +0.000 HD
ATOM      8  H   UNL     1      11.741  16.544 -10.947  0.00  0.00    +0.000 HD
ATOM      9  H   UNL     1      15.598  16.658 -12.828  0.00  0.00    +0.000 HD
ATOM     10  H   UNL     1      13.817  15.400 -11.644  0.00  0.00    +0.000 HD
ENDROOT
BRANCH   2  12
ATOM     11  O   UNL     1      10.095  19.205 -12.018  0.00  0.00    +0.000 OA
ATOM     12  C   UNL     1      11.111  19.113 -11.318  0.00  0.00    +0.000 C 
BRANCH  12  13
ATOM     13  O   UNL     1      11.215  19.607 -10.047  0.00  0.00    +0.000 OA
BRANCH  13  14
ATOM     14  C   UNL     1      10.685  20.917  -9.819  0.00  0.00    +0.000 C 
ATOM     15  H   UNL     1      11.065  21.317  -8.875  0.00  0.00    +0.000 HD
ATOM     16  H   UNL     1       9.591  20.887  -9.814  0.00  0.00    +0.000 HD
ATOM     17  H   UNL     1      11.016  21.565 -10.635  0.00  0.00    +0.000 HD
ENDBRANCH  13  14
ENDBRANCH  12  13
ENDBRANCH   2  12
BRANCH   1  18
ATOM     18  N   UNL     1      13.194  20.546 -12.693  0.00  0.00    +0.000 N 
BRANCH  18  19
ATOM     19  C   UNL     1      13.729  21.545 -11.792  0.00  0.00    +0.000 C 
ATOM     20  H   UNL     1      14.730  21.860 -12.107  0.00  0.00    +0.000 HD
ATOM     21  H   UNL     1      13.789  21.155 -10.771  0.00  0.00    +0.000 HD
ATOM     22  H   UNL     1      13.097  22.439 -11.772  0.00  0.00    +0.000 HD
ENDBRANCH  18  19
BRANCH  18  23
ATOM     23  C   UNL     1      12.514  20.970 -13.899  0.00  0.00    +0.000 C 
ATOM     24  H   UNL     1      12.100  21.976 -13.765  0.00  0.00    +0.000 HD
ATOM     25  H   UNL     1      11.675  20.313 -14.156  0.00  0.00    +0.000 HD
ATOM     26  H   UNL     1      13.210  21.009 -14.744  0.00  0.00    +0.000 HD
ENDBRANCH  18  23
ENDBRANCH   1  18
TORSDOF 6
ENDMDL
MODEL 6
REMARK VINA RESULT:    -4.339     47.653     49.263
REMARK INTER + INTRA:          -5.642
REMARK INTER:                  -5.408
REMARK INTRA:                  -0.234
REMARK UNBOUND:                -0.161
REMARK  Name = 82336
REMARK  6 active torsions:
REMARK  status: ('A' for Active; 'I' for Inactive)
REMARK    1  A    between atoms: O_1  and  C_12
REMARK    2  A    between atoms: O_1  and  C_13
REMARK    3  A    between atoms: N_3  and  C_4
REMARK    4  A    between atoms: N_3  and  C_8
REMARK    5  A    between atoms: N_3  and  C_9
REMARK    6  A    between atoms: C_5  and  C_12
REMARK                            x       y       z     vdW  Elec       q    Type
REMARK                         _______ _______ _______ _____ _____    ______ ____
ROOT
ATOM      1  C   UNL     1       2.209   4.773 -21.305  0.00  0.00    +0.000 A 
ATOM      2  C   UNL     1       0.911   5.053 -20.880  0.00  0.00    +0.000 A 
ATOM      3  C   UNL     1       3.299   5.324 -20.631  0.00  0.00    +0.000 A 
ATOM      4  C   UNL     1       0.701   5.885 -19.780  0.00  0.00    +0.000 A 
ATOM      5  C   UNL     1       3.089   6.156 -19.531  0.00  0.00    +0.000 A 
ATOM      6  C   UNL     1       1.790   6.437 -19.107  0.00  0.00    +0.000 A 
ATOM      7  H   UNL     1       4.317   5.122 -20.951  0.00  0.00    +0.000 HD
ATOM      8  H   UNL     1      -0.306   6.111 -19.440  0.00  0.00    +0.000 HD
ATOM      9  H   UNL     1       3.937   6.588 -19.007  0.00  0.00    +0.000 HD
ATOM     10  H   UNL     1       1.628   7.086 -18.250  0.00  0.00    +0.000 HD
ENDROOT
BRANCH   2  12
ATOM     11  O   UNL     1      -0.782   4.995 -22.558  0.00  0.00    +0.000 OA
ATOM     12  C   UNL     1      -0.248   4.492 -21.563  0.00  0.00    +0.000 C 
BRANCH  12  13
ATOM     13  O   UNL     1      -0.670   3.337 -20.965  0.00  0.00    +0.000 OA
BRANCH  13  14
ATOM     14  C   UNL     1      -1.170   2.310 -21.828  0.00  0.00    +0.000 C 
ATOM     15  H   UNL     1      -2.108   2.631 -22.290  0.00  0.00    +0.000 HD
ATOM     16  H   UNL     1      -1.313   1.381 -21.267  0.00  0.00    +0.000 HD
ATOM     17  H   UNL     1      -0.432   2.137 -22.615  0.00  0.00    +0.000 HD
ENDBRANCH  13  14
ENDBRANCH  12  13
ENDBRANCH   2  12
BRANCH   1  18
ATOM     18  N   UNL     1       2.443   3.932 -22.417  0.00  0.00    +0.000 N 
BRANCH  18  19
ATOM     19  C   UNL     1       2.550   4.492 -23.748  0.00  0.00    +0.000 C 
ATOM     20  H   UNL     1       1.985   3.893 -24.470  0.00  0.00    +0.000 HD
ATOM     21  H   UNL     1       3.596   4.532 -24.069  0.00  0.00    +0.000 HD
ATOM     22  H   UNL     1       2.151   5.510 -23.783  0.00  0.00    +0.000 HD
ENDBRANCH  18  19
BRANCH  18  23
ATOM     23  C   UNL     1       2.593   2.503 -22.234  0.00  0.00    +0.000 C 
ATOM     24  H   UNL     1       2.311   2.222 -21.214  0.00  0.00    +0.000 HD
ATOM     25  H   UNL     1       3.627   2.172 -22.381  0.00  0.00    +0.000 HD
ATOM     26  H   UNL     1       1.939   1.955 -22.921  0.00  0.00    +0.000 HD
ENDBRANCH  18  23
ENDBRANCH   1  18
TORSDOF 6
ENDMDL
MODEL 7
REMARK VINA RESULT:    -4.301     48.605     49.761
REMARK INTER + INTRA:          -5.594
REMARK INTER:                  -5.366
REMARK INTRA:                  -0.228
REMARK UNBOUND:                -0.161
REMARK  Name = 82336
REMARK  6 active torsions:
REMARK  status: ('A' for Active; 'I' for Inactive)
REMARK    1  A    between atoms: O_1  and  C_12
REMARK    2  A    between atoms: O_1  and  C_13
REMARK    3  A    between atoms: N_3  and  C_4
REMARK    4  A    between atoms: N_3  and  C_8
REMARK    5  A    between atoms: N_3  and  C_9
REMARK    6  A    between atoms: C_5  and  C_12
REMARK                            x       y       z     vdW  Elec       q    Type
REMARK                         _______ _______ _______ _____ _____    ______ ____
ROOT
ATOM      1  C   UNL     1       2.125   4.963 -21.682  0.00  0.00    +0.000 A 
ATOM      2  C   UNL     1       2.559   3.679 -21.354  0.00  0.00    +0.000 A 
ATOM      3  C   UNL     1       2.751   6.076 -21.121  0.00  0.00    +0.000 A 
ATOM      4  C   UNL     1       3.619   3.508 -20.463  0.00  0.00    +0.000 A 
ATOM      5  C   UNL     1       3.810   5.905 -20.231  0.00  0.00    +0.000 A 
ATOM      6  C   UNL     1       4.244   4.620 -19.902  0.00  0.00    +0.000 A 
ATOM      7  H   UNL     1       2.422   7.084 -21.360  0.00  0.00    +0.000 HD
ATOM      8  H   UNL     1       3.967   2.512 -20.200  0.00  0.00    +0.000 HD
ATOM      9  H   UNL     1       4.297   6.771 -19.792  0.00  0.00    +0.000 HD
ATOM     10  H   UNL     1       5.070   4.487 -19.208  0.00  0.00    +0.000 HD
ENDROOT
BRANCH   2  12
ATOM     11  O   UNL     1       2.315   1.922 -22.948  0.00  0.00    +0.000 OA
ATOM     12  C   UNL     1       1.927   2.496 -21.923  0.00  0.00    +0.000 C 
BRANCH  12  13
ATOM     13  O   UNL     1       0.850   2.098 -21.181  0.00  0.00    +0.000 OA
BRANCH  13  14
ATOM     14  C   UNL     1      -0.284   1.607 -21.902  0.00  0.00    +0.000 C 
ATOM     15  H   UNL     1      -0.939   1.040 -21.234  0.00  0.00    +0.000 HD
ATOM     16  H   UNL     1       0.042   0.985 -22.742  0.00  0.00    +0.000 HD
ATOM     17  H   UNL     1      -0.838   2.465 -22.293  0.00  0.00    +0.000 HD
ENDBRANCH  13  14
ENDBRANCH  12  13
ENDBRANCH   2  12
BRANCH   1  18
ATOM     18  N   UNL     1       1.053   5.158 -22.582  0.00  0.00    +0.000 N 
BRANCH  18  19
ATOM     19  C   UNL     1      -0.297   5.331 -22.086  0.00  0.00    +0.000 C 
ATOM     20  H   UNL     1      -0.336   5.189 -21.001  0.00  0.00    +0.000 HD
ATOM     21  H   UNL     1      -0.978   4.616 -22.558  0.00  0.00    +0.000 HD
ATOM     22  H   UNL     1      -0.671   6.338 -22.298  0.00  0.00    +0.000 HD
ENDBRANCH  18  19
BRANCH  18  23
ATOM     23  C   UNL     1       1.295   5.202 -24.009  0.00  0.00    +0.000 C 
ATOM     24  H   UNL     1       0.394   5.540 -24.534  0.00  0.00    +0.000 HD
ATOM     25  H   UNL     1       1.549   4.217 -24.417  0.00  0.00    +0.000 HD
ATOM     26  H   UNL     1       2.099   5.907 -24.245  0.00  0.00    +0.000 HD
ENDBRANCH  18  23
ENDBRANCH   1  18
TORSDOF 6
ENDMDL
MODEL 8
REMARK VINA RESULT:    -4.190     47.797     49.356
REMARK INTER + INTRA:          -5.454
REMARK INTER:                  -5.289
REMARK INTRA:                  -0.165
REMARK UNBOUND:                -0.161
REMARK  Name = 82336
REMARK  6 active torsions:
REMARK  status: ('A' for Active; 'I' for Inactive)
REMARK    1  A    between atoms: O_1  and  C_12
REMARK    2  A    between atoms: O_1  and  C_13
REMARK    3  A    between atoms: N_3  and  C_4
REMARK    4  A    between atoms: N_3  and  C_8
REMARK    5  A    between atoms: N_3  and  C_9
REMARK    6  A    between atoms: C_5  and  C_12
REMARK                            x       y       z     vdW  Elec       q    Type
REMARK                         _______ _______ _______ _____ _____    ______ ____
ROOT
ATOM      1  C   UNL     1       0.998   4.810 -20.688  0.00  0.00    +0.000 A 
ATOM      2  C   UNL     1       2.310   4.495 -21.040  0.00  0.00    +0.000 A 
ATOM      3  C   UNL     1       0.748   5.805 -19.744  0.00  0.00    +0.000 A 
ATOM      4  C   UNL     1       3.374   5.175 -20.447  0.00  0.00    +0.000 A 
ATOM      5  C   UNL     1       1.811   6.485 -19.151  0.00  0.00    +0.000 A 
ATOM      6  C   UNL     1       3.124   6.170 -19.502  0.00  0.00    +0.000 A 
ATOM      7  H   UNL     1      -0.267   6.060 -19.453  0.00  0.00    +0.000 HD
ATOM      8  H   UNL     1       4.401   4.939 -20.713  0.00  0.00    +0.000 HD
ATOM      9  H   UNL     1       1.618   7.259 -18.413  0.00  0.00    +0.000 HD
ATOM     10  H   UNL     1       3.952   6.700 -19.039  0.00  0.00    +0.000 HD
ENDROOT
BRANCH   2  12
ATOM     11  O   UNL     1       2.622   2.249 -21.778  0.00  0.00    +0.000 OA
ATOM     12  C   UNL     1       2.604   3.461 -22.024  0.00  0.00    +0.000 C 
BRANCH  12  13
ATOM     13  O   UNL     1       2.856   3.999 -23.256  0.00  0.00    +0.000 OA
BRANCH  13  14
ATOM     14  C   UNL     1       4.098   3.643 -23.872  0.00  0.00    +0.000 C 
ATOM     15  H   UNL     1       3.941   2.838 -24.596  0.00  0.00    +0.000 HD
ATOM     16  H   UNL     1       4.825   3.342 -23.112  0.00  0.00    +0.000 HD
ATOM     17  H   UNL     1       4.481   4.521 -24.400  0.00  0.00    +0.000 HD
ENDBRANCH  13  14
ENDBRANCH  12  13
ENDBRANCH   2  12
BRANCH   1  18
ATOM     18  N   UNL     1      -0.094   4.133 -21.278  0.00  0.00    +0.000 N 
BRANCH  18  19
ATOM     19  C   UNL     1      -0.665   4.609 -22.520  0.00  0.00    +0.000 C 
ATOM     20  H   UNL     1      -1.424   5.377 -22.333  0.00  0.00    +0.000 HD
ATOM     21  H   UNL     1      -1.129   3.786 -23.075  0.00  0.00    +0.000 HD
ATOM     22  H   UNL     1       0.100   5.055 -23.164  0.00  0.00    +0.000 HD
ENDBRANCH  18  19
BRANCH  18  23
ATOM     23  C   UNL     1      -0.643   2.948 -20.653  0.00  0.00    +0.000 C 
ATOM     24  H   UNL     1      -0.066   2.064 -20.947  0.00  0.00    +0.000 HD
ATOM     25  H   UNL     1      -1.681   2.763 -20.954  0.00  0.00    +0.000 HD
ATOM     26  H   UNL     1      -0.594   3.027 -19.562  0.00  0.00    +0.000 HD
ENDBRANCH  18  23
ENDBRANCH   1  18
TORSDOF 6
ENDMDL
MODEL 9
REMARK VINA RESULT:    -4.184     34.399     35.396
REMARK INTER + INTRA:          -5.446
REMARK INTER:                  -5.228
REMARK INTRA:                  -0.218
REMARK UNBOUND:                -0.161
REMARK  Name = 82336
REMARK  6 active torsions:
REMARK  status: ('A' for Active; 'I' for Inactive)
REMARK    1  A    between atoms: O_1  and  C_12
REMARK    2  A    between atoms: O_1  and  C_13
REMARK    3  A    between atoms: N_3  and  C_4
REMARK    4  A    between atoms: N_3  and  C_8
REMARK    5  A    between atoms: N_3  and  C_9
REMARK    6  A    between atoms: C_5  and  C_12
REMARK                            x       y       z     vdW  Elec       q    Type
REMARK                         _______ _______ _______ _____ _____    ______ ____
ROOT
ATOM      1  C   UNL     1     -15.188  -4.064  -4.565  0.00  0.00    +0.000 A 
ATOM      2  C   UNL     1     -14.534  -5.297  -4.557  0.00  0.00    +0.000 A 
ATOM      3  C   UNL     1     -16.349  -3.886  -3.813  0.00  0.00    +0.000 A 
ATOM      4  C   UNL     1     -15.042  -6.351  -3.799  0.00  0.00    +0.000 A 
ATOM      5  C   UNL     1     -16.857  -4.941  -3.054  0.00  0.00    +0.000 A 
ATOM      6  C   UNL     1     -16.203  -6.173  -3.048  0.00  0.00    +0.000 A 
ATOM      7  H   UNL     1     -16.876  -2.936  -3.811  0.00  0.00    +0.000 HD
ATOM      8  H   UNL     1     -14.541  -7.316  -3.785  0.00  0.00    +0.000 HD
ATOM      9  H   UNL     1     -17.763  -4.804  -2.471  0.00  0.00    +0.000 HD
ATOM     10  H   UNL     1     -16.599  -6.995  -2.457  0.00  0.00    +0.000 HD
ENDROOT
BRANCH   2  12
ATOM     11  O   UNL     1     -12.176  -5.279  -4.918  0.00  0.00    +0.000 OA
ATOM     12  C   UNL     1     -13.318  -5.514  -5.331  0.00  0.00    +0.000 C 
BRANCH  12  13
ATOM     13  O   UNL     1     -13.599  -6.013  -6.573  0.00  0.00    +0.000 OA
BRANCH  13  14
ATOM     14  C   UNL     1     -12.919  -5.409  -7.679  0.00  0.00    +0.000 C 
ATOM     15  H   UNL     1     -13.594  -4.733  -8.211  0.00  0.00    +0.000 HD
ATOM     16  H   UNL     1     -12.535  -6.181  -8.353  0.00  0.00    +0.000 HD
ATOM     17  H   UNL     1     -12.078  -4.831  -7.288  0.00  0.00    +0.000 HD
ENDBRANCH  13  14
ENDBRANCH  12  13
ENDBRANCH   2  12
BRANCH   1  18
ATOM     18  N   UNL     1     -14.690  -2.983  -5.326  0.00  0.00    +0.000 N 
BRANCH  18  19
ATOM     19  C   UNL     1     -15.220  -2.712  -6.646  0.00  0.00    +0.000 C 
ATOM     20  H   UNL     1     -15.421  -3.644  -7.186  0.00  0.00    +0.000 HD
ATOM     21  H   UNL     1     -14.515  -2.113  -7.232  0.00  0.00    +0.000 HD
ATOM     22  H   UNL     1     -16.162  -2.158  -6.589  0.00  0.00    +0.000 HD
ENDBRANCH  18  19
BRANCH  18  23
ATOM     23  C   UNL     1     -13.654  -2.126  -4.789  0.00  0.00    +0.000 C 
ATOM     24  H   UNL     1     -13.672  -1.152  -5.291  0.00  0.00    +0.000 HD
ATOM     25  H   UNL     1     -12.651  -2.542  -4.940  0.00  0.00    +0.000 HD
ATOM     26  H   UNL     1     -13.812  -1.950  -3.720  0.00  0.00    +0.000 HD
ENDBRANCH  18  23
ENDBRANCH   1  18
TORSDOF 6
ENDMDL
MODEL 10
REMARK VINA RESULT:    -4.072     48.295     50.077
REMARK INTER + INTRA:          -5.305
REMARK INTER:                  -5.143
REMARK INTRA:                  -0.161
REMARK UNBOUND:                -0.161
REMARK  Name = 82336
REMARK  6 active torsions:
REMARK  status: ('A' for Active; 'I' for Inactive)
REMARK    1  A    between atoms: O_1  and  C_12
REMARK    2  A    between atoms: O_1  and  C_13
REMARK    3  A    between atoms: N_3  and  C_4
REMARK    4  A    between atoms: N_3  and  C_8
REMARK    5  A    between atoms: N_3  and  C_9
REMARK    6  A    between atoms: C_5  and  C_12
REMARK                            x       y       z     vdW  Elec       q    Type
REMARK                         _______ _______ _______ _____ _____    ______ ____
ROOT
ATOM      1  C   UNL     1       2.681   4.913 -21.675  0.00  0.00    +0.000 A 
ATOM      2  C   UNL     1       1.633   3.993 -21.647  0.00  0.00    +0.000 A 
ATOM      3  C   UNL     1       2.793   5.875 -20.671  0.00  0.00    +0.000 A 
ATOM      4  C   UNL     1       0.695   4.036 -20.615  0.00  0.00    +0.000 A 
ATOM      5  C   UNL     1       1.856   5.918 -19.640  0.00  0.00    +0.000 A 
ATOM      6  C   UNL     1       0.806   4.999 -19.612  0.00  0.00    +0.000 A 
ATOM      7  H   UNL     1       3.600   6.603 -20.680  0.00  0.00    +0.000 HD
ATOM      8  H   UNL     1      -0.127   3.326 -20.582  0.00  0.00    +0.000 HD
ATOM      9  H   UNL     1       1.941   6.668 -18.859  0.00  0.00    +0.000 HD
ATOM     10  H   UNL     1       0.076   5.033 -18.808  0.00  0.00    +0.000 HD
ENDROOT
BRANCH   2  12
ATOM     11  O   UNL     1       2.005   1.853 -22.631  0.00  0.00    +0.000 OA
ATOM     12  C   UNL     1       1.489   2.976 -22.680  0.00  0.00    +0.000 C 
BRANCH  12  13
ATOM     13  O   UNL     1       0.708   3.418 -23.712  0.00  0.00    +0.000 OA
BRANCH  13  14
ATOM     14  C   UNL     1      -0.605   2.858 -23.813  0.00  0.00    +0.000 C 
ATOM     15  H   UNL     1      -0.729   2.056 -23.080  0.00  0.00    +0.000 HD
ATOM     16  H   UNL     1      -0.780   2.485 -24.827  0.00  0.00    +0.000 HD
ATOM     17  H   UNL     1      -1.330   3.647 -23.597  0.00  0.00    +0.000 HD
ENDBRANCH  13  14
ENDBRANCH  12  13
ENDBRANCH   2  12
BRANCH   1  18
ATOM     18  N   UNL     1       3.642   4.886 -22.711  0.00  0.00    +0.000 N 
BRANCH  18  19
ATOM     19  C   UNL     1       4.831   4.069 -22.586  0.00  0.00    +0.000 C 
ATOM     20  H   UNL     1       5.521   4.252 -23.417  0.00  0.00    +0.000 HD
ATOM     21  H   UNL     1       4.572   3.005 -22.574  0.00  0.00    +0.000 HD
ATOM     22  H   UNL     1       5.370   4.292 -21.659  0.00  0.00    +0.000 HD
ENDBRANCH  18  19
BRANCH  18  23
ATOM     23  C   UNL     1       3.441   5.664 -23.915  0.00  0.00    +0.000 C 
ATOM     24  H   UNL     1       3.583   5.034 -24.800  0.00  0.00    +0.000 HD
ATOM     25  H   UNL     1       4.153   6.493 -23.998  0.00  0.00    +0.000 HD
ATOM     26  H   UNL     1       2.422   6.063 -23.954  0.00  0.00    +0.000 HD
ENDBRANCH  18  23
ENDBRANCH   1  18
TORSDOF 6
ENDMDL
