MODEL 1
REMARK VINA RESULT:    -4.196      0.000      0.000
REMARK INTER + INTRA:          -6.780
REMARK INTER:                  -6.437
REMARK INTRA:                  -0.342
REMARK UNBOUND:                -0.621
REMARK  Name = 8158
REMARK  9 active torsions:
REMARK  status: ('A' for Active; 'I' for Inactive)
REMARK    1  A    between atoms: O_1  and  C_11
REMARK    2  A    between atoms: C_3  and  C_4
REMARK    3  A    between atoms: C_3  and  C_5
REMARK    4  A    between atoms: C_4  and  C_6
REMARK    5  A    between atoms: C_5  and  C_7
REMARK    6  A    between atoms: C_6  and  C_8
REMARK    7  A    between atoms: C_7  and  C_9
REMARK    8  A    between atoms: C_8  and  C_10
REMARK    9  A    between atoms: C_9  and  C_11
REMARK                            x       y       z     vdW  Elec       q    Type
REMARK                         _______ _______ _______ _____ _____    ______ ____
ROOT
ATOM      1  C   UNL     1       3.970   3.833 -20.755  0.00  0.00    +0.000 C 
ATOM      2  H   UNL     1       3.119   4.413 -21.134  0.00  0.00    +0.000 HD
ATOM      3  H   UNL     1       4.656   3.691 -21.599  0.00  0.00    +0.000 HD
ENDROOT
BRANCH   1   4
ATOM      4  C   UNL     1       4.680   4.640 -19.662  0.00  0.00    +0.000 C 
ATOM      5  H   UNL     1       5.063   5.572 -20.097  0.00  0.00    +0.000 HD
ATOM      6  H   UNL     1       3.948   4.927 -18.895  0.00  0.00    +0.000 HD
BRANCH   4   7
ATOM      7  C   UNL     1       5.831   3.882 -18.997  0.00  0.00    +0.000 C 
ATOM      8  H   UNL     1       5.426   3.047 -18.413  0.00  0.00    +0.000 HD
ATOM      9  H   UNL     1       6.470   3.445 -19.774  0.00  0.00    +0.000 HD
BRANCH   7  10
ATOM     10  C   UNL     1       6.687   4.764 -18.082  0.00  0.00    +0.000 C 
ATOM     11  H   UNL     1       6.429   4.559 -17.036  0.00  0.00    +0.000 HD
ATOM     12  H   UNL     1       6.448   5.817 -18.268  0.00  0.00    +0.000 HD
BRANCH  10  13
ATOM     13  C   UNL     1       8.183   4.562 -18.268  0.00  0.00    +0.000 C 
ATOM     14  H   UNL     1       8.731   4.866 -17.371  0.00  0.00    +0.000 HD
ATOM     15  H   UNL     1       8.546   5.160 -19.109  0.00  0.00    +0.000 HD
ATOM     16  H   UNL     1       8.413   3.512 -18.472  0.00  0.00    +0.000 HD
ENDBRANCH  10  13
ENDBRANCH   7  10
ENDBRANCH   4   7
ENDBRANCH   1   4
BRANCH   1  17
ATOM     17  C   UNL     1       3.474   2.465 -20.278  0.00  0.00    +0.000 C 
ATOM     18  H   UNL     1       3.900   1.682 -20.916  0.00  0.00    +0.000 HD
ATOM     19  H   UNL     1       3.845   2.283 -19.262  0.00  0.00    +0.000 HD
BRANCH  17  20
ATOM     20  C   UNL     1       1.945   2.334 -20.281  0.00  0.00    +0.000 C 
ATOM     21  H   UNL     1       1.615   2.026 -19.280  0.00  0.00    +0.000 HD
ATOM     22  H   UNL     1       1.667   1.514 -20.956  0.00  0.00    +0.000 HD
BRANCH  20  23
ATOM     23  C   UNL     1       1.186   3.593 -20.690  0.00  0.00    +0.000 C 
ATOM     24  H   UNL     1       0.405   3.333 -21.412  0.00  0.00    +0.000 HD
ATOM     25  H   UNL     1       1.878   4.301 -21.158  0.00  0.00    +0.000 HD
BRANCH  23  27
ATOM     26  O   UNL     1       0.711   5.453 -19.224  0.00  0.00    +0.000 OA
ATOM     27  C   UNL     1       0.529   4.279 -19.520  0.00  0.00    +0.000 C 
BRANCH  27  28
ATOM     28  O   UNL     1      -0.289   3.451 -18.821  0.00  0.00    +0.000 OA
ATOM     29  H   UNL     1      -1.222   3.752 -18.845  0.00  0.00    +0.000 HD
ENDBRANCH  27  28
ENDBRANCH  23  27
ENDBRANCH  20  23
ENDBRANCH  17  20
ENDBRANCH   1  17
TORSDOF 9
ENDMDL
MODEL 2
REMARK VINA RESULT:    -4.143      4.997      7.057
REMARK INTER + INTRA:          -6.701
REMARK INTER:                  -6.352
REMARK INTRA:                  -0.350
REMARK UNBOUND:                -0.621
REMARK  Name = 8158
REMARK  9 active torsions:
REMARK  status: ('A' for Active; 'I' for Inactive)
REMARK    1  A    between atoms: O_1  and  C_11
REMARK    2  A    between atoms: C_3  and  C_4
REMARK    3  A    between atoms: C_3  and  C_5
REMARK    4  A    between atoms: C_4  and  C_6
REMARK    5  A    between atoms: C_5  and  C_7
REMARK    6  A    between atoms: C_6  and  C_8
REMARK    7  A    between atoms: C_7  and  C_9
REMARK    8  A    between atoms: C_8  and  C_10
REMARK    9  A    between atoms: C_9  and  C_11
REMARK                            x       y       z     vdW  Elec       q    Type
REMARK                         _______ _______ _______ _____ _____    ______ ____
ROOT
ATOM      1  C   UNL     1       6.291   4.788 -17.778  0.00  0.00    +0.000 C 
ATOM      2  H   UNL     1       7.097   5.429 -17.399  0.00  0.00    +0.000 HD
ATOM      3  H   UNL     1       5.615   4.598 -16.935  0.00  0.00    +0.000 HD
ENDROOT
BRANCH   1   4
ATOM      4  C   UNL     1       5.526   5.539 -18.874  0.00  0.00    +0.000 C 
ATOM      5  H   UNL     1       4.874   6.288 -18.407  0.00  0.00    +0.000 HD
ATOM      6  H   UNL     1       6.241   6.089 -19.499  0.00  0.00    +0.000 HD
BRANCH   4   7
ATOM      7  C   UNL     1       4.683   4.623 -19.765  0.00  0.00    +0.000 C 
ATOM      8  H   UNL     1       5.288   4.293 -20.619  0.00  0.00    +0.000 HD
ATOM      9  H   UNL     1       4.414   3.722 -19.201  0.00  0.00    +0.000 HD
BRANCH   7  10
ATOM     10  C   UNL     1       3.406   5.291 -20.282  0.00  0.00    +0.000 C 
ATOM     11  H   UNL     1       2.641   4.525 -20.456  0.00  0.00    +0.000 HD
ATOM     12  H   UNL     1       3.610   5.761 -21.251  0.00  0.00    +0.000 HD
BRANCH  10  13
ATOM     13  C   UNL     1       2.843   6.342 -19.337  0.00  0.00    +0.000 C 
ATOM     14  H   UNL     1       1.766   6.207 -19.200  0.00  0.00    +0.000 HD
ATOM     15  H   UNL     1       3.014   7.346 -19.740  0.00  0.00    +0.000 HD
ATOM     16  H   UNL     1       3.324   6.282 -18.356  0.00  0.00    +0.000 HD
ENDBRANCH  10  13
ENDBRANCH   7  10
ENDBRANCH   4   7
ENDBRANCH   1   4
BRANCH   1  17
ATOM     17  C   UNL     1       6.886   3.460 -18.252  0.00  0.00    +0.000 C 
ATOM     18  H   UNL     1       6.867   2.738 -17.425  0.00  0.00    +0.000 HD
ATOM     19  H   UNL     1       6.255   3.046 -19.047  0.00  0.00    +0.000 HD
BRANCH  17  20
ATOM     20  C   UNL     1       8.325   3.584 -18.771  0.00  0.00    +0.000 C 
ATOM     21  H   UNL     1       8.299   3.668 -19.866  0.00  0.00    +0.000 HD
ATOM     22  H   UNL     1       8.857   2.650 -18.552  0.00  0.00    +0.000 HD
BRANCH  20  23
ATOM     23  C   UNL     1       9.121   4.754 -18.201  0.00  0.00    +0.000 C 
ATOM     24  H   UNL     1       9.081   4.728 -17.107  0.00  0.00    +0.000 HD
ATOM     25  H   UNL     1       8.686   5.697 -18.549  0.00  0.00    +0.000 HD
BRANCH  23  27
ATOM     26  O   UNL     1      10.952   4.757 -19.777  0.00  0.00    +0.000 OA
ATOM     27  C   UNL     1      10.571   4.724 -18.614  0.00  0.00    +0.000 C 
BRANCH  27  28
ATOM     28  O   UNL     1      11.415   4.650 -17.554  0.00  0.00    +0.000 OA
ATOM     29  H   UNL     1      11.329   3.797 -17.076  0.00  0.00    +0.000 HD
ENDBRANCH  27  28
ENDBRANCH  23  27
ENDBRANCH  20  23
ENDBRANCH  17  20
ENDBRANCH   1  17
TORSDOF 9
ENDMDL
MODEL 3
REMARK VINA RESULT:    -4.092      2.718      3.811
REMARK INTER + INTRA:          -6.627
REMARK INTER:                  -5.987
REMARK INTRA:                  -0.640
REMARK UNBOUND:                -0.621
REMARK  Name = 8158
REMARK  9 active torsions:
REMARK  status: ('A' for Active; 'I' for Inactive)
REMARK    1  A    between atoms: O_1  and  C_11
REMARK    2  A    between atoms: C_3  and  C_4
REMARK    3  A    between atoms: C_3  and  C_5
REMARK    4  A    between atoms: C_4  and  C_6
REMARK    5  A    between atoms: C_5  and  C_7
REMARK    6  A    between atoms: C_6  and  C_8
REMARK    7  A    between atoms: C_7  and  C_9
REMARK    8  A    between atoms: C_8  and  C_10
REMARK    9  A    between atoms: C_9  and  C_11
REMARK                            x       y       z     vdW  Elec       q    Type
REMARK                         _______ _______ _______ _____ _____    ______ ____
ROOT
ATOM      1  C   UNL     1       4.182   3.891 -20.025  0.00  0.00    +0.000 C 
ATOM      2  H   UNL     1       5.251   3.647 -20.038  0.00  0.00    +0.000 HD
ATOM      3  H   UNL     1       3.860   3.844 -18.977  0.00  0.00    +0.000 HD
ENDROOT
BRANCH   1   4
ATOM      4  C   UNL     1       3.987   5.320 -20.544  0.00  0.00    +0.000 C 
ATOM      5  H   UNL     1       4.971   5.783 -20.697  0.00  0.00    +0.000 HD
ATOM      6  H   UNL     1       3.500   5.282 -21.527  0.00  0.00    +0.000 HD
BRANCH   4   7
ATOM      7  C   UNL     1       3.156   6.201 -19.607  0.00  0.00    +0.000 C 
ATOM      8  H   UNL     1       3.115   5.735 -18.615  0.00  0.00    +0.000 HD
ATOM      9  H   UNL     1       3.659   7.167 -19.483  0.00  0.00    +0.000 HD
BRANCH   7  10
ATOM     10  C   UNL     1       1.729   6.438 -20.109  0.00  0.00    +0.000 C 
ATOM     11  H   UNL     1       1.512   5.740 -20.927  0.00  0.00    +0.000 HD
ATOM     12  H   UNL     1       1.655   7.449 -20.527  0.00  0.00    +0.000 HD
BRANCH  10  13
ATOM     13  C   UNL     1       0.669   6.276 -19.030  0.00  0.00    +0.000 C 
ATOM     14  H   UNL     1      -0.238   6.831 -19.288  0.00  0.00    +0.000 HD
ATOM     15  H   UNL     1       1.041   6.653 -18.072  0.00  0.00    +0.000 HD
ATOM     16  H   UNL     1       0.402   5.223 -18.901  0.00  0.00    +0.000 HD
ENDBRANCH  10  13
ENDBRANCH   7  10
ENDBRANCH   4   7
ENDBRANCH   1   4
BRANCH   1  17
ATOM     17  C   UNL     1       3.415   2.840 -20.832  0.00  0.00    +0.000 C 
ATOM     18  H   UNL     1       3.115   3.271 -21.795  0.00  0.00    +0.000 HD
ATOM     19  H   UNL     1       4.084   2.000 -21.055  0.00  0.00    +0.000 HD
BRANCH  17  20
ATOM     20  C   UNL     1       2.169   2.307 -20.113  0.00  0.00    +0.000 C 
ATOM     21  H   UNL     1       2.199   2.633 -19.064  0.00  0.00    +0.000 HD
ATOM     22  H   UNL     1       2.221   1.211 -20.091  0.00  0.00    +0.000 HD
BRANCH  20  23
ATOM     23  C   UNL     1       0.836   2.728 -20.726  0.00  0.00    +0.000 C 
ATOM     24  H   UNL     1       0.852   3.803 -20.938  0.00  0.00    +0.000 HD
ATOM     25  H   UNL     1       0.026   2.518 -20.020  0.00  0.00    +0.000 HD
BRANCH  23  27
ATOM     26  O   UNL     1       0.779   2.459 -23.126  0.00  0.00    +0.000 OA
ATOM     27  C   UNL     1       0.538   2.005 -22.015  0.00  0.00    +0.000 C 
BRANCH  27  28
ATOM     28  O   UNL     1      -0.036   0.792 -21.812  0.00  0.00    +0.000 OA
ATOM     29  H   UNL     1      -0.748   0.610 -22.463  0.00  0.00    +0.000 HD
ENDBRANCH  27  28
ENDBRANCH  23  27
ENDBRANCH  20  23
ENDBRANCH  17  20
ENDBRANCH   1  17
TORSDOF 9
ENDMDL
MODEL 4
REMARK VINA RESULT:    -4.071     23.446     24.424
REMARK INTER + INTRA:          -6.596
REMARK INTER:                  -5.975
REMARK INTRA:                  -0.621
REMARK UNBOUND:                -0.621
REMARK  Name = 8158
REMARK  9 active torsions:
REMARK  status: ('A' for Active; 'I' for Inactive)
REMARK    1  A    between atoms: O_1  and  C_11
REMARK    2  A    between atoms: C_3  and  C_4
REMARK    3  A    between atoms: C_3  and  C_5
REMARK    4  A    between atoms: C_4  and  C_6
REMARK    5  A    between atoms: C_5  and  C_7
REMARK    6  A    between atoms: C_6  and  C_8
REMARK    7  A    between atoms: C_7  and  C_9
REMARK    8  A    between atoms: C_8  and  C_10
REMARK    9  A    between atoms: C_9  and  C_11
REMARK                            x       y       z     vdW  Elec       q    Type
REMARK                         _______ _______ _______ _____ _____    ______ ____
ROOT
ATOM      1  C   UNL     1      18.311  -3.721  -2.479  0.00  0.00    +0.000 C 
ATOM      2  H   UNL     1      18.849  -2.930  -1.942  0.00  0.00    +0.000 HD
ATOM      3  H   UNL     1      18.071  -3.323  -3.472  0.00  0.00    +0.000 HD
ENDROOT
BRANCH   1   4
ATOM      4  C   UNL     1      19.233  -4.936  -2.636  0.00  0.00    +0.000 C 
ATOM      5  H   UNL     1      20.228  -4.684  -2.246  0.00  0.00    +0.000 HD
ATOM      6  H   UNL     1      18.851  -5.759  -2.018  0.00  0.00    +0.000 HD
BRANCH   4   7
ATOM      7  C   UNL     1      19.365  -5.416  -4.084  0.00  0.00    +0.000 C 
ATOM      8  H   UNL     1      18.901  -4.681  -4.753  0.00  0.00    +0.000 HD
ATOM      9  H   UNL     1      20.428  -5.461  -4.351  0.00  0.00    +0.000 HD
BRANCH   7  10
ATOM     10  C   UNL     1      18.728  -6.788  -4.326  0.00  0.00    +0.000 C 
ATOM     11  H   UNL     1      18.316  -7.168  -3.383  0.00  0.00    +0.000 HD
ATOM     12  H   UNL     1      19.501  -7.496  -4.643  0.00  0.00    +0.000 HD
BRANCH  10  13
ATOM     13  C   UNL     1      17.623  -6.769  -5.372  0.00  0.00    +0.000 C 
ATOM     14  H   UNL     1      17.760  -7.576  -6.098  0.00  0.00    +0.000 HD
ATOM     15  H   UNL     1      17.626  -5.817  -5.912  0.00  0.00    +0.000 HD
ATOM     16  H   UNL     1      16.641  -6.892  -4.904  0.00  0.00    +0.000 HD
ENDBRANCH  10  13
ENDBRANCH   7  10
ENDBRANCH   4   7
ENDBRANCH   1   4
BRANCH   1  17
ATOM     17  C   UNL     1      17.010  -4.037  -1.737  0.00  0.00    +0.000 C 
ATOM     18  H   UNL     1      17.246  -4.479  -0.762  0.00  0.00    +0.000 HD
ATOM     19  H   UNL     1      16.473  -3.101  -1.539  0.00  0.00    +0.000 HD
BRANCH  17  20
ATOM     20  C   UNL     1      16.084  -4.989  -2.506  0.00  0.00    +0.000 C 
ATOM     21  H   UNL     1      16.667  -5.496  -3.285  0.00  0.00    +0.000 HD
ATOM     22  H   UNL     1      15.330  -4.391  -3.034  0.00  0.00    +0.000 HD
BRANCH  20  23
ATOM     23  C   UNL     1      15.377  -6.037  -1.651  0.00  0.00    +0.000 C 
ATOM     24  H   UNL     1      15.121  -6.903  -2.270  0.00  0.00    +0.000 HD
ATOM     25  H   UNL     1      14.456  -5.611  -1.239  0.00  0.00    +0.000 HD
BRANCH  23  27
ATOM     26  O   UNL     1      17.291  -7.110  -0.643  0.00  0.00    +0.000 OA
ATOM     27  C   UNL     1      16.228  -6.519  -0.504  0.00  0.00    +0.000 C 
BRANCH  27  28
ATOM     28  O   UNL     1      15.685  -6.232   0.706  0.00  0.00    +0.000 OA
ATOM     29  H   UNL     1      16.025  -5.386   1.068  0.00  0.00    +0.000 HD
ENDBRANCH  27  28
ENDBRANCH  23  27
ENDBRANCH  20  23
ENDBRANCH  17  20
ENDBRANCH   1  17
TORSDOF 9
ENDMDL
MODEL 5
REMARK VINA RESULT:    -4.036      1.796      2.101
REMARK INTER + INTRA:          -6.545
REMARK INTER:                  -6.350
REMARK INTRA:                  -0.195
REMARK UNBOUND:                -0.621
REMARK  Name = 8158
REMARK  9 active torsions:
REMARK  status: ('A' for Active; 'I' for Inactive)
REMARK    1  A    between atoms: O_1  and  C_11
REMARK    2  A    between atoms: C_3  and  C_4
REMARK    3  A    between atoms: C_3  and  C_5
REMARK    4  A    between atoms: C_4  and  C_6
REMARK    5  A    between atoms: C_5  and  C_7
REMARK    6  A    between atoms: C_6  and  C_8
REMARK    7  A    between atoms: C_7  and  C_9
REMARK    8  A    between atoms: C_8  and  C_10
REMARK    9  A    between atoms: C_9  and  C_11
REMARK                            x       y       z     vdW  Elec       q    Type
REMARK                         _______ _______ _______ _____ _____    ______ ____
ROOT
ATOM      1  C   UNL     1       3.647   4.523 -20.352  0.00  0.00    +0.000 C 
ATOM      2  H   UNL     1       3.254   5.400 -19.823  0.00  0.00    +0.000 HD
ATOM      3  H   UNL     1       3.856   4.842 -21.381  0.00  0.00    +0.000 HD
ENDROOT
BRANCH   1   4
ATOM      4  C   UNL     1       4.956   4.082 -19.689  0.00  0.00    +0.000 C 
ATOM      5  H   UNL     1       4.787   3.138 -19.154  0.00  0.00    +0.000 HD
ATOM      6  H   UNL     1       5.702   3.873 -20.468  0.00  0.00    +0.000 HD
BRANCH   4   7
ATOM      7  C   UNL     1       5.526   5.117 -18.716  0.00  0.00    +0.000 C 
ATOM      8  H   UNL     1       5.898   5.979 -19.283  0.00  0.00    +0.000 HD
ATOM      9  H   UNL     1       4.719   5.487 -18.072  0.00  0.00    +0.000 HD
BRANCH   7  10
ATOM     10  C   UNL     1       6.655   4.567 -17.840  0.00  0.00    +0.000 C 
ATOM     11  H   UNL     1       6.287   4.435 -16.815  0.00  0.00    +0.000 HD
ATOM     12  H   UNL     1       7.468   5.300 -17.794  0.00  0.00    +0.000 HD
BRANCH  10  13
ATOM     13  C   UNL     1       7.218   3.242 -18.334  0.00  0.00    +0.000 C 
ATOM     14  H   UNL     1       6.661   2.882 -19.203  0.00  0.00    +0.000 HD
ATOM     15  H   UNL     1       7.152   2.485 -17.546  0.00  0.00    +0.000 HD
ATOM     16  H   UNL     1       8.269   3.347 -18.618  0.00  0.00    +0.000 HD
ENDBRANCH  10  13
ENDBRANCH   7  10
ENDBRANCH   4   7
ENDBRANCH   1   4
BRANCH   1  17
ATOM     17  C   UNL     1       2.577   3.429 -20.376  0.00  0.00    +0.000 C 
ATOM     18  H   UNL     1       2.800   2.720 -21.183  0.00  0.00    +0.000 HD
ATOM     19  H   UNL     1       2.621   2.863 -19.437  0.00  0.00    +0.000 HD
BRANCH  17  20
ATOM     20  C   UNL     1       1.153   3.969 -20.566  0.00  0.00    +0.000 C 
ATOM     21  H   UNL     1       0.962   4.090 -21.640  0.00  0.00    +0.000 HD
ATOM     22  H   UNL     1       1.103   4.978 -20.135  0.00  0.00    +0.000 HD
BRANCH  20  23
ATOM     23  C   UNL     1       0.047   3.113 -19.956  0.00  0.00    +0.000 C 
ATOM     24  H   UNL     1      -0.530   3.711 -19.243  0.00  0.00    +0.000 HD
ATOM     25  H   UNL     1       0.492   2.264 -19.427  0.00  0.00    +0.000 HD
BRANCH  23  27
ATOM     26  O   UNL     1      -0.553   2.048 -22.039  0.00  0.00    +0.000 OA
ATOM     27  C   UNL     1      -0.907   2.576 -20.992  0.00  0.00    +0.000 C 
BRANCH  27  28
ATOM     28  O   UNL     1      -2.207   2.745 -20.643  0.00  0.00    +0.000 OA
ATOM     29  H   UNL     1      -2.362   3.617 -20.220  0.00  0.00    +0.000 HD
ENDBRANCH  27  28
ENDBRANCH  23  27
ENDBRANCH  20  23
ENDBRANCH  17  20
ENDBRANCH   1  17
TORSDOF 9
ENDMDL
MODEL 6
REMARK VINA RESULT:    -4.023      2.150      2.544
REMARK INTER + INTRA:          -6.525
REMARK INTER:                  -6.273
REMARK INTRA:                  -0.253
REMARK UNBOUND:                -0.621
REMARK  Name = 8158
REMARK  9 active torsions:
REMARK  status: ('A' for Active; 'I' for Inactive)
REMARK    1  A    between atoms: O_1  and  C_11
REMARK    2  A    between atoms: C_3  and  C_4
REMARK    3  A    between atoms: C_3  and  C_5
REMARK    4  A    between atoms: C_4  and  C_6
REMARK    5  A    between atoms: C_5  and  C_7
REMARK    6  A    between atoms: C_6  and  C_8
REMARK    7  A    between atoms: C_7  and  C_9
REMARK    8  A    between atoms: C_8  and  C_10
REMARK    9  A    between atoms: C_9  and  C_11
REMARK                            x       y       z     vdW  Elec       q    Type
REMARK                         _______ _______ _______ _____ _____    ______ ____
ROOT
ATOM      1  C   UNL     1       3.686   2.984 -20.189  0.00  0.00    +0.000 C 
ATOM      2  H   UNL     1       4.295   2.711 -21.060  0.00  0.00    +0.000 HD
ATOM      3  H   UNL     1       4.263   2.703 -19.299  0.00  0.00    +0.000 HD
ENDROOT
BRANCH   1   4
ATOM      4  C   UNL     1       3.467   4.501 -20.186  0.00  0.00    +0.000 C 
ATOM      5  H   UNL     1       3.278   4.838 -21.213  0.00  0.00    +0.000 HD
ATOM      6  H   UNL     1       2.564   4.732 -19.606  0.00  0.00    +0.000 HD
BRANCH   4   7
ATOM      7  C   UNL     1       4.648   5.285 -19.607  0.00  0.00    +0.000 C 
ATOM      8  H   UNL     1       4.997   6.013 -20.349  0.00  0.00    +0.000 HD
ATOM      9  H   UNL     1       4.306   5.858 -18.737  0.00  0.00    +0.000 HD
BRANCH   7  10
ATOM     10  C   UNL     1       5.820   4.392 -19.190  0.00  0.00    +0.000 C 
ATOM     11  H   UNL     1       6.620   4.472 -19.936  0.00  0.00    +0.000 HD
ATOM     12  H   UNL     1       5.495   3.345 -19.185  0.00  0.00    +0.000 HD
BRANCH  10  13
ATOM     13  C   UNL     1       6.389   4.733 -17.821  0.00  0.00    +0.000 C 
ATOM     14  H   UNL     1       6.097   5.743 -17.518  0.00  0.00    +0.000 HD
ATOM     15  H   UNL     1       7.482   4.685 -17.841  0.00  0.00    +0.000 HD
ATOM     16  H   UNL     1       6.031   4.030 -17.063  0.00  0.00    +0.000 HD
ENDBRANCH  10  13
ENDBRANCH   7  10
ENDBRANCH   4   7
ENDBRANCH   1   4
BRANCH   1  17
ATOM     17  C   UNL     1       2.383   2.181 -20.215  0.00  0.00    +0.000 C 
ATOM     18  H   UNL     1       2.278   1.690 -21.191  0.00  0.00    +0.000 HD
ATOM     19  H   UNL     1       2.437   1.383 -19.465  0.00  0.00    +0.000 HD
BRANCH  17  20
ATOM     20  C   UNL     1       1.135   3.032 -19.948  0.00  0.00    +0.000 C 
ATOM     21  H   UNL     1       1.397   4.092 -20.072  0.00  0.00    +0.000 HD
ATOM     22  H   UNL     1       0.850   2.913 -18.895  0.00  0.00    +0.000 HD
BRANCH  20  23
ATOM     23  C   UNL     1      -0.070   2.711 -20.828  0.00  0.00    +0.000 C 
ATOM     24  H   UNL     1      -0.528   3.643 -21.179  0.00  0.00    +0.000 HD
ATOM     25  H   UNL     1      -0.809   2.151 -20.246  0.00  0.00    +0.000 HD
BRANCH  23  27
ATOM     26  O   UNL     1       0.840   2.347 -23.035  0.00  0.00    +0.000 OA
ATOM     27  C   UNL     1       0.298   1.890 -22.037  0.00  0.00    +0.000 C 
BRANCH  27  28
ATOM     28  O   UNL     1      -0.042   0.583 -21.905  0.00  0.00    +0.000 OA
ATOM     29  H   UNL     1      -0.839   0.357 -22.430  0.00  0.00    +0.000 HD
ENDBRANCH  27  28
ENDBRANCH  23  27
ENDBRANCH  20  23
ENDBRANCH  17  20
ENDBRANCH   1  17
TORSDOF 9
ENDMDL
MODEL 7
REMARK VINA RESULT:    -4.005     23.411     24.585
REMARK INTER + INTRA:          -6.500
REMARK INTER:                  -5.778
REMARK INTRA:                  -0.722
REMARK UNBOUND:                -0.621
REMARK  Name = 8158
REMARK  9 active torsions:
REMARK  status: ('A' for Active; 'I' for Inactive)
REMARK    1  A    between atoms: O_1  and  C_11
REMARK    2  A    between atoms: C_3  and  C_4
REMARK    3  A    between atoms: C_3  and  C_5
REMARK    4  A    between atoms: C_4  and  C_6
REMARK    5  A    between atoms: C_5  and  C_7
REMARK    6  A    between atoms: C_6  and  C_8
REMARK    7  A    between atoms: C_7  and  C_9
REMARK    8  A    between atoms: C_8  and  C_10
REMARK    9  A    between atoms: C_9  and  C_11
REMARK                            x       y       z     vdW  Elec       q    Type
REMARK                         _______ _______ _______ _____ _____    ______ ____
ROOT
ATOM      1  C   UNL     1      18.143  -3.629  -1.309  0.00  0.00    +0.000 C 
ATOM      2  H   UNL     1      18.089  -2.641  -0.834  0.00  0.00    +0.000 HD
ATOM      3  H   UNL     1      18.948  -4.178  -0.806  0.00  0.00    +0.000 HD
ENDROOT
BRANCH   1   4
ATOM      4  C   UNL     1      16.818  -4.366  -1.084  0.00  0.00    +0.000 C 
ATOM      5  H   UNL     1      17.011  -5.285  -0.515  0.00  0.00    +0.000 HD
ATOM      6  H   UNL     1      16.160  -3.743  -0.464  0.00  0.00    +0.000 HD
BRANCH   4   7
ATOM      7  C   UNL     1      16.091  -4.721  -2.383  0.00  0.00    +0.000 C 
ATOM      8  H   UNL     1      15.294  -3.989  -2.564  0.00  0.00    +0.000 HD
ATOM      9  H   UNL     1      16.793  -4.639  -3.222  0.00  0.00    +0.000 HD
BRANCH   7  10
ATOM     10  C   UNL     1      15.485  -6.128  -2.372  0.00  0.00    +0.000 C 
ATOM     11  H   UNL     1      16.094  -6.790  -3.001  0.00  0.00    +0.000 HD
ATOM     12  H   UNL     1      14.485  -6.096  -2.819  0.00  0.00    +0.000 HD
BRANCH  10  13
ATOM     13  C   UNL     1      15.380  -6.734  -0.980  0.00  0.00    +0.000 C 
ATOM     14  H   UNL     1      15.717  -7.775  -0.982  0.00  0.00    +0.000 HD
ATOM     15  H   UNL     1      14.342  -6.711  -0.634  0.00  0.00    +0.000 HD
ATOM     16  H   UNL     1      15.991  -6.176  -0.265  0.00  0.00    +0.000 HD
ENDBRANCH  10  13
ENDBRANCH   7  10
ENDBRANCH   4   7
ENDBRANCH   1   4
BRANCH   1  17
ATOM     17  C   UNL     1      18.501  -3.457  -2.787  0.00  0.00    +0.000 C 
ATOM     18  H   UNL     1      17.752  -3.968  -3.404  0.00  0.00    +0.000 HD
ATOM     19  H   UNL     1      18.454  -2.393  -3.048  0.00  0.00    +0.000 HD
BRANCH  17  20
ATOM     20  C   UNL     1      19.893  -3.996  -3.146  0.00  0.00    +0.000 C 
ATOM     21  H   UNL     1      20.405  -4.294  -2.220  0.00  0.00    +0.000 HD
ATOM     22  H   UNL     1      20.486  -3.175  -3.569  0.00  0.00    +0.000 HD
BRANCH  20  23
ATOM     23  C   UNL     1      19.903  -5.170  -4.120  0.00  0.00    +0.000 C 
ATOM     24  H   UNL     1      20.934  -5.499  -4.289  0.00  0.00    +0.000 HD
ATOM     25  H   UNL     1      19.470  -4.856  -5.076  0.00  0.00    +0.000 HD
BRANCH  23  27
ATOM     26  O   UNL     1      19.231  -6.816  -2.485  0.00  0.00    +0.000 OA
ATOM     27  C   UNL     1      19.116  -6.352  -3.612  0.00  0.00    +0.000 C 
BRANCH  27  28
ATOM     28  O   UNL     1      18.265  -6.852  -4.543  0.00  0.00    +0.000 OA
ATOM     29  H   UNL     1      17.407  -6.377  -4.548  0.00  0.00    +0.000 HD
ENDBRANCH  27  28
ENDBRANCH  23  27
ENDBRANCH  20  23
ENDBRANCH  17  20
ENDBRANCH   1  17
TORSDOF 9
ENDMDL
MODEL 8
REMARK VINA RESULT:    -3.971     23.440     24.837
REMARK INTER + INTRA:          -6.450
REMARK INTER:                  -6.050
REMARK INTRA:                  -0.400
REMARK UNBOUND:                -0.621
REMARK  Name = 8158
REMARK  9 active torsions:
REMARK  status: ('A' for Active; 'I' for Inactive)
REMARK    1  A    between atoms: O_1  and  C_11
REMARK    2  A    between atoms: C_3  and  C_4
REMARK    3  A    between atoms: C_3  and  C_5
REMARK    4  A    between atoms: C_4  and  C_6
REMARK    5  A    between atoms: C_5  and  C_7
REMARK    6  A    between atoms: C_6  and  C_8
REMARK    7  A    between atoms: C_7  and  C_9
REMARK    8  A    between atoms: C_8  and  C_10
REMARK    9  A    between atoms: C_9  and  C_11
REMARK                            x       y       z     vdW  Elec       q    Type
REMARK                         _______ _______ _______ _____ _____    ______ ____
ROOT
ATOM      1  C   UNL     1      16.490  -6.185  -3.325  0.00  0.00    +0.000 C 
ATOM      2  H   UNL     1      16.846  -6.885  -2.559  0.00  0.00    +0.000 HD
ATOM      3  H   UNL     1      15.672  -6.687  -3.857  0.00  0.00    +0.000 HD
ENDROOT
BRANCH   1   4
ATOM      4  C   UNL     1      15.944  -4.927  -2.640  0.00  0.00    +0.000 C 
ATOM      5  H   UNL     1      16.668  -4.110  -2.760  0.00  0.00    +0.000 HD
ATOM      6  H   UNL     1      15.024  -4.611  -3.148  0.00  0.00    +0.000 HD
BRANCH   4   7
ATOM      7  C   UNL     1      15.650  -5.124  -1.150  0.00  0.00    +0.000 C 
ATOM      8  H   UNL     1      16.469  -4.695  -0.560  0.00  0.00    +0.000 HD
ATOM      9  H   UNL     1      14.744  -4.565  -0.886  0.00  0.00    +0.000 HD
BRANCH   7  10
ATOM     10  C   UNL     1      15.466  -6.593  -0.760  0.00  0.00    +0.000 C 
ATOM     11  H   UNL     1      16.276  -7.189  -1.198  0.00  0.00    +0.000 HD
ATOM     12  H   UNL     1      14.530  -6.968  -1.189  0.00  0.00    +0.000 HD
BRANCH  10  13
ATOM     13  C   UNL     1      15.442  -6.826   0.743  0.00  0.00    +0.000 C 
ATOM     14  H   UNL     1      16.452  -6.992   1.128  0.00  0.00    +0.000 HD
ATOM     15  H   UNL     1      14.835  -7.705   0.982  0.00  0.00    +0.000 HD
ATOM     16  H   UNL     1      15.013  -5.965   1.264  0.00  0.00    +0.000 HD
ENDBRANCH  10  13
ENDBRANCH   7  10
ENDBRANCH   4   7
ENDBRANCH   1   4
BRANCH   1  17
ATOM     17  C   UNL     1      17.625  -5.897  -4.310  0.00  0.00    +0.000 C 
ATOM     18  H   UNL     1      17.474  -6.489  -5.221  0.00  0.00    +0.000 HD
ATOM     19  H   UNL     1      17.585  -4.842  -4.608  0.00  0.00    +0.000 HD
BRANCH  17  20
ATOM     20  C   UNL     1      19.019  -6.201  -3.744  0.00  0.00    +0.000 C 
ATOM     21  H   UNL     1      19.725  -6.304  -4.579  0.00  0.00    +0.000 HD
ATOM     22  H   UNL     1      18.988  -7.181  -3.250  0.00  0.00    +0.000 HD
BRANCH  20  23
ATOM     23  C   UNL     1      19.559  -5.166  -2.760  0.00  0.00    +0.000 C 
ATOM     24  H   UNL     1      19.797  -5.653  -1.809  0.00  0.00    +0.000 HD
ATOM     25  H   UNL     1      18.800  -4.397  -2.585  0.00  0.00    +0.000 HD
BRANCH  23  27
ATOM     26  O   UNL     1      21.708  -4.088  -2.533  0.00  0.00    +0.000 OA
ATOM     27  C   UNL     1      20.810  -4.490  -3.261  0.00  0.00    +0.000 C 
BRANCH  27  28
ATOM     28  O   UNL     1      20.832  -4.366  -4.612  0.00  0.00    +0.000 OA
ATOM     29  H   UNL     1      20.192  -4.971  -5.045  0.00  0.00    +0.000 HD
ENDBRANCH  27  28
ENDBRANCH  23  27
ENDBRANCH  20  23
ENDBRANCH  17  20
ENDBRANCH   1  17
TORSDOF 9
ENDMDL
MODEL 9
REMARK VINA RESULT:    -3.971     23.260     24.470
REMARK INTER + INTRA:          -6.449
REMARK INTER:                  -5.785
REMARK INTRA:                  -0.664
REMARK UNBOUND:                -0.621
REMARK  Name = 8158
REMARK  9 active torsions:
REMARK  status: ('A' for Active; 'I' for Inactive)
REMARK    1  A    between atoms: O_1  and  C_11
REMARK    2  A    between atoms: C_3  and  C_4
REMARK    3  A    between atoms: C_3  and  C_5
REMARK    4  A    between atoms: C_4  and  C_6
REMARK    5  A    between atoms: C_5  and  C_7
REMARK    6  A    between atoms: C_6  and  C_8
REMARK    7  A    between atoms: C_7  and  C_9
REMARK    8  A    between atoms: C_8  and  C_10
REMARK    9  A    between atoms: C_9  and  C_11
REMARK                            x       y       z     vdW  Elec       q    Type
REMARK                         _______ _______ _______ _____ _____    ______ ____
ROOT
ATOM      1  C   UNL     1      15.460  -6.375  -2.724  0.00  0.00    +0.000 C 
ATOM      2  H   UNL     1      15.690  -7.375  -3.111  0.00  0.00    +0.000 HD
ATOM      3  H   UNL     1      14.444  -6.131  -3.061  0.00  0.00    +0.000 HD
ENDROOT
BRANCH   1   4
ATOM      4  C   UNL     1      15.484  -6.413  -1.192  0.00  0.00    +0.000 C 
ATOM      5  H   UNL     1      14.497  -6.726  -0.826  0.00  0.00    +0.000 HD
ATOM      6  H   UNL     1      16.200  -7.177  -0.862  0.00  0.00    +0.000 HD
BRANCH   4   7
ATOM      7  C   UNL     1      15.856  -5.071  -0.555  0.00  0.00    +0.000 C 
ATOM      8  H   UNL     1      15.838  -4.289  -1.324  0.00  0.00    +0.000 HD
ATOM      9  H   UNL     1      15.095  -4.803   0.187  0.00  0.00    +0.000 HD
BRANCH   7  10
ATOM     10  C   UNL     1      17.232  -5.083   0.117  0.00  0.00    +0.000 C 
ATOM     11  H   UNL     1      17.732  -6.035  -0.097  0.00  0.00    +0.000 HD
ATOM     12  H   UNL     1      17.105  -5.028   1.204  0.00  0.00    +0.000 HD
BRANCH  10  13
ATOM     13  C   UNL     1      18.136  -3.942  -0.326  0.00  0.00    +0.000 C 
ATOM     14  H   UNL     1      18.964  -3.806   0.375  0.00  0.00    +0.000 HD
ATOM     15  H   UNL     1      17.571  -3.006  -0.375  0.00  0.00    +0.000 HD
ATOM     16  H   UNL     1      18.554  -4.139  -1.318  0.00  0.00    +0.000 HD
ENDBRANCH  10  13
ENDBRANCH   7  10
ENDBRANCH   4   7
ENDBRANCH   1   4
BRANCH   1  17
ATOM     17  C   UNL     1      16.441  -5.365  -3.324  0.00  0.00    +0.000 C 
ATOM     18  H   UNL     1      15.900  -4.685  -3.993  0.00  0.00    +0.000 HD
ATOM     19  H   UNL     1      16.860  -4.749  -2.519  0.00  0.00    +0.000 HD
BRANCH  17  20
ATOM     20  C   UNL     1      17.592  -6.018  -4.101  0.00  0.00    +0.000 C 
ATOM     21  H   UNL     1      17.655  -5.554  -5.095  0.00  0.00    +0.000 HD
ATOM     22  H   UNL     1      17.341  -7.072  -4.275  0.00  0.00    +0.000 HD
BRANCH  20  23
ATOM     23  C   UNL     1      18.959  -5.938  -3.427  0.00  0.00    +0.000 C 
ATOM     24  H   UNL     1      19.523  -6.855  -3.629  0.00  0.00    +0.000 HD
ATOM     25  H   UNL     1      18.827  -5.835  -2.344  0.00  0.00    +0.000 HD
BRANCH  23  27
ATOM     26  O   UNL     1      19.555  -3.605  -3.613  0.00  0.00    +0.000 OA
ATOM     27  C   UNL     1      19.778  -4.770  -3.914  0.00  0.00    +0.000 C 
BRANCH  27  28
ATOM     28  O   UNL     1      20.791  -5.149  -4.733  0.00  0.00    +0.000 OA
ATOM     29  H   UNL     1      20.464  -5.637  -5.519  0.00  0.00    +0.000 HD
ENDBRANCH  27  28
ENDBRANCH  23  27
ENDBRANCH  20  23
ENDBRANCH  17  20
ENDBRANCH   1  17
TORSDOF 9
ENDMDL
MODEL 10
REMARK VINA RESULT:    -3.923      2.544      2.998
REMARK INTER + INTRA:          -6.379
REMARK INTER:                  -6.048
REMARK INTRA:                  -0.331
REMARK UNBOUND:                -0.621
REMARK  Name = 8158
REMARK  9 active torsions:
REMARK  status: ('A' for Active; 'I' for Inactive)
REMARK    1  A    between atoms: O_1  and  C_11
REMARK    2  A    between atoms: C_3  and  C_4
REMARK    3  A    between atoms: C_3  and  C_5
REMARK    4  A    between atoms: C_4  and  C_6
REMARK    5  A    between atoms: C_5  and  C_7
REMARK    6  A    between atoms: C_6  and  C_8
REMARK    7  A    between atoms: C_7  and  C_9
REMARK    8  A    between atoms: C_8  and  C_10
REMARK    9  A    between atoms: C_9  and  C_11
REMARK                            x       y       z     vdW  Elec       q    Type
REMARK                         _______ _______ _______ _____ _____    ______ ____
ROOT
ATOM      1  C   UNL     1       3.134   6.360 -19.348  0.00  0.00    +0.000 C 
ATOM      2  H   UNL     1       2.697   6.313 -18.343  0.00  0.00    +0.000 HD
ATOM      3  H   UNL     1       3.255   7.423 -19.591  0.00  0.00    +0.000 HD
ENDROOT
BRANCH   1   4
ATOM      4  C   UNL     1       4.514   5.691 -19.327  0.00  0.00    +0.000 C 
ATOM      5  H   UNL     1       4.386   4.604 -19.405  0.00  0.00    +0.000 HD
ATOM      6  H   UNL     1       5.079   6.007 -20.213  0.00  0.00    +0.000 HD
BRANCH   4   7
ATOM      7  C   UNL     1       5.328   6.014 -18.072  0.00  0.00    +0.000 C 
ATOM      8  H   UNL     1       5.942   6.904 -18.258  0.00  0.00    +0.000 HD
ATOM      9  H   UNL     1       4.642   6.268 -17.255  0.00  0.00    +0.000 HD
BRANCH   7  10
ATOM     10  C   UNL     1       6.235   4.863 -17.627  0.00  0.00    +0.000 C 
ATOM     11  H   UNL     1       5.802   4.383 -16.741  0.00  0.00    +0.000 HD
ATOM     12  H   UNL     1       7.209   5.264 -17.327  0.00  0.00    +0.000 HD
BRANCH  10  13
ATOM     13  C   UNL     1       6.450   3.807 -18.702  0.00  0.00    +0.000 C 
ATOM     14  H   UNL     1       7.503   3.754 -18.991  0.00  0.00    +0.000 HD
ATOM     15  H   UNL     1       5.862   4.047 -19.593  0.00  0.00    +0.000 HD
ATOM     16  H   UNL     1       6.141   2.820 -18.345  0.00  0.00    +0.000 HD
ENDBRANCH  10  13
ENDBRANCH   7  10
ENDBRANCH   4   7
ENDBRANCH   1   4
BRANCH   1  17
ATOM     17  C   UNL     1       2.165   5.725 -20.348  0.00  0.00    +0.000 C 
ATOM     18  H   UNL     1       1.155   6.115 -20.172  0.00  0.00    +0.000 HD
ATOM     19  H   UNL     1       2.448   6.025 -21.364  0.00  0.00    +0.000 HD
BRANCH  17  20
ATOM     20  C   UNL     1       2.126   4.192 -20.273  0.00  0.00    +0.000 C 
ATOM     21  H   UNL     1       1.600   3.896 -19.356  0.00  0.00    +0.000 HD
ATOM     22  H   UNL     1       3.154   3.823 -20.164  0.00  0.00    +0.000 HD
BRANCH  20  23
ATOM     23  C   UNL     1       1.474   3.501 -21.467  0.00  0.00    +0.000 C 
ATOM     24  H   UNL     1       1.081   4.253 -22.158  0.00  0.00    +0.000 HD
ATOM     25  H   UNL     1       0.648   2.873 -21.119  0.00  0.00    +0.000 HD
BRANCH  23  27
ATOM     26  O   UNL     1       3.611   2.921 -22.432  0.00  0.00    +0.000 OA
ATOM     27  C   UNL     1       2.439   2.629 -22.229  0.00  0.00    +0.000 C 
BRANCH  27  28
ATOM     28  O   UNL     1       1.868   1.482 -22.675  0.00  0.00    +0.000 OA
ATOM     29  H   UNL     1       1.209   1.652 -23.382  0.00  0.00    +0.000 HD
ENDBRANCH  27  28
ENDBRANCH  23  27
ENDBRANCH  20  23
ENDBRANCH  17  20
ENDBRANCH   1  17
TORSDOF 9
ENDMDL
