MODEL 1
REMARK VINA RESULT:    -4.760      0.000      0.000
REMARK INTER + INTRA:          -7.101
REMARK INTER:                  -6.955
REMARK INTRA:                  -0.145
REMARK UNBOUND:                -0.532
REMARK  Name = 454
REMARK  7 active torsions:
REMARK  status: ('A' for Active; 'I' for Inactive)
REMARK    1  A    between atoms: C_2  and  C_3
REMARK    2  A    between atoms: C_2  and  C_4
REMARK    3  A    between atoms: C_3  and  C_5
REMARK    4  A    between atoms: C_4  and  C_6
REMARK    5  A    between atoms: C_5  and  C_7
REMARK    6  A    between atoms: C_6  and  C_8
REMARK    7  A    between atoms: C_7  and  C_9
REMARK                            x       y       z     vdW  Elec       q    Type
REMARK                         _______ _______ _______ _____ _____    ______ ____
ROOT
ATOM      1  C   UNL     1       3.931  -6.854  -9.223  0.00  0.00    +0.000 C 
ATOM      2  H   UNL     1       3.277  -7.478  -9.844  0.00  0.00    +0.000 HD
ATOM      3  H   UNL     1       3.924  -5.846  -9.655  0.00  0.00    +0.000 HD
ENDROOT
BRANCH   1   4
ATOM      4  C   UNL     1       3.382  -6.797  -7.795  0.00  0.00    +0.000 C 
ATOM      5  H   UNL     1       4.121  -6.320  -7.139  0.00  0.00    +0.000 HD
ATOM      6  H   UNL     1       3.243  -7.820  -7.424  0.00  0.00    +0.000 HD
BRANCH   4   7
ATOM      7  C   UNL     1       2.057  -6.040  -7.684  0.00  0.00    +0.000 C 
ATOM      8  H   UNL     1       2.042  -5.224  -8.418  0.00  0.00    +0.000 HD
ATOM      9  H   UNL     1       1.238  -6.716  -7.957  0.00  0.00    +0.000 HD
BRANCH   7  10
ATOM     10  C   UNL     1       1.799  -5.472  -6.291  0.00  0.00    +0.000 C 
ATOM     11  H   UNL     1       2.258  -6.109  -5.526  0.00  0.00    +0.000 HD
ATOM     12  H   UNL     1       2.227  -4.469  -6.203  0.00  0.00    +0.000 HD
BRANCH  10  14
ATOM     13  O   UNL     1      -0.186  -5.729  -4.913  0.00  0.00    +0.000 OA
ATOM     14  C   UNL     1       0.326  -5.373  -5.970  0.00  0.00    +0.000 C 
ATOM     15  H   UNL     1      -0.295  -4.939  -6.772  0.00  0.00    +0.000 HD
ENDBRANCH  10  14
ENDBRANCH   7  10
ENDBRANCH   4   7
ENDBRANCH   1   4
BRANCH   1  16
ATOM     16  C   UNL     1       5.354  -7.415  -9.248  0.00  0.00    +0.000 C 
ATOM     17  H   UNL     1       5.437  -8.177 -10.033  0.00  0.00    +0.000 HD
ATOM     18  H   UNL     1       5.569  -7.912  -8.293  0.00  0.00    +0.000 HD
BRANCH  16  19
ATOM     19  C   UNL     1       6.384  -6.313  -9.491  0.00  0.00    +0.000 C 
ATOM     20  H   UNL     1       7.012  -6.574 -10.351  0.00  0.00    +0.000 HD
ATOM     21  H   UNL     1       5.873  -5.374  -9.735  0.00  0.00    +0.000 HD
BRANCH  19  22
ATOM     22  C   UNL     1       7.268  -6.096  -8.274  0.00  0.00    +0.000 C 
ATOM     23  H   UNL     1       7.639  -5.067  -8.237  0.00  0.00    +0.000 HD
ATOM     24  H   UNL     1       8.132  -6.767  -8.308  0.00  0.00    +0.000 HD
ATOM     25  H   UNL     1       6.718  -6.296  -7.349  0.00  0.00    +0.000 HD
ENDBRANCH  19  22
ENDBRANCH  16  19
ENDBRANCH   1  16
TORSDOF 7
ENDMDL
MODEL 2
REMARK VINA RESULT:    -4.621      4.628      5.666
REMARK INTER + INTRA:          -6.909
REMARK INTER:                  -6.661
REMARK INTRA:                  -0.247
REMARK UNBOUND:                -0.532
REMARK  Name = 454
REMARK  7 active torsions:
REMARK  status: ('A' for Active; 'I' for Inactive)
REMARK    1  A    between atoms: C_2  and  C_3
REMARK    2  A    between atoms: C_2  and  C_4
REMARK    3  A    between atoms: C_3  and  C_5
REMARK    4  A    between atoms: C_4  and  C_6
REMARK    5  A    between atoms: C_5  and  C_7
REMARK    6  A    between atoms: C_6  and  C_8
REMARK    7  A    between atoms: C_7  and  C_9
REMARK                            x       y       z     vdW  Elec       q    Type
REMARK                         _______ _______ _______ _____ _____    ______ ____
ROOT
ATOM      1  C   UNL     1       4.265  -5.731 -10.327  0.00  0.00    +0.000 C 
ATOM      2  H   UNL     1       3.619  -5.090  -9.715  0.00  0.00    +0.000 HD
ATOM      3  H   UNL     1       3.614  -6.288 -11.012  0.00  0.00    +0.000 HD
ENDROOT
BRANCH   1   4
ATOM      4  C   UNL     1       5.229  -4.863 -11.138  0.00  0.00    +0.000 C 
ATOM      5  H   UNL     1       6.017  -5.495 -11.567  0.00  0.00    +0.000 HD
ATOM      6  H   UNL     1       5.725  -4.153 -10.465  0.00  0.00    +0.000 HD
BRANCH   4   7
ATOM      7  C   UNL     1       4.546  -4.089 -12.268  0.00  0.00    +0.000 C 
ATOM      8  H   UNL     1       4.388  -3.049 -11.952  0.00  0.00    +0.000 HD
ATOM      9  H   UNL     1       5.222  -4.049 -13.131  0.00  0.00    +0.000 HD
BRANCH   7  10
ATOM     10  C   UNL     1       3.214  -4.696 -12.699  0.00  0.00    +0.000 C 
ATOM     11  H   UNL     1       3.034  -5.639 -12.171  0.00  0.00    +0.000 HD
ATOM     12  H   UNL     1       2.391  -4.012 -12.468  0.00  0.00    +0.000 HD
BRANCH  10  14
ATOM     13  O   UNL     1       3.198  -4.140 -15.064  0.00  0.00    +0.000 OA
ATOM     14  C   UNL     1       3.165  -4.991 -14.179  0.00  0.00    +0.000 C 
ATOM     15  H   UNL     1       3.099  -6.061 -14.438  0.00  0.00    +0.000 HD
ENDBRANCH  10  14
ENDBRANCH   7  10
ENDBRANCH   4   7
ENDBRANCH   1   4
BRANCH   1  16
ATOM     16  C   UNL     1       5.023  -6.710  -9.427  0.00  0.00    +0.000 C 
ATOM     17  H   UNL     1       4.709  -7.736  -9.653  0.00  0.00    +0.000 HD
ATOM     18  H   UNL     1       4.766  -6.517  -8.378  0.00  0.00    +0.000 HD
BRANCH  16  19
ATOM     19  C   UNL     1       6.534  -6.581  -9.613  0.00  0.00    +0.000 C 
ATOM     20  H   UNL     1       6.953  -7.545  -9.928  0.00  0.00    +0.000 HD
ATOM     21  H   UNL     1       6.752  -5.858 -10.408  0.00  0.00    +0.000 HD
BRANCH  19  22
ATOM     22  C   UNL     1       7.219  -6.134  -8.332  0.00  0.00    +0.000 C 
ATOM     23  H   UNL     1       6.638  -6.432  -7.454  0.00  0.00    +0.000 HD
ATOM     24  H   UNL     1       7.322  -5.044  -8.317  0.00  0.00    +0.000 HD
ATOM     25  H   UNL     1       8.218  -6.572  -8.248  0.00  0.00    +0.000 HD
ENDBRANCH  19  22
ENDBRANCH  16  19
ENDBRANCH   1  16
TORSDOF 7
ENDMDL
MODEL 3
REMARK VINA RESULT:    -3.899     13.937     14.805
REMARK INTER + INTRA:          -5.912
REMARK INTER:                  -5.497
REMARK INTRA:                  -0.415
REMARK UNBOUND:                -0.532
REMARK  Name = 454
REMARK  7 active torsions:
REMARK  status: ('A' for Active; 'I' for Inactive)
REMARK    1  A    between atoms: C_2  and  C_3
REMARK    2  A    between atoms: C_2  and  C_4
REMARK    3  A    between atoms: C_3  and  C_5
REMARK    4  A    between atoms: C_4  and  C_6
REMARK    5  A    between atoms: C_5  and  C_7
REMARK    6  A    between atoms: C_6  and  C_8
REMARK    7  A    between atoms: C_7  and  C_9
REMARK                            x       y       z     vdW  Elec       q    Type
REMARK                         _______ _______ _______ _____ _____    ______ ____
ROOT
ATOM      1  C   UNL     1      15.835  -4.897  -2.522  0.00  0.00    +0.000 C 
ATOM      2  H   UNL     1      15.034  -4.326  -3.007  0.00  0.00    +0.000 HD
ATOM      3  H   UNL     1      16.048  -4.408  -1.564  0.00  0.00    +0.000 HD
ENDROOT
BRANCH   1   4
ATOM      4  C   UNL     1      15.361  -6.330  -2.266  0.00  0.00    +0.000 C 
ATOM      5  H   UNL     1      16.002  -7.030  -2.815  0.00  0.00    +0.000 HD
ATOM      6  H   UNL     1      14.346  -6.448  -2.668  0.00  0.00    +0.000 HD
BRANCH   4   7
ATOM      7  C   UNL     1      15.360  -6.714  -0.785  0.00  0.00    +0.000 C 
ATOM      8  H   UNL     1      14.371  -7.101  -0.510  0.00  0.00    +0.000 HD
ATOM      9  H   UNL     1      16.068  -7.538  -0.632  0.00  0.00    +0.000 HD
BRANCH   7  10
ATOM     10  C   UNL     1      15.728  -5.558   0.141  0.00  0.00    +0.000 C 
ATOM     11  H   UNL     1      15.723  -4.610  -0.409  0.00  0.00    +0.000 HD
ATOM     12  H   UNL     1      15.005  -5.481   0.960  0.00  0.00    +0.000 HD
BRANCH  10  14
ATOM     13  O   UNL     1      18.157  -5.574   0.146  0.00  0.00    +0.000 OA
ATOM     14  C   UNL     1      17.100  -5.719   0.752  0.00  0.00    +0.000 C 
ATOM     15  H   UNL     1      17.103  -5.980   1.823  0.00  0.00    +0.000 HD
ENDBRANCH  10  14
ENDBRANCH   7  10
ENDBRANCH   4   7
ENDBRANCH   1   4
BRANCH   1  16
ATOM     16  C   UNL     1      17.088  -4.877  -3.401  0.00  0.00    +0.000 C 
ATOM     17  H   UNL     1      17.860  -4.258  -2.927  0.00  0.00    +0.000 HD
ATOM     18  H   UNL     1      16.850  -4.414  -4.366  0.00  0.00    +0.000 HD
BRANCH  16  19
ATOM     19  C   UNL     1      17.629  -6.287  -3.632  0.00  0.00    +0.000 C 
ATOM     20  H   UNL     1      18.622  -6.382  -3.176  0.00  0.00    +0.000 HD
ATOM     21  H   UNL     1      16.977  -7.021  -3.145  0.00  0.00    +0.000 HD
BRANCH  19  22
ATOM     22  C   UNL     1      17.725  -6.613  -5.113  0.00  0.00    +0.000 C 
ATOM     23  H   UNL     1      18.603  -7.232  -5.322  0.00  0.00    +0.000 HD
ATOM     24  H   UNL     1      17.812  -5.692  -5.699  0.00  0.00    +0.000 HD
ATOM     25  H   UNL     1      16.836  -7.151  -5.455  0.00  0.00    +0.000 HD
ENDBRANCH  19  22
ENDBRANCH  16  19
ENDBRANCH   1  16
TORSDOF 7
ENDMDL
MODEL 4
REMARK VINA RESULT:    -3.861     16.085     18.152
REMARK INTER + INTRA:          -5.859
REMARK INTER:                  -5.394
REMARK INTRA:                  -0.465
REMARK UNBOUND:                -0.532
REMARK  Name = 454
REMARK  7 active torsions:
REMARK  status: ('A' for Active; 'I' for Inactive)
REMARK    1  A    between atoms: C_2  and  C_3
REMARK    2  A    between atoms: C_2  and  C_4
REMARK    3  A    between atoms: C_3  and  C_5
REMARK    4  A    between atoms: C_4  and  C_6
REMARK    5  A    between atoms: C_5  and  C_7
REMARK    6  A    between atoms: C_6  and  C_8
REMARK    7  A    between atoms: C_7  and  C_9
REMARK                            x       y       z     vdW  Elec       q    Type
REMARK                         _______ _______ _______ _____ _____    ______ ____
ROOT
ATOM      1  C   UNL     1      -6.113 -12.852   4.345  0.00  0.00    +0.000 C 
ATOM      2  H   UNL     1      -5.831 -11.826   4.078  0.00  0.00    +0.000 HD
ATOM      3  H   UNL     1      -5.487 -13.149   5.195  0.00  0.00    +0.000 HD
ENDROOT
BRANCH   1   4
ATOM      4  C   UNL     1      -7.585 -12.887   4.763  0.00  0.00    +0.000 C 
ATOM      5  H   UNL     1      -8.162 -13.451   4.019  0.00  0.00    +0.000 HD
ATOM      6  H   UNL     1      -7.982 -11.864   4.762  0.00  0.00    +0.000 HD
BRANCH   4   7
ATOM      7  C   UNL     1      -7.810 -13.510   6.142  0.00  0.00    +0.000 C 
ATOM      8  H   UNL     1      -6.846 -13.611   6.657  0.00  0.00    +0.000 HD
ATOM      9  H   UNL     1      -8.413 -12.823   6.748  0.00  0.00    +0.000 HD
BRANCH   7  10
ATOM     10  C   UNL     1      -8.501 -14.870   6.087  0.00  0.00    +0.000 C 
ATOM     11  H   UNL     1      -9.238 -14.959   6.893  0.00  0.00    +0.000 HD
ATOM     12  H   UNL     1      -9.023 -14.993   5.132  0.00  0.00    +0.000 HD
BRANCH  10  14
ATOM     13  O   UNL     1      -6.312 -15.923   6.127  0.00  0.00    +0.000 OA
ATOM     14  C   UNL     1      -7.532 -16.019   6.232  0.00  0.00    +0.000 C 
ATOM     15  H   UNL     1      -7.997 -16.994   6.453  0.00  0.00    +0.000 HD
ENDBRANCH  10  14
ENDBRANCH   7  10
ENDBRANCH   4   7
ENDBRANCH   1   4
BRANCH   1  16
ATOM     16  C   UNL     1      -5.850 -13.785   3.161  0.00  0.00    +0.000 C 
ATOM     17  H   UNL     1      -5.416 -14.725   3.522  0.00  0.00    +0.000 HD
ATOM     18  H   UNL     1      -5.113 -13.326   2.490  0.00  0.00    +0.000 HD
BRANCH  16  19
ATOM     19  C   UNL     1      -7.134 -14.076   2.385  0.00  0.00    +0.000 C 
ATOM     20  H   UNL     1      -7.293 -15.159   2.325  0.00  0.00    +0.000 HD
ATOM     21  H   UNL     1      -7.994 -13.649   2.915  0.00  0.00    +0.000 HD
BRANCH  19  22
ATOM     22  C   UNL     1      -7.079 -13.500   0.980  0.00  0.00    +0.000 C 
ATOM     23  H   UNL     1      -6.377 -14.060   0.354  0.00  0.00    +0.000 HD
ATOM     24  H   UNL     1      -6.750 -12.456   1.010  0.00  0.00    +0.000 HD
ATOM     25  H   UNL     1      -8.064 -13.532   0.504  0.00  0.00    +0.000 HD
ENDBRANCH  19  22
ENDBRANCH  16  19
ENDBRANCH   1  16
TORSDOF 7
ENDMDL
MODEL 5
REMARK VINA RESULT:    -3.826     15.754     17.785
REMARK INTER + INTRA:          -5.811
REMARK INTER:                  -5.569
REMARK INTRA:                  -0.243
REMARK UNBOUND:                -0.532
REMARK  Name = 454
REMARK  7 active torsions:
REMARK  status: ('A' for Active; 'I' for Inactive)
REMARK    1  A    between atoms: C_2  and  C_3
REMARK    2  A    between atoms: C_2  and  C_4
REMARK    3  A    between atoms: C_3  and  C_5
REMARK    4  A    between atoms: C_4  and  C_6
REMARK    5  A    between atoms: C_5  and  C_7
REMARK    6  A    between atoms: C_6  and  C_8
REMARK    7  A    between atoms: C_7  and  C_9
REMARK                            x       y       z     vdW  Elec       q    Type
REMARK                         _______ _______ _______ _____ _____    ______ ____
ROOT
ATOM      1  C   UNL     1      -6.485 -12.736   4.397  0.00  0.00    +0.000 C 
ATOM      2  H   UNL     1      -5.728 -13.022   5.137  0.00  0.00    +0.000 HD
ATOM      3  H   UNL     1      -6.406 -11.652   4.254  0.00  0.00    +0.000 HD
ENDROOT
BRANCH   1   4
ATOM      4  C   UNL     1      -6.200 -13.445   3.071  0.00  0.00    +0.000 C 
ATOM      5  H   UNL     1      -5.822 -14.456   3.271  0.00  0.00    +0.000 HD
ATOM      6  H   UNL     1      -5.403 -12.908   2.542  0.00  0.00    +0.000 HD
BRANCH   4   7
ATOM      7  C   UNL     1      -7.425 -13.546   2.160  0.00  0.00    +0.000 C 
ATOM      8  H   UNL     1      -8.034 -14.407   2.463  0.00  0.00    +0.000 HD
ATOM      9  H   UNL     1      -8.052 -12.658   2.309  0.00  0.00    +0.000 HD
BRANCH   7  10
ATOM     10  C   UNL     1      -7.072 -13.670   0.681  0.00  0.00    +0.000 C 
ATOM     11  H   UNL     1      -7.857 -13.222   0.060  0.00  0.00    +0.000 HD
ATOM     12  H   UNL     1      -6.131 -13.151   0.469  0.00  0.00    +0.000 HD
BRANCH  10  14
ATOM     13  O   UNL     1      -7.452 -16.067   0.783  0.00  0.00    +0.000 OA
ATOM     14  C   UNL     1      -6.914 -15.106   0.241  0.00  0.00    +0.000 C 
ATOM     15  H   UNL     1      -6.263 -15.254  -0.637  0.00  0.00    +0.000 HD
ENDBRANCH  10  14
ENDBRANCH   7  10
ENDBRANCH   4   7
ENDBRANCH   1   4
BRANCH   1  16
ATOM     16  C   UNL     1      -7.879 -13.085   4.923  0.00  0.00    +0.000 C 
ATOM     17  H   UNL     1      -8.286 -13.931   4.356  0.00  0.00    +0.000 HD
ATOM     18  H   UNL     1      -8.554 -12.235   4.765  0.00  0.00    +0.000 HD
BRANCH  16  19
ATOM     19  C   UNL     1      -7.841 -13.435   6.411  0.00  0.00    +0.000 C 
ATOM     20  H   UNL     1      -6.879 -13.131   6.839  0.00  0.00    +0.000 HD
ATOM     21  H   UNL     1      -8.624 -12.881   6.943  0.00  0.00    +0.000 HD
BRANCH  19  22
ATOM     22  C   UNL     1      -8.042 -14.924   6.639  0.00  0.00    +0.000 C 
ATOM     23  H   UNL     1      -7.121 -15.479   6.435  0.00  0.00    +0.000 HD
ATOM     24  H   UNL     1      -8.824 -15.308   5.976  0.00  0.00    +0.000 HD
ATOM     25  H   UNL     1      -8.343 -15.125   7.672  0.00  0.00    +0.000 HD
ENDBRANCH  19  22
ENDBRANCH  16  19
ENDBRANCH   1  16
TORSDOF 7
ENDMDL
MODEL 6
REMARK VINA RESULT:    -3.825     34.458     35.461
REMARK INTER + INTRA:          -5.810
REMARK INTER:                  -5.541
REMARK INTRA:                  -0.269
REMARK UNBOUND:                -0.532
REMARK  Name = 454
REMARK  7 active torsions:
REMARK  status: ('A' for Active; 'I' for Inactive)
REMARK    1  A    between atoms: C_2  and  C_3
REMARK    2  A    between atoms: C_2  and  C_4
REMARK    3  A    between atoms: C_3  and  C_5
REMARK    4  A    between atoms: C_4  and  C_6
REMARK    5  A    between atoms: C_5  and  C_7
REMARK    6  A    between atoms: C_6  and  C_8
REMARK    7  A    between atoms: C_7  and  C_9
REMARK                            x       y       z     vdW  Elec       q    Type
REMARK                         _______ _______ _______ _____ _____    ______ ____
ROOT
ATOM      1  C   UNL     1      -2.053   6.045  25.380  0.00  0.00    +0.000 C 
ATOM      2  H   UNL     1      -2.178   7.099  25.656  0.00  0.00    +0.000 HD
ATOM      3  H   UNL     1      -1.147   5.684  25.882  0.00  0.00    +0.000 HD
ENDROOT
BRANCH   1   4
ATOM      4  C   UNL     1      -3.258   5.239  25.869  0.00  0.00    +0.000 C 
ATOM      5  H   UNL     1      -3.920   5.891  26.453  0.00  0.00    +0.000 HD
ATOM      6  H   UNL     1      -2.911   4.451  26.548  0.00  0.00    +0.000 HD
BRANCH   4   7
ATOM      7  C   UNL     1      -4.064   4.602  24.734  0.00  0.00    +0.000 C 
ATOM      8  H   UNL     1      -3.867   5.144  23.800  0.00  0.00    +0.000 HD
ATOM      9  H   UNL     1      -3.707   3.577  24.577  0.00  0.00    +0.000 HD
BRANCH   7  10
ATOM     10  C   UNL     1      -5.567   4.576  24.998  0.00  0.00    +0.000 C 
ATOM     11  H   UNL     1      -6.090   5.242  24.302  0.00  0.00    +0.000 HD
ATOM     12  H   UNL     1      -5.959   3.563  24.862  0.00  0.00    +0.000 HD
BRANCH  10  14
ATOM     13  O   UNL     1      -6.322   4.279  27.287  0.00  0.00    +0.000 OA
ATOM     14  C   UNL     1      -5.916   5.021  26.398  0.00  0.00    +0.000 C 
ATOM     15  H   UNL     1      -5.777   6.098  26.592  0.00  0.00    +0.000 HD
ENDBRANCH  10  14
ENDBRANCH   7  10
ENDBRANCH   4   7
ENDBRANCH   1   4
BRANCH   1  16
ATOM     16  C   UNL     1      -1.883   5.925  23.864  0.00  0.00    +0.000 C 
ATOM     17  H   UNL     1      -2.868   5.929  23.382  0.00  0.00    +0.000 HD
ATOM     18  H   UNL     1      -1.410   4.965  23.623  0.00  0.00    +0.000 HD
BRANCH  16  19
ATOM     19  C   UNL     1      -1.032   7.066  23.306  0.00  0.00    +0.000 C 
ATOM     20  H   UNL     1      -0.359   7.442  24.086  0.00  0.00    +0.000 HD
ATOM     21  H   UNL     1      -0.406   6.696  22.486  0.00  0.00    +0.000 HD
BRANCH  19  22
ATOM     22  C   UNL     1      -1.896   8.208  22.797  0.00  0.00    +0.000 C 
ATOM     23  H   UNL     1      -1.889   9.047  23.500  0.00  0.00    +0.000 HD
ATOM     24  H   UNL     1      -2.931   7.876  22.674  0.00  0.00    +0.000 HD
ATOM     25  H   UNL     1      -1.537   8.568  21.828  0.00  0.00    +0.000 HD
ENDBRANCH  19  22
ENDBRANCH  16  19
ENDBRANCH   1  16
TORSDOF 7
ENDMDL
MODEL 7
REMARK VINA RESULT:    -3.807     35.113     36.340
REMARK INTER + INTRA:          -5.785
REMARK INTER:                  -5.575
REMARK INTRA:                  -0.210
REMARK UNBOUND:                -0.532
REMARK  Name = 454
REMARK  7 active torsions:
REMARK  status: ('A' for Active; 'I' for Inactive)
REMARK    1  A    between atoms: C_2  and  C_3
REMARK    2  A    between atoms: C_2  and  C_4
REMARK    3  A    between atoms: C_3  and  C_5
REMARK    4  A    between atoms: C_4  and  C_6
REMARK    5  A    between atoms: C_5  and  C_7
REMARK    6  A    between atoms: C_6  and  C_8
REMARK    7  A    between atoms: C_7  and  C_9
REMARK                            x       y       z     vdW  Elec       q    Type
REMARK                         _______ _______ _______ _____ _____    ______ ____
ROOT
ATOM      1  C   UNL     1      -3.270   5.011  25.298  0.00  0.00    +0.000 C 
ATOM      2  H   UNL     1      -3.593   5.722  26.067  0.00  0.00    +0.000 HD
ATOM      3  H   UNL     1      -2.705   4.219  25.805  0.00  0.00    +0.000 HD
ENDROOT
BRANCH   1   4
ATOM      4  C   UNL     1      -4.496   4.402  24.615  0.00  0.00    +0.000 C 
ATOM      5  H   UNL     1      -4.351   3.320  24.501  0.00  0.00    +0.000 HD
ATOM      6  H   UNL     1      -4.586   4.817  23.603  0.00  0.00    +0.000 HD
BRANCH   4   7
ATOM      7  C   UNL     1      -5.801   4.650  25.375  0.00  0.00    +0.000 C 
ATOM      8  H   UNL     1      -6.090   5.703  25.267  0.00  0.00    +0.000 HD
ATOM      9  H   UNL     1      -6.601   4.062  24.909  0.00  0.00    +0.000 HD
BRANCH   7  10
ATOM     10  C   UNL     1      -5.715   4.297  26.857  0.00  0.00    +0.000 C 
ATOM     11  H   UNL     1      -6.293   3.390  27.069  0.00  0.00    +0.000 HD
ATOM     12  H   UNL     1      -4.675   4.115  27.145  0.00  0.00    +0.000 HD
BRANCH  10  14
ATOM     13  O   UNL     1      -7.296   6.008  27.544  0.00  0.00    +0.000 OA
ATOM     14  C   UNL     1      -6.253   5.393  27.745  0.00  0.00    +0.000 C 
ATOM     15  H   UNL     1      -5.634   5.621  28.629  0.00  0.00    +0.000 HD
ENDBRANCH  10  14
ENDBRANCH   7  10
ENDBRANCH   4   7
ENDBRANCH   1   4
BRANCH   1  16
ATOM     16  C   UNL     1      -2.367   5.720  24.287  0.00  0.00    +0.000 C 
ATOM     17  H   UNL     1      -2.978   6.333  23.613  0.00  0.00    +0.000 HD
ATOM     18  H   UNL     1      -1.854   4.974  23.667  0.00  0.00    +0.000 HD
BRANCH  16  19
ATOM     19  C   UNL     1      -1.331   6.601  24.985  0.00  0.00    +0.000 C 
ATOM     20  H   UNL     1      -0.343   6.435  24.541  0.00  0.00    +0.000 HD
ATOM     21  H   UNL     1      -1.581   7.658  24.837  0.00  0.00    +0.000 HD
BRANCH  19  22
ATOM     22  C   UNL     1      -1.265   6.310  26.475  0.00  0.00    +0.000 C 
ATOM     23  H   UNL     1      -0.280   5.922  26.755  0.00  0.00    +0.000 HD
ATOM     24  H   UNL     1      -2.015   5.561  26.750  0.00  0.00    +0.000 HD
ATOM     25  H   UNL     1      -1.457   7.214  27.061  0.00  0.00    +0.000 HD
ENDBRANCH  19  22
ENDBRANCH  16  19
ENDBRANCH   1  16
TORSDOF 7
ENDMDL
MODEL 8
REMARK VINA RESULT:    -3.728     13.815     14.788
REMARK INTER + INTRA:          -5.677
REMARK INTER:                  -5.396
REMARK INTRA:                  -0.281
REMARK UNBOUND:                -0.532
REMARK  Name = 454
REMARK  7 active torsions:
REMARK  status: ('A' for Active; 'I' for Inactive)
REMARK    1  A    between atoms: C_2  and  C_3
REMARK    2  A    between atoms: C_2  and  C_4
REMARK    3  A    between atoms: C_3  and  C_5
REMARK    4  A    between atoms: C_4  and  C_6
REMARK    5  A    between atoms: C_5  and  C_7
REMARK    6  A    between atoms: C_6  and  C_8
REMARK    7  A    between atoms: C_7  and  C_9
REMARK                            x       y       z     vdW  Elec       q    Type
REMARK                         _______ _______ _______ _____ _____    ______ ____
ROOT
ATOM      1  C   UNL     1      17.012  -6.186  -4.152  0.00  0.00    +0.000 C 
ATOM      2  H   UNL     1      16.479  -7.041  -3.719  0.00  0.00    +0.000 HD
ATOM      3  H   UNL     1      16.428  -5.844  -5.015  0.00  0.00    +0.000 HD
ENDROOT
BRANCH   1   4
ATOM      4  C   UNL     1      17.099  -5.059  -3.120  0.00  0.00    +0.000 C 
ATOM      5  H   UNL     1      17.220  -4.099  -3.637  0.00  0.00    +0.000 HD
ATOM      6  H   UNL     1      17.998  -5.204  -2.507  0.00  0.00    +0.000 HD
BRANCH   4   7
ATOM      7  C   UNL     1      15.876  -4.978  -2.204  0.00  0.00    +0.000 C 
ATOM      8  H   UNL     1      16.099  -4.315  -1.358  0.00  0.00    +0.000 HD
ATOM      9  H   UNL     1      15.051  -4.510  -2.754  0.00  0.00    +0.000 HD
BRANCH   7  10
ATOM     10  C   UNL     1      15.423  -6.337  -1.677  0.00  0.00    +0.000 C 
ATOM     11  H   UNL     1      14.336  -6.441  -1.771  0.00  0.00    +0.000 HD
ATOM     12  H   UNL     1      15.894  -7.143  -2.249  0.00  0.00    +0.000 HD
BRANCH  10  14
ATOM     13  O   UNL     1      15.057  -7.111   0.596  0.00  0.00    +0.000 OA
ATOM     14  C   UNL     1      15.772  -6.540  -0.222  0.00  0.00    +0.000 C 
ATOM     15  H   UNL     1      16.752  -6.134   0.081  0.00  0.00    +0.000 HD
ENDBRANCH  10  14
ENDBRANCH   7  10
ENDBRANCH   4   7
ENDBRANCH   1   4
BRANCH   1  16
ATOM     16  C   UNL     1      18.403  -6.625  -4.613  0.00  0.00    +0.000 C 
ATOM     17  H   UNL     1      18.574  -6.287  -5.642  0.00  0.00    +0.000 HD
ATOM     18  H   UNL     1      18.457  -7.721  -4.620  0.00  0.00    +0.000 HD
BRANCH  16  19
ATOM     19  C   UNL     1      19.494  -6.067  -3.700  0.00  0.00    +0.000 C 
ATOM     20  H   UNL     1      19.060  -5.339  -3.005  0.00  0.00    +0.000 HD
ATOM     21  H   UNL     1      19.924  -6.876  -3.097  0.00  0.00    +0.000 HD
BRANCH  19  22
ATOM     22  C   UNL     1      20.602  -5.399  -4.498  0.00  0.00    +0.000 C 
ATOM     23  H   UNL     1      20.261  -5.151  -5.508  0.00  0.00    +0.000 HD
ATOM     24  H   UNL     1      21.464  -6.067  -4.585  0.00  0.00    +0.000 HD
ATOM     25  H   UNL     1      20.934  -4.477  -4.011  0.00  0.00    +0.000 HD
ENDBRANCH  19  22
ENDBRANCH  16  19
ENDBRANCH   1  16
TORSDOF 7
ENDMDL
MODEL 9
REMARK VINA RESULT:    -3.641     14.833     16.623
REMARK INTER + INTRA:          -5.556
REMARK INTER:                  -5.205
REMARK INTRA:                  -0.352
REMARK UNBOUND:                -0.532
REMARK  Name = 454
REMARK  7 active torsions:
REMARK  status: ('A' for Active; 'I' for Inactive)
REMARK    1  A    between atoms: C_2  and  C_3
REMARK    2  A    between atoms: C_2  and  C_4
REMARK    3  A    between atoms: C_3  and  C_5
REMARK    4  A    between atoms: C_4  and  C_6
REMARK    5  A    between atoms: C_5  and  C_7
REMARK    6  A    between atoms: C_6  and  C_8
REMARK    7  A    between atoms: C_7  and  C_9
REMARK                            x       y       z     vdW  Elec       q    Type
REMARK                         _______ _______ _______ _____ _____    ______ ____
ROOT
ATOM      1  C   UNL     1      17.864  -6.343  -4.463  0.00  0.00    +0.000 C 
ATOM      2  H   UNL     1      17.861  -5.520  -5.188  0.00  0.00    +0.000 HD
ATOM      3  H   UNL     1      17.783  -7.277  -5.033  0.00  0.00    +0.000 HD
ENDROOT
BRANCH   1   4
ATOM      4  C   UNL     1      19.182  -6.337  -3.685  0.00  0.00    +0.000 C 
ATOM      5  H   UNL     1      19.607  -7.348  -3.679  0.00  0.00    +0.000 HD
ATOM      6  H   UNL     1      18.980  -6.072  -2.640  0.00  0.00    +0.000 HD
BRANCH   4   7
ATOM      7  C   UNL     1      20.219  -5.366  -4.255  0.00  0.00    +0.000 C 
ATOM      8  H   UNL     1      21.224  -5.695  -3.961  0.00  0.00    +0.000 HD
ATOM      9  H   UNL     1      20.187  -5.415  -5.350  0.00  0.00    +0.000 HD
BRANCH   7  10
ATOM     10  C   UNL     1      20.007  -3.922  -3.810  0.00  0.00    +0.000 C 
ATOM     11  H   UNL     1      20.690  -3.252  -4.344  0.00  0.00    +0.000 HD
ATOM     12  H   UNL     1      18.980  -3.605  -4.023  0.00  0.00    +0.000 HD
BRANCH  10  14
ATOM     13  O   UNL     1      21.344  -3.497  -1.827  0.00  0.00    +0.000 OA
ATOM     14  C   UNL     1      20.250  -3.730  -2.332  0.00  0.00    +0.000 C 
ATOM     15  H   UNL     1      19.350  -3.809  -1.699  0.00  0.00    +0.000 HD
ENDBRANCH  10  14
ENDBRANCH   7  10
ENDBRANCH   4   7
ENDBRANCH   1   4
BRANCH   1  16
ATOM     16  C   UNL     1      16.665  -6.208  -3.523  0.00  0.00    +0.000 C 
ATOM     17  H   UNL     1      16.722  -6.973  -2.740  0.00  0.00    +0.000 HD
ATOM     18  H   UNL     1      15.738  -6.388  -4.083  0.00  0.00    +0.000 HD
BRANCH  16  19
ATOM     19  C   UNL     1      16.612  -4.821  -2.883  0.00  0.00    +0.000 C 
ATOM     20  H   UNL     1      17.624  -4.497  -2.615  0.00  0.00    +0.000 HD
ATOM     21  H   UNL     1      16.218  -4.094  -3.603  0.00  0.00    +0.000 HD
BRANCH  19  22
ATOM     22  C   UNL     1      15.738  -4.813  -1.639  0.00  0.00    +0.000 C 
ATOM     23  H   UNL     1      16.291  -5.181  -0.770  0.00  0.00    +0.000 HD
ATOM     24  H   UNL     1      14.865  -5.457  -1.784  0.00  0.00    +0.000 HD
ATOM     25  H   UNL     1      15.382  -3.803  -1.417  0.00  0.00    +0.000 HD
ENDBRANCH  19  22
ENDBRANCH  16  19
ENDBRANCH   1  16
TORSDOF 7
ENDMDL
MODEL 10
REMARK VINA RESULT:    -3.617     14.754     15.706
REMARK INTER + INTRA:          -5.523
REMARK INTER:                  -4.991
REMARK INTRA:                  -0.532
REMARK UNBOUND:                -0.532
REMARK  Name = 454
REMARK  7 active torsions:
REMARK  status: ('A' for Active; 'I' for Inactive)
REMARK    1  A    between atoms: C_2  and  C_3
REMARK    2  A    between atoms: C_2  and  C_4
REMARK    3  A    between atoms: C_3  and  C_5
REMARK    4  A    between atoms: C_4  and  C_6
REMARK    5  A    between atoms: C_5  and  C_7
REMARK    6  A    between atoms: C_6  and  C_8
REMARK    7  A    between atoms: C_7  and  C_9
REMARK                            x       y       z     vdW  Elec       q    Type
REMARK                         _______ _______ _______ _____ _____    ______ ____
ROOT
ATOM      1  C   UNL     1      16.833  -6.351  -3.403  0.00  0.00    +0.000 C 
ATOM      2  H   UNL     1      17.381  -6.803  -2.568  0.00  0.00    +0.000 HD
ATOM      3  H   UNL     1      15.907  -6.925  -3.533  0.00  0.00    +0.000 HD
ENDROOT
BRANCH   1   4
ATOM      4  C   UNL     1      16.485  -4.900  -3.062  0.00  0.00    +0.000 C 
ATOM      5  H   UNL     1      15.564  -4.613  -3.585  0.00  0.00    +0.000 HD
ATOM      6  H   UNL     1      17.280  -4.244  -3.438  0.00  0.00    +0.000 HD
BRANCH   4   7
ATOM      7  C   UNL     1      16.301  -4.656  -1.563  0.00  0.00    +0.000 C 
ATOM      8  H   UNL     1      15.444  -3.988  -1.406  0.00  0.00    +0.000 HD
ATOM      9  H   UNL     1      16.044  -5.605  -1.077  0.00  0.00    +0.000 HD
BRANCH   7  10
ATOM     10  C   UNL     1      17.535  -4.064  -0.889  0.00  0.00    +0.000 C 
ATOM     11  H   UNL     1      17.243  -3.330  -0.129  0.00  0.00    +0.000 HD
ATOM     12  H   UNL     1      18.115  -4.852  -0.398  0.00  0.00    +0.000 HD
BRANCH  10  14
ATOM     13  O   UNL     1      19.673  -3.432  -1.854  0.00  0.00    +0.000 OA
ATOM     14  C   UNL     1      18.448  -3.362  -1.867  0.00  0.00    +0.000 C 
ATOM     15  H   UNL     1      17.933  -2.759  -2.633  0.00  0.00    +0.000 HD
ENDBRANCH  10  14
ENDBRANCH   7  10
ENDBRANCH   4   7
ENDBRANCH   1   4
BRANCH   1  16
ATOM     16  C   UNL     1      17.674  -6.434  -4.678  0.00  0.00    +0.000 C 
ATOM     17  H   UNL     1      17.220  -5.814  -5.460  0.00  0.00    +0.000 HD
ATOM     18  H   UNL     1      17.677  -7.468  -5.048  0.00  0.00    +0.000 HD
BRANCH  16  19
ATOM     19  C   UNL     1      19.111  -5.978  -4.429  0.00  0.00    +0.000 C 
ATOM     20  H   UNL     1      19.713  -6.139  -5.331  0.00  0.00    +0.000 HD
ATOM     21  H   UNL     1      19.128  -4.903  -4.215  0.00  0.00    +0.000 HD
BRANCH  19  22
ATOM     22  C   UNL     1      19.741  -6.727  -3.267  0.00  0.00    +0.000 C 
ATOM     23  H   UNL     1      18.974  -7.101  -2.581  0.00  0.00    +0.000 HD
ATOM     24  H   UNL     1      20.406  -6.065  -2.704  0.00  0.00    +0.000 HD
ATOM     25  H   UNL     1      20.329  -7.578  -3.622  0.00  0.00    +0.000 HD
ENDBRANCH  19  22
ENDBRANCH  16  19
ENDBRANCH   1  16
TORSDOF 7
ENDMDL
