MODEL 1
REMARK VINA RESULT:    -4.427      0.000      0.000
REMARK INTER + INTRA:          -6.428
REMARK INTER:                  -6.034
REMARK INTRA:                  -0.395
REMARK UNBOUND:                -0.189
REMARK  Name = 379
REMARK  8 active torsions:
REMARK  status: ('A' for Active; 'I' for Inactive)
REMARK    1  A    between atoms: O_1  and  C_10
REMARK    2  A    between atoms: C_3  and  C_4
REMARK    3  A    between atoms: C_3  and  C_5
REMARK    4  A    between atoms: C_4  and  C_6
REMARK    5  A    between atoms: C_5  and  C_7
REMARK    6  A    between atoms: C_6  and  C_8
REMARK    7  A    between atoms: C_7  and  C_9
REMARK    8  A    between atoms: C_8  and  C_10
REMARK                            x       y       z     vdW  Elec       q    Type
REMARK                         _______ _______ _______ _____ _____    ______ ____
ROOT
ATOM      1  C   UNL     1      -3.371   4.697  24.946  0.00  0.00    +0.000 C 
ATOM      2  H   UNL     1      -3.286   4.816  26.033  0.00  0.00    +0.000 HD
ATOM      3  H   UNL     1      -2.990   3.696  24.707  0.00  0.00    +0.000 HD
ENDROOT
BRANCH   1   4
ATOM      4  C   UNL     1      -4.849   4.772  24.553  0.00  0.00    +0.000 C 
ATOM      5  H   UNL     1      -5.029   5.725  24.039  0.00  0.00    +0.000 HD
ATOM      6  H   UNL     1      -5.054   3.982  23.818  0.00  0.00    +0.000 HD
BRANCH   4   7
ATOM      7  C   UNL     1      -5.853   4.639  25.702  0.00  0.00    +0.000 C 
ATOM      8  H   UNL     1      -6.664   5.363  25.553  0.00  0.00    +0.000 HD
ATOM      9  H   UNL     1      -6.316   3.646  25.658  0.00  0.00    +0.000 HD
BRANCH   7  10
ATOM     10  C   UNL     1      -5.230   4.853  27.081  0.00  0.00    +0.000 C 
ATOM     11  H   UNL     1      -5.849   5.544  27.664  0.00  0.00    +0.000 HD
ATOM     12  H   UNL     1      -4.226   5.277  26.971  0.00  0.00    +0.000 HD
BRANCH  10  14
ATOM     13  O   UNL     1      -4.102   2.880  27.955  0.00  0.00    +0.000 OA
ATOM     14  C   UNL     1      -5.114   3.558  27.853  0.00  0.00    +0.000 C 
BRANCH  14  15
ATOM     15  O   UNL     1      -6.292   3.225  28.443  0.00  0.00    +0.000 OA
ATOM     16  H   UNL     1      -6.777   4.016  28.763  0.00  0.00    +0.000 HD
ENDBRANCH  14  15
ENDBRANCH  10  14
ENDBRANCH   7  10
ENDBRANCH   4   7
ENDBRANCH   1   4
BRANCH   1  17
ATOM     17  C   UNL     1      -2.502   5.747  24.250  0.00  0.00    +0.000 C 
ATOM     18  H   UNL     1      -1.991   5.291  23.393  0.00  0.00    +0.000 HD
ATOM     19  H   UNL     1      -3.140   6.548  23.859  0.00  0.00    +0.000 HD
BRANCH  17  20
ATOM     20  C   UNL     1      -1.469   6.335  25.213  0.00  0.00    +0.000 C 
ATOM     21  H   UNL     1      -0.468   5.971  24.954  0.00  0.00    +0.000 HD
ATOM     22  H   UNL     1      -1.451   7.427  25.119  0.00  0.00    +0.000 HD
BRANCH  20  23
ATOM     23  C   UNL     1      -1.776   5.962  26.655  0.00  0.00    +0.000 C 
ATOM     24  H   UNL     1      -0.854   5.819  27.228  0.00  0.00    +0.000 HD
ATOM     25  H   UNL     1      -2.346   5.029  26.691  0.00  0.00    +0.000 HD
ATOM     26  H   UNL     1      -2.368   6.742  27.144  0.00  0.00    +0.000 HD
ENDBRANCH  20  23
ENDBRANCH  17  20
ENDBRANCH   1  17
TORSDOF 8
ENDMDL
MODEL 2
REMARK VINA RESULT:    -4.314     35.327     36.831
REMARK INTER + INTRA:          -6.268
REMARK INTER:                  -5.899
REMARK INTRA:                  -0.369
REMARK UNBOUND:                -0.189
REMARK  Name = 379
REMARK  8 active torsions:
REMARK  status: ('A' for Active; 'I' for Inactive)
REMARK    1  A    between atoms: O_1  and  C_10
REMARK    2  A    between atoms: C_3  and  C_4
REMARK    3  A    between atoms: C_3  and  C_5
REMARK    4  A    between atoms: C_4  and  C_6
REMARK    5  A    between atoms: C_5  and  C_7
REMARK    6  A    between atoms: C_6  and  C_8
REMARK    7  A    between atoms: C_7  and  C_9
REMARK    8  A    between atoms: C_8  and  C_10
REMARK                            x       y       z     vdW  Elec       q    Type
REMARK                         _______ _______ _______ _____ _____    ______ ____
ROOT
ATOM      1  C   UNL     1      17.262  -4.792  -3.018  0.00  0.00    +0.000 C 
ATOM      2  H   UNL     1      17.238  -4.364  -4.028  0.00  0.00    +0.000 HD
ATOM      3  H   UNL     1      17.748  -4.050  -2.372  0.00  0.00    +0.000 HD
ENDROOT
BRANCH   1   4
ATOM      4  C   UNL     1      15.823  -5.000  -2.535  0.00  0.00    +0.000 C 
ATOM      5  H   UNL     1      15.213  -4.152  -2.872  0.00  0.00    +0.000 HD
ATOM      6  H   UNL     1      15.415  -5.890  -3.032  0.00  0.00    +0.000 HD
BRANCH   4   7
ATOM      7  C   UNL     1      15.644  -5.162  -1.023  0.00  0.00    +0.000 C 
ATOM      8  H   UNL     1      16.533  -4.768  -0.514  0.00  0.00    +0.000 HD
ATOM      9  H   UNL     1      14.801  -4.542  -0.695  0.00  0.00    +0.000 HD
BRANCH   7  10
ATOM     10  C   UNL     1      15.414  -6.609  -0.589  0.00  0.00    +0.000 C 
ATOM     11  H   UNL     1      15.254  -7.240  -1.471  0.00  0.00    +0.000 HD
ATOM     12  H   UNL     1      14.530  -6.665   0.056  0.00  0.00    +0.000 HD
BRANCH  10  14
ATOM     13  O   UNL     1      16.769  -8.338   0.461  0.00  0.00    +0.000 OA
ATOM     14  C   UNL     1      16.594  -7.162   0.178  0.00  0.00    +0.000 C 
BRANCH  14  15
ATOM     15  O   UNL     1      17.465  -6.178   0.523  0.00  0.00    +0.000 OA
ATOM     16  H   UNL     1      17.103  -5.286   0.335  0.00  0.00    +0.000 HD
ENDBRANCH  14  15
ENDBRANCH  10  14
ENDBRANCH   7  10
ENDBRANCH   4   7
ENDBRANCH   1   4
BRANCH   1  17
ATOM     17  C   UNL     1      18.094  -6.076  -3.028  0.00  0.00    +0.000 C 
ATOM     18  H   UNL     1      18.930  -5.977  -2.324  0.00  0.00    +0.000 HD
ATOM     19  H   UNL     1      17.476  -6.913  -2.683  0.00  0.00    +0.000 HD
BRANCH  17  20
ATOM     20  C   UNL     1      18.632  -6.374  -4.429  0.00  0.00    +0.000 C 
ATOM     21  H   UNL     1      19.108  -5.479  -4.844  0.00  0.00    +0.000 HD
ATOM     22  H   UNL     1      19.399  -7.155  -4.374  0.00  0.00    +0.000 HD
BRANCH  20  23
ATOM     23  C   UNL     1      17.523  -6.826  -5.366  0.00  0.00    +0.000 C 
ATOM     24  H   UNL     1      17.859  -6.811  -6.408  0.00  0.00    +0.000 HD
ATOM     25  H   UNL     1      16.658  -6.162  -5.278  0.00  0.00    +0.000 HD
ATOM     26  H   UNL     1      17.196  -7.843  -5.125  0.00  0.00    +0.000 HD
ENDBRANCH  20  23
ENDBRANCH  17  20
ENDBRANCH   1  17
TORSDOF 8
ENDMDL
MODEL 3
REMARK VINA RESULT:    -4.272     45.321     46.462
REMARK INTER + INTRA:          -6.209
REMARK INTER:                  -5.885
REMARK INTRA:                  -0.325
REMARK UNBOUND:                -0.189
REMARK  Name = 379
REMARK  8 active torsions:
REMARK  status: ('A' for Active; 'I' for Inactive)
REMARK    1  A    between atoms: O_1  and  C_10
REMARK    2  A    between atoms: C_3  and  C_4
REMARK    3  A    between atoms: C_3  and  C_5
REMARK    4  A    between atoms: C_4  and  C_6
REMARK    5  A    between atoms: C_5  and  C_7
REMARK    6  A    between atoms: C_6  and  C_8
REMARK    7  A    between atoms: C_7  and  C_9
REMARK    8  A    between atoms: C_8  and  C_10
REMARK                            x       y       z     vdW  Elec       q    Type
REMARK                         _______ _______ _______ _____ _____    ______ ____
ROOT
ATOM      1  C   UNL     1       3.997   3.757 -20.798  0.00  0.00    +0.000 C 
ATOM      2  H   UNL     1       4.733   3.540 -21.583  0.00  0.00    +0.000 HD
ATOM      3  H   UNL     1       3.160   4.274 -21.284  0.00  0.00    +0.000 HD
ENDROOT
BRANCH   1   4
ATOM      4  C   UNL     1       3.491   2.435 -20.214  0.00  0.00    +0.000 C 
ATOM      5  H   UNL     1       3.944   1.607 -20.775  0.00  0.00    +0.000 HD
ATOM      6  H   UNL     1       3.860   2.347 -19.183  0.00  0.00    +0.000 HD
BRANCH   4   7
ATOM      7  C   UNL     1       1.971   2.248 -20.205  0.00  0.00    +0.000 C 
ATOM      8  H   UNL     1       1.714   1.394 -20.845  0.00  0.00    +0.000 HD
ATOM      9  H   UNL     1       1.651   1.980 -19.191  0.00  0.00    +0.000 HD
BRANCH   7  10
ATOM     10  C   UNL     1       1.204   3.483 -20.675  0.00  0.00    +0.000 C 
ATOM     11  H   UNL     1       0.417   3.185 -21.377  0.00  0.00    +0.000 HD
ATOM     12  H   UNL     1       1.889   4.174 -21.177  0.00  0.00    +0.000 HD
BRANCH  10  14
ATOM     13  O   UNL     1       0.725   5.393 -19.243  0.00  0.00    +0.000 OA
ATOM     14  C   UNL     1       0.555   4.215 -19.522  0.00  0.00    +0.000 C 
BRANCH  14  15
ATOM     15  O   UNL     1      -0.265   3.395 -18.813  0.00  0.00    +0.000 OA
ATOM     16  H   UNL     1      -0.198   2.463 -19.112  0.00  0.00    +0.000 HD
ENDBRANCH  14  15
ENDBRANCH  10  14
ENDBRANCH   7  10
ENDBRANCH   4   7
ENDBRANCH   1   4
BRANCH   1  17
ATOM     17  C   UNL     1       4.626   4.684 -19.756  0.00  0.00    +0.000 C 
ATOM     18  H   UNL     1       4.905   5.634 -20.229  0.00  0.00    +0.000 HD
ATOM     19  H   UNL     1       3.886   4.914 -18.980  0.00  0.00    +0.000 HD
BRANCH  17  20
ATOM     20  C   UNL     1       5.860   4.044 -19.119  0.00  0.00    +0.000 C 
ATOM     21  H   UNL     1       5.657   2.992 -18.887  0.00  0.00    +0.000 HD
ATOM     22  H   UNL     1       6.697   4.064 -19.826  0.00  0.00    +0.000 HD
BRANCH  20  23
ATOM     23  C   UNL     1       6.265   4.764 -17.842  0.00  0.00    +0.000 C 
ATOM     24  H   UNL     1       6.337   5.844 -18.007  0.00  0.00    +0.000 HD
ATOM     25  H   UNL     1       7.240   4.406 -17.498  0.00  0.00    +0.000 HD
ATOM     26  H   UNL     1       5.537   4.586 -17.044  0.00  0.00    +0.000 HD
ENDBRANCH  20  23
ENDBRANCH  17  20
ENDBRANCH   1  17
TORSDOF 8
ENDMDL
MODEL 4
REMARK VINA RESULT:    -4.255     28.062     29.067
REMARK INTER + INTRA:          -6.185
REMARK INTER:                  -5.862
REMARK INTRA:                  -0.323
REMARK UNBOUND:                -0.189
REMARK  Name = 379
REMARK  8 active torsions:
REMARK  status: ('A' for Active; 'I' for Inactive)
REMARK    1  A    between atoms: O_1  and  C_10
REMARK    2  A    between atoms: C_3  and  C_4
REMARK    3  A    between atoms: C_3  and  C_5
REMARK    4  A    between atoms: C_4  and  C_6
REMARK    5  A    between atoms: C_5  and  C_7
REMARK    6  A    between atoms: C_6  and  C_8
REMARK    7  A    between atoms: C_7  and  C_9
REMARK    8  A    between atoms: C_8  and  C_10
REMARK                            x       y       z     vdW  Elec       q    Type
REMARK                         _______ _______ _______ _____ _____    ______ ____
ROOT
ATOM      1  C   UNL     1      -6.358 -12.828   4.289  0.00  0.00    +0.000 C 
ATOM      2  H   UNL     1      -6.128 -11.757   4.232  0.00  0.00    +0.000 HD
ATOM      3  H   UNL     1      -5.694 -13.255   5.050  0.00  0.00    +0.000 HD
ENDROOT
BRANCH   1   4
ATOM      4  C   UNL     1      -7.810 -12.999   4.747  0.00  0.00    +0.000 C 
ATOM      5  H   UNL     1      -8.311 -12.023   4.696  0.00  0.00    +0.000 HD
ATOM      6  H   UNL     1      -8.328 -13.649   4.029  0.00  0.00    +0.000 HD
BRANCH   4   7
ATOM      7  C   UNL     1      -8.002 -13.576   6.152  0.00  0.00    +0.000 C 
ATOM      8  H   UNL     1      -7.502 -12.922   6.878  0.00  0.00    +0.000 HD
ATOM      9  H   UNL     1      -9.069 -13.554   6.404  0.00  0.00    +0.000 HD
BRANCH   7  10
ATOM     10  C   UNL     1      -7.469 -15.000   6.304  0.00  0.00    +0.000 C 
ATOM     11  H   UNL     1      -6.704 -15.028   7.088  0.00  0.00    +0.000 HD
ATOM     12  H   UNL     1      -7.025 -15.330   5.359  0.00  0.00    +0.000 HD
BRANCH  10  14
ATOM     13  O   UNL     1      -8.596 -16.648   7.697  0.00  0.00    +0.000 OA
ATOM     14  C   UNL     1      -8.563 -15.974   6.677  0.00  0.00    +0.000 C 
BRANCH  14  15
ATOM     15  O   UNL     1      -9.536 -16.014   5.729  0.00  0.00    +0.000 OA
ATOM     16  H   UNL     1      -9.281 -16.579   4.968  0.00  0.00    +0.000 HD
ENDBRANCH  14  15
ENDBRANCH  10  14
ENDBRANCH   7  10
ENDBRANCH   4   7
ENDBRANCH   1   4
BRANCH   1  17
ATOM     17  C   UNL     1      -6.065 -13.484   2.938  0.00  0.00    +0.000 C 
ATOM     18  H   UNL     1      -5.377 -12.850   2.364  0.00  0.00    +0.000 HD
ATOM     19  H   UNL     1      -5.562 -14.444   3.100  0.00  0.00    +0.000 HD
BRANCH  17  20
ATOM     20  C   UNL     1      -7.351 -13.704   2.139  0.00  0.00    +0.000 C 
ATOM     21  H   UNL     1      -7.733 -14.715   2.318  0.00  0.00    +0.000 HD
ATOM     22  H   UNL     1      -8.122 -13.000   2.474  0.00  0.00    +0.000 HD
BRANCH  20  23
ATOM     23  C   UNL     1      -7.118 -13.518   0.648  0.00  0.00    +0.000 C 
ATOM     24  H   UNL     1      -7.758 -12.726   0.246  0.00  0.00    +0.000 HD
ATOM     25  H   UNL     1      -7.346 -14.444   0.111  0.00  0.00    +0.000 HD
ATOM     26  H   UNL     1      -6.075 -13.255   0.443  0.00  0.00    +0.000 HD
ENDBRANCH  20  23
ENDBRANCH  17  20
ENDBRANCH   1  17
TORSDOF 8
ENDMDL
MODEL 5
REMARK VINA RESULT:    -4.222      1.572      2.380
REMARK INTER + INTRA:          -6.139
REMARK INTER:                  -5.895
REMARK INTRA:                  -0.244
REMARK UNBOUND:                -0.189
REMARK  Name = 379
REMARK  8 active torsions:
REMARK  status: ('A' for Active; 'I' for Inactive)
REMARK    1  A    between atoms: O_1  and  C_10
REMARK    2  A    between atoms: C_3  and  C_4
REMARK    3  A    between atoms: C_3  and  C_5
REMARK    4  A    between atoms: C_4  and  C_6
REMARK    5  A    between atoms: C_5  and  C_7
REMARK    6  A    between atoms: C_6  and  C_8
REMARK    7  A    between atoms: C_7  and  C_9
REMARK    8  A    between atoms: C_8  and  C_10
REMARK                            x       y       z     vdW  Elec       q    Type
REMARK                         _______ _______ _______ _____ _____    ______ ____
ROOT
ATOM      1  C   UNL     1      -2.306   5.914  25.719  0.00  0.00    +0.000 C 
ATOM      2  H   UNL     1      -2.785   6.645  26.383  0.00  0.00    +0.000 HD
ATOM      3  H   UNL     1      -1.797   5.187  26.364  0.00  0.00    +0.000 HD
ENDROOT
BRANCH   1   4
ATOM      4  C   UNL     1      -3.389   5.191  24.915  0.00  0.00    +0.000 C 
ATOM      5  H   UNL     1      -3.917   5.927  24.294  0.00  0.00    +0.000 HD
ATOM      6  H   UNL     1      -2.901   4.496  24.219  0.00  0.00    +0.000 HD
BRANCH   4   7
ATOM      7  C   UNL     1      -4.422   4.412  25.735  0.00  0.00    +0.000 C 
ATOM      8  H   UNL     1      -5.343   4.313  25.148  0.00  0.00    +0.000 HD
ATOM      9  H   UNL     1      -4.051   3.393  25.900  0.00  0.00    +0.000 HD
BRANCH   7  10
ATOM     10  C   UNL     1      -4.746   5.062  27.079  0.00  0.00    +0.000 C 
ATOM     11  H   UNL     1      -4.427   6.111  27.071  0.00  0.00    +0.000 HD
ATOM     12  H   UNL     1      -4.219   4.535  27.881  0.00  0.00    +0.000 HD
BRANCH  10  14
ATOM     13  O   UNL     1      -7.003   5.959  27.257  0.00  0.00    +0.000 OA
ATOM     14  C   UNL     1      -6.227   5.022  27.381  0.00  0.00    +0.000 C 
BRANCH  14  15
ATOM     15  O   UNL     1      -6.613   3.793  27.812  0.00  0.00    +0.000 OA
ATOM     16  H   UNL     1      -6.932   3.815  28.739  0.00  0.00    +0.000 HD
ENDBRANCH  14  15
ENDBRANCH  10  14
ENDBRANCH   7  10
ENDBRANCH   4   7
ENDBRANCH   1   4
BRANCH   1  17
ATOM     17  C   UNL     1      -1.270   6.625  24.845  0.00  0.00    +0.000 C 
ATOM     18  H   UNL     1      -1.272   7.698  25.073  0.00  0.00    +0.000 HD
ATOM     19  H   UNL     1      -0.270   6.245  25.084  0.00  0.00    +0.000 HD
BRANCH  17  20
ATOM     20  C   UNL     1      -1.562   6.412  23.359  0.00  0.00    +0.000 C 
ATOM     21  H   UNL     1      -0.832   5.715  22.932  0.00  0.00    +0.000 HD
ATOM     22  H   UNL     1      -2.553   5.961  23.235  0.00  0.00    +0.000 HD
BRANCH  20  23
ATOM     23  C   UNL     1      -1.507   7.722  22.588  0.00  0.00    +0.000 C 
ATOM     24  H   UNL     1      -2.513   8.078  22.347  0.00  0.00    +0.000 HD
ATOM     25  H   UNL     1      -0.960   7.587  21.650  0.00  0.00    +0.000 HD
ATOM     26  H   UNL     1      -0.998   8.498  23.170  0.00  0.00    +0.000 HD
ENDBRANCH  20  23
ENDBRANCH  17  20
ENDBRANCH   1  17
TORSDOF 8
ENDMDL
MODEL 6
REMARK VINA RESULT:    -4.134     41.662     42.728
REMARK INTER + INTRA:          -6.015
REMARK INTER:                  -5.731
REMARK INTRA:                  -0.284
REMARK UNBOUND:                -0.189
REMARK  Name = 379
REMARK  8 active torsions:
REMARK  status: ('A' for Active; 'I' for Inactive)
REMARK    1  A    between atoms: O_1  and  C_10
REMARK    2  A    between atoms: C_3  and  C_4
REMARK    3  A    between atoms: C_3  and  C_5
REMARK    4  A    between atoms: C_4  and  C_6
REMARK    5  A    between atoms: C_5  and  C_7
REMARK    6  A    between atoms: C_6  and  C_8
REMARK    7  A    between atoms: C_7  and  C_9
REMARK    8  A    between atoms: C_8  and  C_10
REMARK                            x       y       z     vdW  Elec       q    Type
REMARK                         _______ _______ _______ _____ _____    ______ ____
ROOT
ATOM      1  C   UNL     1      12.267  18.555 -10.493  0.00  0.00    +0.000 C 
ATOM      2  H   UNL     1      12.570  19.322  -9.769  0.00  0.00    +0.000 HD
ATOM      3  H   UNL     1      11.798  17.746  -9.920  0.00  0.00    +0.000 HD
ENDROOT
BRANCH   1   4
ATOM      4  C   UNL     1      11.228  19.155 -11.445  0.00  0.00    +0.000 C 
ATOM      5  H   UNL     1      11.427  18.787 -12.460  0.00  0.00    +0.000 HD
ATOM      6  H   UNL     1      10.238  18.771 -11.167  0.00  0.00    +0.000 HD
BRANCH   4   7
ATOM      7  C   UNL     1      11.163  20.685 -11.483  0.00  0.00    +0.000 C 
ATOM      8  H   UNL     1      12.059  21.067 -11.989  0.00  0.00    +0.000 HD
ATOM      9  H   UNL     1      10.309  20.990 -12.099  0.00  0.00    +0.000 HD
BRANCH   7  10
ATOM     10  C   UNL     1      11.052  21.323 -10.099  0.00  0.00    +0.000 C 
ATOM     11  H   UNL     1      11.407  22.359 -10.139  0.00  0.00    +0.000 HD
ATOM     12  H   UNL     1      11.662  20.762  -9.384  0.00  0.00    +0.000 HD
BRANCH  10  14
ATOM     13  O   UNL     1       8.775  22.161  -9.891  0.00  0.00    +0.000 OA
ATOM     14  C   UNL     1       9.626  21.333  -9.598  0.00  0.00    +0.000 C 
BRANCH  14  15
ATOM     15  O   UNL     1       9.386  20.288  -8.764  0.00  0.00    +0.000 OA
ATOM     16  H   UNL     1      10.069  20.215  -8.063  0.00  0.00    +0.000 HD
ENDBRANCH  14  15
ENDBRANCH  10  14
ENDBRANCH   7  10
ENDBRANCH   4   7
ENDBRANCH   1   4
BRANCH   1  17
ATOM     17  C   UNL     1      13.507  18.013 -11.208  0.00  0.00    +0.000 C 
ATOM     18  H   UNL     1      13.474  18.297 -12.267  0.00  0.00    +0.000 HD
ATOM     19  H   UNL     1      14.405  18.471 -10.778  0.00  0.00    +0.000 HD
BRANCH  17  20
ATOM     20  C   UNL     1      13.595  16.491 -11.085  0.00  0.00    +0.000 C 
ATOM     21  H   UNL     1      14.640  16.171 -11.157  0.00  0.00    +0.000 HD
ATOM     22  H   UNL     1      13.225  16.174 -10.103  0.00  0.00    +0.000 HD
BRANCH  20  23
ATOM     23  C   UNL     1      12.787  15.798 -12.172  0.00  0.00    +0.000 C 
ATOM     24  H   UNL     1      12.644  16.456 -13.035  0.00  0.00    +0.000 HD
ATOM     25  H   UNL     1      11.801  15.518 -11.790  0.00  0.00    +0.000 HD
ATOM     26  H   UNL     1      13.290  14.887 -12.513  0.00  0.00    +0.000 HD
ENDBRANCH  20  23
ENDBRANCH  17  20
ENDBRANCH   1  17
TORSDOF 8
ENDMDL
MODEL 7
REMARK VINA RESULT:    -4.079     29.301     30.447
REMARK INTER + INTRA:          -5.937
REMARK INTER:                  -5.663
REMARK INTRA:                  -0.274
REMARK UNBOUND:                -0.189
REMARK  Name = 379
REMARK  8 active torsions:
REMARK  status: ('A' for Active; 'I' for Inactive)
REMARK    1  A    between atoms: O_1  and  C_10
REMARK    2  A    between atoms: C_3  and  C_4
REMARK    3  A    between atoms: C_3  and  C_5
REMARK    4  A    between atoms: C_4  and  C_6
REMARK    5  A    between atoms: C_5  and  C_7
REMARK    6  A    between atoms: C_6  and  C_8
REMARK    7  A    between atoms: C_7  and  C_9
REMARK    8  A    between atoms: C_8  and  C_10
REMARK                            x       y       z     vdW  Elec       q    Type
REMARK                         _______ _______ _______ _____ _____    ______ ____
ROOT
ATOM      1  C   UNL     1      -6.747 -13.608   5.130  0.00  0.00    +0.000 C 
ATOM      2  H   UNL     1      -6.433 -14.653   5.009  0.00  0.00    +0.000 HD
ATOM      3  H   UNL     1      -5.858 -13.044   5.440  0.00  0.00    +0.000 HD
ENDROOT
BRANCH   1   4
ATOM      4  C   UNL     1      -7.224 -13.075   3.775  0.00  0.00    +0.000 C 
ATOM      5  H   UNL     1      -8.158 -12.518   3.926  0.00  0.00    +0.000 HD
ATOM      6  H   UNL     1      -6.488 -12.348   3.409  0.00  0.00    +0.000 HD
BRANCH   4   7
ATOM      7  C   UNL     1      -7.451 -14.128   2.687  0.00  0.00    +0.000 C 
ATOM      8  H   UNL     1      -6.852 -15.017   2.919  0.00  0.00    +0.000 HD
ATOM      9  H   UNL     1      -8.500 -14.449   2.714  0.00  0.00    +0.000 HD
BRANCH   7  10
ATOM     10  C   UNL     1      -7.103 -13.636   1.283  0.00  0.00    +0.000 C 
ATOM     11  H   UNL     1      -6.213 -12.997   1.324  0.00  0.00    +0.000 HD
ATOM     12  H   UNL     1      -7.940 -13.060   0.875  0.00  0.00    +0.000 HD
BRANCH  10  14
ATOM     13  O   UNL     1      -7.655 -15.417  -0.283  0.00  0.00    +0.000 OA
ATOM     14  C   UNL     1      -6.816 -14.783   0.340  0.00  0.00    +0.000 C 
BRANCH  14  15
ATOM     15  O   UNL     1      -5.483 -15.034   0.255  0.00  0.00    +0.000 OA
ATOM     16  H   UNL     1      -5.292 -15.997   0.262  0.00  0.00    +0.000 HD
ENDBRANCH  14  15
ENDBRANCH  10  14
ENDBRANCH   7  10
ENDBRANCH   4   7
ENDBRANCH   1   4
BRANCH   1  17
ATOM     17  C   UNL     1      -7.809 -13.520   6.227  0.00  0.00    +0.000 C 
ATOM     18  H   UNL     1      -7.467 -12.837   7.015  0.00  0.00    +0.000 HD
ATOM     19  H   UNL     1      -8.730 -13.098   5.810  0.00  0.00    +0.000 HD
BRANCH  17  20
ATOM     20  C   UNL     1      -8.098 -14.896   6.829  0.00  0.00    +0.000 C 
ATOM     21  H   UNL     1      -7.158 -15.424   7.021  0.00  0.00    +0.000 HD
ATOM     22  H   UNL     1      -8.609 -14.782   7.792  0.00  0.00    +0.000 HD
BRANCH  20  23
ATOM     23  C   UNL     1      -8.960 -15.739   5.901  0.00  0.00    +0.000 C 
ATOM     24  H   UNL     1      -8.558 -16.753   5.805  0.00  0.00    +0.000 HD
ATOM     25  H   UNL     1      -8.993 -15.290   4.904  0.00  0.00    +0.000 HD
ATOM     26  H   UNL     1      -9.986 -15.810   6.277  0.00  0.00    +0.000 HD
ENDBRANCH  20  23
ENDBRANCH  17  20
ENDBRANCH   1  17
TORSDOF 8
ENDMDL
MODEL 8
REMARK VINA RESULT:    -4.045     28.486     29.651
REMARK INTER + INTRA:          -5.890
REMARK INTER:                  -5.616
REMARK INTRA:                  -0.274
REMARK UNBOUND:                -0.189
REMARK  Name = 379
REMARK  8 active torsions:
REMARK  status: ('A' for Active; 'I' for Inactive)
REMARK    1  A    between atoms: O_1  and  C_10
REMARK    2  A    between atoms: C_3  and  C_4
REMARK    3  A    between atoms: C_3  and  C_5
REMARK    4  A    between atoms: C_4  and  C_6
REMARK    5  A    between atoms: C_5  and  C_7
REMARK    6  A    between atoms: C_6  and  C_8
REMARK    7  A    between atoms: C_7  and  C_9
REMARK    8  A    between atoms: C_8  and  C_10
REMARK                            x       y       z     vdW  Elec       q    Type
REMARK                         _______ _______ _______ _____ _____    ______ ____
ROOT
ATOM      1  C   UNL     1      -7.724 -13.500   6.604  0.00  0.00    +0.000 C 
ATOM      2  H   UNL     1      -6.645 -13.343   6.724  0.00  0.00    +0.000 HD
ATOM      3  H   UNL     1      -8.222 -12.813   7.300  0.00  0.00    +0.000 HD
ENDROOT
BRANCH   1   4
ATOM      4  C   UNL     1      -8.123 -13.129   5.173  0.00  0.00    +0.000 C 
ATOM      5  H   UNL     1      -8.883 -13.841   4.824  0.00  0.00    +0.000 HD
ATOM      6  H   UNL     1      -8.609 -12.144   5.191  0.00  0.00    +0.000 HD
BRANCH   4   7
ATOM      7  C   UNL     1      -6.983 -13.090   4.151  0.00  0.00    +0.000 C 
ATOM      8  H   UNL     1      -6.645 -12.052   4.033  0.00  0.00    +0.000 HD
ATOM      9  H   UNL     1      -6.128 -13.648   4.550  0.00  0.00    +0.000 HD
BRANCH   7  10
ATOM     10  C   UNL     1      -7.371 -13.653   2.785  0.00  0.00    +0.000 C 
ATOM     11  H   UNL     1      -7.675 -12.837   2.120  0.00  0.00    +0.000 HD
ATOM     12  H   UNL     1      -8.207 -14.352   2.898  0.00  0.00    +0.000 HD
BRANCH  10  14
ATOM     13  O   UNL     1      -5.036 -14.181   2.338  0.00  0.00    +0.000 OA
ATOM     14  C   UNL     1      -6.223 -14.391   2.134  0.00  0.00    +0.000 C 
BRANCH  14  15
ATOM     15  O   UNL     1      -6.670 -15.345   1.275  0.00  0.00    +0.000 OA
ATOM     16  H   UNL     1      -6.922 -16.169   1.743  0.00  0.00    +0.000 HD
ENDBRANCH  14  15
ENDBRANCH  10  14
ENDBRANCH   7  10
ENDBRANCH   4   7
ENDBRANCH   1   4
BRANCH   1  17
ATOM     17  C   UNL     1      -8.073 -14.941   6.981  0.00  0.00    +0.000 C 
ATOM     18  H   UNL     1      -7.151 -15.526   7.086  0.00  0.00    +0.000 HD
ATOM     19  H   UNL     1      -8.577 -14.952   7.954  0.00  0.00    +0.000 HD
BRANCH  17  20
ATOM     20  C   UNL     1      -8.974 -15.585   5.926  0.00  0.00    +0.000 C 
ATOM     21  H   UNL     1      -9.892 -14.998   5.811  0.00  0.00    +0.000 HD
ATOM     22  H   UNL     1      -8.467 -15.588   4.954  0.00  0.00    +0.000 HD
BRANCH  20  23
ATOM     23  C   UNL     1      -9.341 -17.011   6.303  0.00  0.00    +0.000 C 
ATOM     24  H   UNL     1      -9.556 -17.611   5.412  0.00  0.00    +0.000 HD
ATOM     25  H   UNL     1     -10.231 -17.018   6.940  0.00  0.00    +0.000 HD
ATOM     26  H   UNL     1      -8.526 -17.494   6.853  0.00  0.00    +0.000 HD
ENDBRANCH  20  23
ENDBRANCH  17  20
ENDBRANCH   1  17
TORSDOF 8
ENDMDL
MODEL 9
REMARK VINA RESULT:    -3.988     33.419     34.288
REMARK INTER + INTRA:          -5.809
REMARK INTER:                  -5.619
REMARK INTRA:                  -0.189
REMARK UNBOUND:                -0.189
REMARK  Name = 379
REMARK  8 active torsions:
REMARK  status: ('A' for Active; 'I' for Inactive)
REMARK    1  A    between atoms: O_1  and  C_10
REMARK    2  A    between atoms: C_3  and  C_4
REMARK    3  A    between atoms: C_3  and  C_5
REMARK    4  A    between atoms: C_4  and  C_6
REMARK    5  A    between atoms: C_5  and  C_7
REMARK    6  A    between atoms: C_6  and  C_8
REMARK    7  A    between atoms: C_7  and  C_9
REMARK    8  A    between atoms: C_8  and  C_10
REMARK                            x       y       z     vdW  Elec       q    Type
REMARK                         _______ _______ _______ _____ _____    ______ ____
ROOT
ATOM      1  C   UNL     1     -17.075  -6.255  -2.050  0.00  0.00    +0.000 C 
ATOM      2  H   UNL     1     -16.615  -7.172  -1.663  0.00  0.00    +0.000 HD
ATOM      3  H   UNL     1     -17.303  -5.625  -1.181  0.00  0.00    +0.000 HD
ENDROOT
BRANCH   1   4
ATOM      4  C   UNL     1     -16.060  -5.527  -2.936  0.00  0.00    +0.000 C 
ATOM      5  H   UNL     1     -16.594  -4.788  -3.549  0.00  0.00    +0.000 HD
ATOM      6  H   UNL     1     -15.379  -4.957  -2.290  0.00  0.00    +0.000 HD
BRANCH   4   7
ATOM      7  C   UNL     1     -15.223  -6.416  -3.861  0.00  0.00    +0.000 C 
ATOM      8  H   UNL     1     -15.300  -7.457  -3.521  0.00  0.00    +0.000 HD
ATOM      9  H   UNL     1     -15.655  -6.389  -4.868  0.00  0.00    +0.000 HD
BRANCH   7  10
ATOM     10  C   UNL     1     -13.751  -6.012  -3.924  0.00  0.00    +0.000 C 
ATOM     11  H   UNL     1     -13.135  -6.775  -3.433  0.00  0.00    +0.000 HD
ATOM     12  H   UNL     1     -13.609  -5.054  -3.412  0.00  0.00    +0.000 HD
BRANCH  10  14
ATOM     13  O   UNL     1     -13.833  -6.304  -6.340  0.00  0.00    +0.000 OA
ATOM     14  C   UNL     1     -13.269  -5.863  -5.349  0.00  0.00    +0.000 C 
BRANCH  14  15
ATOM     15  O   UNL     1     -12.108  -5.159  -5.409  0.00  0.00    +0.000 OA
ATOM     16  H   UNL     1     -11.618  -5.189  -4.559  0.00  0.00    +0.000 HD
ENDBRANCH  14  15
ENDBRANCH  10  14
ENDBRANCH   7  10
ENDBRANCH   4   7
ENDBRANCH   1   4
BRANCH   1  17
ATOM     17  C   UNL     1     -18.376  -6.605  -2.775  0.00  0.00    +0.000 C 
ATOM     18  H   UNL     1     -18.148  -6.954  -3.790  0.00  0.00    +0.000 HD
ATOM     19  H   UNL     1     -18.873  -7.431  -2.253  0.00  0.00    +0.000 HD
BRANCH  17  20
ATOM     20  C   UNL     1     -19.313  -5.398  -2.843  0.00  0.00    +0.000 C 
ATOM     21  H   UNL     1     -18.736  -4.489  -3.041  0.00  0.00    +0.000 HD
ATOM     22  H   UNL     1     -20.019  -5.522  -3.673  0.00  0.00    +0.000 HD
BRANCH  20  23
ATOM     23  C   UNL     1     -20.089  -5.223  -1.548  0.00  0.00    +0.000 C 
ATOM     24  H   UNL     1     -20.547  -4.229  -1.496  0.00  0.00    +0.000 HD
ATOM     25  H   UNL     1     -19.422  -5.335  -0.688  0.00  0.00    +0.000 HD
ATOM     26  H   UNL     1     -20.884  -5.972  -1.461  0.00  0.00    +0.000 HD
ENDBRANCH  20  23
ENDBRANCH  17  20
ENDBRANCH   1  17
TORSDOF 8
ENDMDL
MODEL 10
REMARK VINA RESULT:    -3.955     46.445     47.180
REMARK INTER + INTRA:          -5.763
REMARK INTER:                  -5.466
REMARK INTRA:                  -0.297
REMARK UNBOUND:                -0.189
REMARK  Name = 379
REMARK  8 active torsions:
REMARK  status: ('A' for Active; 'I' for Inactive)
REMARK    1  A    between atoms: O_1  and  C_10
REMARK    2  A    between atoms: C_3  and  C_4
REMARK    3  A    between atoms: C_3  and  C_5
REMARK    4  A    between atoms: C_4  and  C_6
REMARK    5  A    between atoms: C_5  and  C_7
REMARK    6  A    between atoms: C_6  and  C_8
REMARK    7  A    between atoms: C_7  and  C_9
REMARK    8  A    between atoms: C_8  and  C_10
REMARK                            x       y       z     vdW  Elec       q    Type
REMARK                         _______ _______ _______ _____ _____    ______ ____
ROOT
ATOM      1  C   UNL     1       1.729   5.504 -20.521  0.00  0.00    +0.000 C 
ATOM      2  H   UNL     1       2.179   4.901 -21.320  0.00  0.00    +0.000 HD
ATOM      3  H   UNL     1       1.233   6.353 -21.008  0.00  0.00    +0.000 HD
ENDROOT
BRANCH   1   4
ATOM      4  C   UNL     1       0.673   4.662 -19.800  0.00  0.00    +0.000 C 
ATOM      5  H   UNL     1       0.628   4.978 -18.749  0.00  0.00    +0.000 HD
ATOM      6  H   UNL     1      -0.310   4.890 -20.233  0.00  0.00    +0.000 HD
BRANCH   4   7
ATOM      7  C   UNL     1       0.883   3.145 -19.845  0.00  0.00    +0.000 C 
ATOM      8  H   UNL     1       1.797   2.895 -19.291  0.00  0.00    +0.000 HD
ATOM      9  H   UNL     1       0.058   2.655 -19.315  0.00  0.00    +0.000 HD
BRANCH   7  10
ATOM     10  C   UNL     1       0.984   2.587 -21.264  0.00  0.00    +0.000 C 
ATOM     11  H   UNL     1       1.837   1.903 -21.334  0.00  0.00    +0.000 HD
ATOM     12  H   UNL     1       1.127   3.409 -21.974  0.00  0.00    +0.000 HD
BRANCH  10  14
ATOM     13  O   UNL     1      -1.394   2.293 -21.695  0.00  0.00    +0.000 OA
ATOM     14  C   UNL     1      -0.262   1.830 -21.662  0.00  0.00    +0.000 C 
BRANCH  14  15
ATOM     15  O   UNL     1       0.023   0.543 -21.991  0.00  0.00    +0.000 OA
ATOM     16  H   UNL     1      -0.116  -0.067 -21.235  0.00  0.00    +0.000 HD
ENDBRANCH  14  15
ENDBRANCH  10  14
ENDBRANCH   7  10
ENDBRANCH   4   7
ENDBRANCH   1   4
BRANCH   1  17
ATOM     17  C   UNL     1       2.829   6.025 -19.595  0.00  0.00    +0.000 C 
ATOM     18  H   UNL     1       2.985   7.096 -19.777  0.00  0.00    +0.000 HD
ATOM     19  H   UNL     1       2.510   5.917 -18.552  0.00  0.00    +0.000 HD
BRANCH  17  20
ATOM     20  C   UNL     1       4.141   5.269 -19.815  0.00  0.00    +0.000 C 
ATOM     21  H   UNL     1       3.961   4.189 -19.769  0.00  0.00    +0.000 HD
ATOM     22  H   UNL     1       4.536   5.491 -20.813  0.00  0.00    +0.000 HD
BRANCH  20  23
ATOM     23  C   UNL     1       5.180   5.643 -18.770  0.00  0.00    +0.000 C 
ATOM     24  H   UNL     1       4.963   5.164 -17.810  0.00  0.00    +0.000 HD
ATOM     25  H   UNL     1       5.189   6.726 -18.615  0.00  0.00    +0.000 HD
ATOM     26  H   UNL     1       6.183   5.338 -19.088  0.00  0.00    +0.000 HD
ENDBRANCH  20  23
ENDBRANCH  17  20
ENDBRANCH   1  17
TORSDOF 8
ENDMDL
