MODEL 1
REMARK VINA RESULT:    -4.362      0.000      0.000
REMARK INTER + INTRA:          -5.051
REMARK INTER:                  -5.005
REMARK INTRA:                  -0.046
REMARK UNBOUND:                -0.052
REMARK  Name = 31244
REMARK  3 active torsions:
REMARK  status: ('A' for Active; 'I' for Inactive)
REMARK    1  A    between atoms: O_1  and  C_3
REMARK    2  A    between atoms: O_1  and  C_10
REMARK    3  A    between atoms: C_4  and  C_9
REMARK                            x       y       z     vdW  Elec       q    Type
REMARK                         _______ _______ _______ _____ _____    ______ ____
ROOT
ATOM      1  C   UNL     1      17.148  -4.949  -3.126  0.00  0.00    +0.000 A 
ATOM      2  C   UNL     1      19.771  -5.172  -4.048  0.00  0.00    +0.000 A 
ATOM      3  C   UNL     1      18.084  -3.963  -2.813  0.00  0.00    +0.000 A 
ATOM      4  C   UNL     1      17.524  -6.047  -3.899  0.00  0.00    +0.000 A 
ATOM      5  C   UNL     1      19.395  -4.074  -3.275  0.00  0.00    +0.000 A 
ATOM      6  C   UNL     1      18.835  -6.159  -4.361  0.00  0.00    +0.000 A 
ATOM      7  H   UNL     1      17.796  -3.106  -2.211  0.00  0.00    +0.000 HD
ATOM      8  H   UNL     1      16.849  -6.849  -4.178  0.00  0.00    +0.000 HD
ATOM      9  H   UNL     1      20.112  -3.298  -3.023  0.00  0.00    +0.000 HD
ATOM     10  H   UNL     1      19.108  -7.022  -4.962  0.00  0.00    +0.000 HD
ENDROOT
BRANCH   2  12
ATOM     11  O   UNL     1      22.116  -5.339  -3.778  0.00  0.00    +0.000 OA
ATOM     12  C   UNL     1      21.139  -5.289  -4.529  0.00  0.00    +0.000 C 
ATOM     13  H   UNL     1      21.275  -5.333  -5.624  0.00  0.00    +0.000 HD
ENDBRANCH   2  12
BRANCH   1  14
ATOM     14  O   UNL     1      15.868  -4.841  -2.676  0.00  0.00    +0.000 OA
BRANCH  14  15
ATOM     15  C   UNL     1      15.678  -4.792  -1.263  0.00  0.00    +0.000 C 
ATOM     16  H   UNL     1      15.666  -5.794  -0.824  0.00  0.00    +0.000 HD
ATOM     17  H   UNL     1      14.788  -4.212  -0.997  0.00  0.00    +0.000 HD
ATOM     18  H   UNL     1      16.540  -4.267  -0.839  0.00  0.00    +0.000 HD
ENDBRANCH  14  15
ENDBRANCH   1  14
TORSDOF 3
ENDMDL
MODEL 2
REMARK VINA RESULT:    -4.345      1.103      4.317
REMARK INTER + INTRA:          -5.031
REMARK INTER:                  -4.976
REMARK INTRA:                  -0.055
REMARK UNBOUND:                -0.052
REMARK  Name = 31244
REMARK  3 active torsions:
REMARK  status: ('A' for Active; 'I' for Inactive)
REMARK    1  A    between atoms: O_1  and  C_3
REMARK    2  A    between atoms: O_1  and  C_10
REMARK    3  A    between atoms: C_4  and  C_9
REMARK                            x       y       z     vdW  Elec       q    Type
REMARK                         _______ _______ _______ _____ _____    ______ ____
ROOT
ATOM      1  C   UNL     1      19.342  -4.720  -3.737  0.00  0.00    +0.000 A 
ATOM      2  C   UNL     1      16.751  -5.302  -2.881  0.00  0.00    +0.000 A 
ATOM      3  C   UNL     1      18.699  -3.875  -2.832  0.00  0.00    +0.000 A 
ATOM      4  C   UNL     1      18.689  -5.857  -4.213  0.00  0.00    +0.000 A 
ATOM      5  C   UNL     1      17.405  -4.165  -2.405  0.00  0.00    +0.000 A 
ATOM      6  C   UNL     1      17.393  -6.148  -3.785  0.00  0.00    +0.000 A 
ATOM      7  H   UNL     1      19.204  -2.988  -2.458  0.00  0.00    +0.000 HD
ATOM      8  H   UNL     1      19.129  -6.556  -4.916  0.00  0.00    +0.000 HD
ATOM      9  H   UNL     1      16.917  -3.497  -1.699  0.00  0.00    +0.000 HD
ATOM     10  H   UNL     1      16.903  -7.039  -4.169  0.00  0.00    +0.000 HD
ENDROOT
BRANCH   2  12
ATOM     11  O   UNL     1      15.009  -6.753  -2.201  0.00  0.00    +0.000 OA
ATOM     12  C   UNL     1      15.401  -5.605  -2.435  0.00  0.00    +0.000 C 
ATOM     13  H   UNL     1      14.717  -4.748  -2.308  0.00  0.00    +0.000 HD
ENDBRANCH   2  12
BRANCH   1  14
ATOM     14  O   UNL     1      20.606  -4.437  -4.155  0.00  0.00    +0.000 OA
BRANCH  14  15
ATOM     15  C   UNL     1      21.416  -5.536  -4.568  0.00  0.00    +0.000 C 
ATOM     16  H   UNL     1      22.480  -5.330  -4.418  0.00  0.00    +0.000 HD
ATOM     17  H   UNL     1      21.192  -5.837  -5.596  0.00  0.00    +0.000 HD
ATOM     18  H   UNL     1      21.160  -6.385  -3.924  0.00  0.00    +0.000 HD
ENDBRANCH  14  15
ENDBRANCH   1  14
TORSDOF 3
ENDMDL
MODEL 3
REMARK VINA RESULT:    -4.201     22.767     23.456
REMARK INTER + INTRA:          -4.866
REMARK INTER:                  -4.824
REMARK INTRA:                  -0.042
REMARK UNBOUND:                -0.052
REMARK  Name = 31244
REMARK  3 active torsions:
REMARK  status: ('A' for Active; 'I' for Inactive)
REMARK    1  A    between atoms: O_1  and  C_3
REMARK    2  A    between atoms: O_1  and  C_10
REMARK    3  A    between atoms: C_4  and  C_9
REMARK                            x       y       z     vdW  Elec       q    Type
REMARK                         _______ _______ _______ _____ _____    ______ ____
ROOT
ATOM      1  C   UNL     1       3.459   5.918 -19.618  0.00  0.00    +0.000 A 
ATOM      2  C   UNL     1       5.781   4.763 -18.590  0.00  0.00    +0.000 A 
ATOM      3  C   UNL     1       4.163   6.557 -18.598  0.00  0.00    +0.000 A 
ATOM      4  C   UNL     1       3.915   4.701 -20.125  0.00  0.00    +0.000 A 
ATOM      5  C   UNL     1       5.324   5.979 -18.084  0.00  0.00    +0.000 A 
ATOM      6  C   UNL     1       5.076   4.123 -19.611  0.00  0.00    +0.000 A 
ATOM      7  H   UNL     1       3.812   7.505 -18.200  0.00  0.00    +0.000 HD
ATOM      8  H   UNL     1       3.418   4.152 -20.916  0.00  0.00    +0.000 HD
ATOM      9  H   UNL     1       5.862   6.490 -17.289  0.00  0.00    +0.000 HD
ATOM     10  H   UNL     1       5.414   3.175 -20.019  0.00  0.00    +0.000 HD
ENDROOT
BRANCH   2  12
ATOM     11  O   UNL     1       8.098   4.703 -18.111  0.00  0.00    +0.000 OA
ATOM     12  C   UNL     1       6.991   4.160 -18.054  0.00  0.00    +0.000 C 
ATOM     13  H   UNL     1       6.881   3.169 -17.579  0.00  0.00    +0.000 HD
ENDBRANCH   2  12
BRANCH   1  14
ATOM     14  O   UNL     1       2.326   6.481 -20.121  0.00  0.00    +0.000 OA
BRANCH  14  15
ATOM     15  C   UNL     1       1.100   6.176 -19.459  0.00  0.00    +0.000 C 
ATOM     16  H   UNL     1       0.775   6.999 -18.816  0.00  0.00    +0.000 HD
ATOM     17  H   UNL     1       1.161   5.226 -18.918  0.00  0.00    +0.000 HD
ATOM     18  H   UNL     1       0.336   6.055 -20.234  0.00  0.00    +0.000 HD
ENDBRANCH  14  15
ENDBRANCH   1  14
TORSDOF 3
ENDMDL
MODEL 4
REMARK VINA RESULT:    -4.145     24.369     25.469
REMARK INTER + INTRA:          -4.803
REMARK INTER:                  -4.756
REMARK INTRA:                  -0.047
REMARK UNBOUND:                -0.052
REMARK  Name = 31244
REMARK  3 active torsions:
REMARK  status: ('A' for Active; 'I' for Inactive)
REMARK    1  A    between atoms: O_1  and  C_3
REMARK    2  A    between atoms: O_1  and  C_10
REMARK    3  A    between atoms: C_4  and  C_9
REMARK                            x       y       z     vdW  Elec       q    Type
REMARK                         _______ _______ _______ _____ _____    ______ ____
ROOT
ATOM      1  C   UNL     1      14.922  17.761 -10.865  0.00  0.00    +0.000 A 
ATOM      2  C   UNL     1      12.295  18.440 -11.513  0.00  0.00    +0.000 A 
ATOM      3  C   UNL     1      13.997  16.762 -11.168  0.00  0.00    +0.000 A 
ATOM      4  C   UNL     1      14.533  19.100 -10.886  0.00  0.00    +0.000 A 
ATOM      5  C   UNL     1      12.684  17.101 -11.492  0.00  0.00    +0.000 A 
ATOM      6  C   UNL     1      13.220  19.440 -11.210  0.00  0.00    +0.000 A 
ATOM      7  H   UNL     1      14.295  15.717 -11.153  0.00  0.00    +0.000 HD
ATOM      8  H   UNL     1      15.199  19.926 -10.662  0.00  0.00    +0.000 HD
ATOM      9  H   UNL     1      11.975  16.311 -11.725  0.00  0.00    +0.000 HD
ATOM     10  H   UNL     1      12.937  20.490 -11.221  0.00  0.00    +0.000 HD
ENDROOT
BRANCH   2  12
ATOM     11  O   UNL     1      10.252  19.590 -11.189  0.00  0.00    +0.000 OA
ATOM     12  C   UNL     1      10.925  18.795 -11.850  0.00  0.00    +0.000 C 
ATOM     13  H   UNL     1      10.497  18.314 -12.747  0.00  0.00    +0.000 HD
ENDBRANCH   2  12
BRANCH   1  14
ATOM     14  O   UNL     1      16.204  17.430 -10.549  0.00  0.00    +0.000 OA
BRANCH  14  15
ATOM     15  C   UNL     1      17.236  17.970 -11.372  0.00  0.00    +0.000 C 
ATOM     16  H   UNL     1      18.075  18.339 -10.774  0.00  0.00    +0.000 HD
ATOM     17  H   UNL     1      16.848  18.731 -12.057  0.00  0.00    +0.000 HD
ATOM     18  H   UNL     1      17.619  17.150 -11.989  0.00  0.00    +0.000 HD
ENDBRANCH  14  15
ENDBRANCH   1  14
TORSDOF 3
ENDMDL
MODEL 5
REMARK VINA RESULT:    -4.144     26.038     27.014
REMARK INTER + INTRA:          -4.801
REMARK INTER:                  -4.760
REMARK INTRA:                  -0.042
REMARK UNBOUND:                -0.052
REMARK  Name = 31244
REMARK  3 active torsions:
REMARK  status: ('A' for Active; 'I' for Inactive)
REMARK    1  A    between atoms: O_1  and  C_3
REMARK    2  A    between atoms: O_1  and  C_10
REMARK    3  A    between atoms: C_4  and  C_9
REMARK                            x       y       z     vdW  Elec       q    Type
REMARK                         _______ _______ _______ _____ _____    ______ ____
ROOT
ATOM      1  C   UNL     1      -0.501   3.167 -21.425  0.00  0.00    +0.000 A 
ATOM      2  C   UNL     1       0.712   5.283 -20.070  0.00  0.00    +0.000 A 
ATOM      3  C   UNL     1      -0.299   4.386 -22.073  0.00  0.00    +0.000 A 
ATOM      4  C   UNL     1      -0.097   3.006 -20.100  0.00  0.00    +0.000 A 
ATOM      5  C   UNL     1       0.307   5.443 -21.396  0.00  0.00    +0.000 A 
ATOM      6  C   UNL     1       0.509   4.064 -19.422  0.00  0.00    +0.000 A 
ATOM      7  H   UNL     1      -0.612   4.516 -23.105  0.00  0.00    +0.000 HD
ATOM      8  H   UNL     1      -0.224   2.088 -19.537  0.00  0.00    +0.000 HD
ATOM      9  H   UNL     1       0.458   6.387 -21.914  0.00  0.00    +0.000 HD
ATOM     10  H   UNL     1       0.816   3.918 -18.390  0.00  0.00    +0.000 HD
ENDROOT
BRANCH   2  12
ATOM     11  O   UNL     1       2.568   6.526 -19.290  0.00  0.00    +0.000 OA
ATOM     12  C   UNL     1       1.344   6.386 -19.364  0.00  0.00    +0.000 C 
ATOM     13  H   UNL     1       0.670   7.115 -18.882  0.00  0.00    +0.000 HD
ENDBRANCH   2  12
BRANCH   1  14
ATOM     14  O   UNL     1      -1.093   2.135 -22.085  0.00  0.00    +0.000 OA
BRANCH  14  15
ATOM     15  C   UNL     1      -0.232   1.164 -22.678  0.00  0.00    +0.000 C 
ATOM     16  H   UNL     1      -0.391   0.170 -22.249  0.00  0.00    +0.000 HD
ATOM     17  H   UNL     1       0.816   1.474 -22.630  0.00  0.00    +0.000 HD
ATOM     18  H   UNL     1      -0.499   1.101 -23.739  0.00  0.00    +0.000 HD
ENDBRANCH  14  15
ENDBRANCH   1  14
TORSDOF 3
ENDMDL
MODEL 6
REMARK VINA RESULT:    -4.117     24.281     25.091
REMARK INTER + INTRA:          -4.770
REMARK INTER:                  -4.725
REMARK INTRA:                  -0.046
REMARK UNBOUND:                -0.052
REMARK  Name = 31244
REMARK  3 active torsions:
REMARK  status: ('A' for Active; 'I' for Inactive)
REMARK    1  A    between atoms: O_1  and  C_3
REMARK    2  A    between atoms: O_1  and  C_10
REMARK    3  A    between atoms: C_4  and  C_9
REMARK                            x       y       z     vdW  Elec       q    Type
REMARK                         _______ _______ _______ _____ _____    ______ ____
ROOT
ATOM      1  C   UNL     1       1.074   3.276 -20.065  0.00  0.00    +0.000 A 
ATOM      2  C   UNL     1       3.747   4.018 -20.358  0.00  0.00    +0.000 A 
ATOM      3  C   UNL     1       2.059   2.298 -20.203  0.00  0.00    +0.000 A 
ATOM      4  C   UNL     1       1.426   4.625 -20.073  0.00  0.00    +0.000 A 
ATOM      5  C   UNL     1       3.395   2.669 -20.349  0.00  0.00    +0.000 A 
ATOM      6  C   UNL     1       2.762   4.998 -20.220  0.00  0.00    +0.000 A 
ATOM      7  H   UNL     1       1.790   1.245 -20.196  0.00  0.00    +0.000 HD
ATOM      8  H   UNL     1       0.713   5.436 -19.971  0.00  0.00    +0.000 HD
ATOM      9  H   UNL     1       4.151   1.895 -20.456  0.00  0.00    +0.000 HD
ATOM     10  H   UNL     1       3.015   6.054 -20.224  0.00  0.00    +0.000 HD
ENDROOT
BRANCH   2  12
ATOM     11  O   UNL     1       5.567   5.525 -20.210  0.00  0.00    +0.000 OA
ATOM     12  C   UNL     1       5.141   4.406 -20.511  0.00  0.00    +0.000 C 
ATOM     13  H   UNL     1       5.825   3.641 -20.917  0.00  0.00    +0.000 HD
ENDBRANCH   2  12
BRANCH   1  14
ATOM     14  O   UNL     1      -0.230   2.915 -19.922  0.00  0.00    +0.000 OA
BRANCH  14  15
ATOM     15  C   UNL     1      -1.022   2.857 -21.106  0.00  0.00    +0.000 C 
ATOM     16  H   UNL     1      -1.120   1.831 -21.476  0.00  0.00    +0.000 HD
ATOM     17  H   UNL     1      -0.647   3.541 -21.874  0.00  0.00    +0.000 HD
ATOM     18  H   UNL     1      -2.028   3.198 -20.839  0.00  0.00    +0.000 HD
ENDBRANCH  14  15
ENDBRANCH   1  14
TORSDOF 3
ENDMDL
MODEL 7
REMARK VINA RESULT:    -4.017     25.541     26.517
REMARK INTER + INTRA:          -4.655
REMARK INTER:                  -4.597
REMARK INTRA:                  -0.058
REMARK UNBOUND:                -0.052
REMARK  Name = 31244
REMARK  3 active torsions:
REMARK  status: ('A' for Active; 'I' for Inactive)
REMARK    1  A    between atoms: O_1  and  C_3
REMARK    2  A    between atoms: O_1  and  C_10
REMARK    3  A    between atoms: C_4  and  C_9
REMARK                            x       y       z     vdW  Elec       q    Type
REMARK                         _______ _______ _______ _____ _____    ______ ____
ROOT
ATOM      1  C   UNL     1       1.658   4.656 -20.183  0.00  0.00    +0.000 A 
ATOM      2  C   UNL     1       0.324   2.591 -21.503  0.00  0.00    +0.000 A 
ATOM      3  C   UNL     1       2.097   4.231 -21.437  0.00  0.00    +0.000 A 
ATOM      4  C   UNL     1       0.552   4.049 -19.589  0.00  0.00    +0.000 A 
ATOM      5  C   UNL     1       1.430   3.199 -22.097  0.00  0.00    +0.000 A 
ATOM      6  C   UNL     1      -0.115   3.016 -20.248  0.00  0.00    +0.000 A 
ATOM      7  H   UNL     1       2.958   4.701 -21.905  0.00  0.00    +0.000 HD
ATOM      8  H   UNL     1       0.158   4.329 -18.618  0.00  0.00    +0.000 HD
ATOM      9  H   UNL     1       1.784   2.879 -23.074  0.00  0.00    +0.000 HD
ATOM     10  H   UNL     1      -0.974   2.556 -19.768  0.00  0.00    +0.000 HD
ENDROOT
BRANCH   2  12
ATOM     11  O   UNL     1       0.132   0.866 -23.112  0.00  0.00    +0.000 OA
ATOM     12  C   UNL     1      -0.371   1.515 -22.190  0.00  0.00    +0.000 C 
ATOM     13  H   UNL     1      -1.396   1.290 -21.848  0.00  0.00    +0.000 HD
ENDBRANCH   2  12
BRANCH   1  14
ATOM     14  O   UNL     1       2.308   5.663 -19.539  0.00  0.00    +0.000 OA
BRANCH  14  15
ATOM     15  C   UNL     1       3.310   6.364 -20.274  0.00  0.00    +0.000 C 
ATOM     16  H   UNL     1       2.889   6.866 -21.150  0.00  0.00    +0.000 HD
ATOM     17  H   UNL     1       4.149   5.711 -20.532  0.00  0.00    +0.000 HD
ATOM     18  H   UNL     1       3.704   7.146 -19.616  0.00  0.00    +0.000 HD
ENDBRANCH  14  15
ENDBRANCH   1  14
TORSDOF 3
ENDMDL
MODEL 8
REMARK VINA RESULT:    -3.920     24.679     25.763
REMARK INTER + INTRA:          -4.545
REMARK INTER:                  -4.490
REMARK INTRA:                  -0.054
REMARK UNBOUND:                -0.052
REMARK  Name = 31244
REMARK  3 active torsions:
REMARK  status: ('A' for Active; 'I' for Inactive)
REMARK    1  A    between atoms: O_1  and  C_3
REMARK    2  A    between atoms: O_1  and  C_10
REMARK    3  A    between atoms: C_4  and  C_9
REMARK                            x       y       z     vdW  Elec       q    Type
REMARK                         _______ _______ _______ _____ _____    ______ ____
ROOT
ATOM      1  C   UNL     1       3.145   5.570 -19.891  0.00  0.00    +0.000 A 
ATOM      2  C   UNL     1       0.924   3.889 -20.032  0.00  0.00    +0.000 A 
ATOM      3  C   UNL     1       1.885   6.046 -19.527  0.00  0.00    +0.000 A 
ATOM      4  C   UNL     1       3.294   4.254 -20.326  0.00  0.00    +0.000 A 
ATOM      5  C   UNL     1       0.775   5.205 -19.597  0.00  0.00    +0.000 A 
ATOM      6  C   UNL     1       2.184   3.412 -20.397  0.00  0.00    +0.000 A 
ATOM      7  H   UNL     1       1.764   7.071 -19.187  0.00  0.00    +0.000 HD
ATOM      8  H   UNL     1       4.242   3.820 -20.624  0.00  0.00    +0.000 HD
ATOM      9  H   UNL     1      -0.200   5.591 -19.310  0.00  0.00    +0.000 HD
ATOM     10  H   UNL     1       2.322   2.390 -20.739  0.00  0.00    +0.000 HD
ENDROOT
BRANCH   2  12
ATOM     11  O   UNL     1      -1.009   2.996 -21.067  0.00  0.00    +0.000 OA
ATOM     12  C   UNL     1      -0.234   3.011 -20.106  0.00  0.00    +0.000 C 
ATOM     13  H   UNL     1      -0.400   2.338 -19.247  0.00  0.00    +0.000 HD
ENDBRANCH   2  12
BRANCH   1  14
ATOM     14  O   UNL     1       4.229   6.391 -19.823  0.00  0.00    +0.000 OA
BRANCH  14  15
ATOM     15  C   UNL     1       5.452   5.899 -20.367  0.00  0.00    +0.000 C 
ATOM     16  H   UNL     1       5.916   5.158 -19.708  0.00  0.00    +0.000 HD
ATOM     17  H   UNL     1       6.136   6.714 -20.621  0.00  0.00    +0.000 HD
ATOM     18  H   UNL     1       5.205   5.385 -21.302  0.00  0.00    +0.000 HD
ENDBRANCH  14  15
ENDBRANCH   1  14
TORSDOF 3
ENDMDL
MODEL 9
REMARK VINA RESULT:    -3.904      2.496      5.074
REMARK INTER + INTRA:          -4.526
REMARK INTER:                  -4.480
REMARK INTRA:                  -0.047
REMARK UNBOUND:                -0.052
REMARK  Name = 31244
REMARK  3 active torsions:
REMARK  status: ('A' for Active; 'I' for Inactive)
REMARK    1  A    between atoms: O_1  and  C_3
REMARK    2  A    between atoms: O_1  and  C_10
REMARK    3  A    between atoms: C_4  and  C_9
REMARK                            x       y       z     vdW  Elec       q    Type
REMARK                         _______ _______ _______ _____ _____    ______ ____
ROOT
ATOM      1  C   UNL     1      16.614  -5.437  -2.796  0.00  0.00    +0.000 A 
ATOM      2  C   UNL     1      15.856  -5.584  -0.116  0.00  0.00    +0.000 A 
ATOM      3  C   UNL     1      15.690  -6.397  -2.384  0.00  0.00    +0.000 A 
ATOM      4  C   UNL     1      17.159  -4.551  -1.869  0.00  0.00    +0.000 A 
ATOM      5  C   UNL     1      15.311  -6.471  -1.044  0.00  0.00    +0.000 A 
ATOM      6  C   UNL     1      16.781  -4.623  -0.528  0.00  0.00    +0.000 A 
ATOM      7  H   UNL     1      15.263  -7.091  -3.103  0.00  0.00    +0.000 HD
ATOM      8  H   UNL     1      17.881  -3.781  -2.120  0.00  0.00    +0.000 HD
ATOM      9  H   UNL     1      14.590  -7.224  -0.738  0.00  0.00    +0.000 HD
ATOM     10  H   UNL     1      17.217  -3.923   0.179  0.00  0.00    +0.000 HD
ENDROOT
BRANCH   2  12
ATOM     11  O   UNL     1      16.203  -5.328   2.212  0.00  0.00    +0.000 OA
ATOM     12  C   UNL     1      15.461  -5.659   1.282  0.00  0.00    +0.000 C 
ATOM     13  H   UNL     1      14.444  -6.034   1.489  0.00  0.00    +0.000 HD
ENDBRANCH   2  12
BRANCH   1  14
ATOM     14  O   UNL     1      16.984  -5.366  -4.104  0.00  0.00    +0.000 OA
BRANCH  14  15
ATOM     15  C   UNL     1      17.771  -6.439  -4.617  0.00  0.00    +0.000 C 
ATOM     16  H   UNL     1      17.193  -7.072  -5.298  0.00  0.00    +0.000 HD
ATOM     17  H   UNL     1      18.238  -7.015  -3.812  0.00  0.00    +0.000 HD
ATOM     18  H   UNL     1      18.582  -5.994  -5.204  0.00  0.00    +0.000 HD
ENDBRANCH  14  15
ENDBRANCH   1  14
TORSDOF 3
ENDMDL
MODEL 10
REMARK VINA RESULT:    -3.851     11.690     12.516
REMARK INTER + INTRA:          -4.466
REMARK INTER:                  -4.414
REMARK INTRA:                  -0.052
REMARK UNBOUND:                -0.052
REMARK  Name = 31244
REMARK  3 active torsions:
REMARK  status: ('A' for Active; 'I' for Inactive)
REMARK    1  A    between atoms: O_1  and  C_3
REMARK    2  A    between atoms: O_1  and  C_10
REMARK    3  A    between atoms: C_4  and  C_9
REMARK                            x       y       z     vdW  Elec       q    Type
REMARK                         _______ _______ _______ _____ _____    ______ ____
ROOT
ATOM      1  C   UNL     1      14.221   6.337  -0.981  0.00  0.00    +0.000 A 
ATOM      2  C   UNL     1      16.519   7.356  -2.191  0.00  0.00    +0.000 A 
ATOM      3  C   UNL     1      14.546   7.686  -0.837  0.00  0.00    +0.000 A 
ATOM      4  C   UNL     1      15.045   5.498  -1.730  0.00  0.00    +0.000 A 
ATOM      5  C   UNL     1      15.694   8.196  -1.442  0.00  0.00    +0.000 A 
ATOM      6  C   UNL     1      16.194   6.007  -2.335  0.00  0.00    +0.000 A 
ATOM      7  H   UNL     1      13.907   8.345  -0.255  0.00  0.00    +0.000 HD
ATOM      8  H   UNL     1      14.852   4.441  -1.882  0.00  0.00    +0.000 HD
ATOM      9  H   UNL     1      15.934   9.249  -1.321  0.00  0.00    +0.000 HD
ATOM     10  H   UNL     1      16.822   5.335  -2.914  0.00  0.00    +0.000 HD
ENDROOT
BRANCH   2  12
ATOM     11  O   UNL     1      17.713   8.893  -3.538  0.00  0.00    +0.000 OA
ATOM     12  C   UNL     1      17.716   7.887  -2.823  0.00  0.00    +0.000 C 
ATOM     13  H   UNL     1      18.658   7.342  -2.633  0.00  0.00    +0.000 HD
ENDBRANCH   2  12
BRANCH   1  14
ATOM     14  O   UNL     1      13.100   5.840  -0.390  0.00  0.00    +0.000 OA
BRANCH  14  15
ATOM     15  C   UNL     1      13.176   4.517   0.138  0.00  0.00    +0.000 C 
ATOM     16  H   UNL     1      14.213   4.211   0.308  0.00  0.00    +0.000 HD
ATOM     17  H   UNL     1      12.629   3.803  -0.485  0.00  0.00    +0.000 HD
ATOM     18  H   UNL     1      12.683   4.532   1.116  0.00  0.00    +0.000 HD
ENDBRANCH  14  15
ENDBRANCH   1  14
TORSDOF 3
ENDMDL
