MODEL 1
REMARK VINA RESULT:    -4.401      0.000      0.000
REMARK INTER + INTRA:          -6.371
REMARK INTER:                  -6.202
REMARK INTRA:                  -0.170
REMARK UNBOUND:                -0.426
REMARK  Name = 12348
REMARK  7 active torsions:
REMARK  status: ('A' for Active; 'I' for Inactive)
REMARK    1  A    between atoms: O_1  and  C_6
REMARK    2  A    between atoms: O_1  and  C_8
REMARK    3  A    between atoms: C_3  and  C_4
REMARK    4  A    between atoms: C_3  and  C_5
REMARK    5  A    between atoms: C_4  and  C_6
REMARK    6  A    between atoms: C_5  and  C_7
REMARK    7  A    between atoms: C_8  and  C_9
REMARK                            x       y       z     vdW  Elec       q    Type
REMARK                         _______ _______ _______ _____ _____    ______ ____
ROOT
ATOM      1  C   UNL     1       2.455  -6.153  -7.685  0.00  0.00    +0.000 C 
ATOM      2  H   UNL     1       2.604  -5.194  -8.196  0.00  0.00    +0.000 HD
ATOM      3  H   UNL     1       1.388  -6.387  -7.796  0.00  0.00    +0.000 HD
ENDROOT
BRANCH   1   4
ATOM      4  C   UNL     1       2.818  -6.028  -6.207  0.00  0.00    +0.000 C 
ATOM      5  H   UNL     1       3.732  -5.432  -6.102  0.00  0.00    +0.000 HD
ATOM      6  H   UNL     1       3.031  -7.022  -5.796  0.00  0.00    +0.000 HD
BRANCH   4   7
ATOM      7  C   UNL     1       1.686  -5.380  -5.410  0.00  0.00    +0.000 C 
ATOM      8  H   UNL     1       1.570  -5.889  -4.446  0.00  0.00    +0.000 HD
ATOM      9  H   UNL     1       1.932  -4.333  -5.197  0.00  0.00    +0.000 HD
BRANCH   7  10
ATOM     10  C   UNL     1       0.369  -5.435  -6.167  0.00  0.00    +0.000 C 
ATOM     11  H   UNL     1      -0.473  -5.564  -5.481  0.00  0.00    +0.000 HD
ATOM     12  H   UNL     1       0.208  -4.518  -6.742  0.00  0.00    +0.000 HD
ATOM     13  H   UNL     1       0.370  -6.277  -6.867  0.00  0.00    +0.000 HD
ENDBRANCH   7  10
ENDBRANCH   4   7
ENDBRANCH   1   4
BRANCH   1  14
ATOM     14  C   UNL     1       3.279  -7.228  -8.378  0.00  0.00    +0.000 C 
ATOM     15  H   UNL     1       2.636  -7.832  -9.029  0.00  0.00    +0.000 HD
ATOM     16  H   UNL     1       3.747  -7.881  -7.631  0.00  0.00    +0.000 HD
BRANCH  14  17
ATOM     17  O   UNL     1       4.287  -6.603  -9.159  0.00  0.00    +0.000 OA
BRANCH  17  19
ATOM     18  O   UNL     1       5.783  -8.362  -9.116  0.00  0.00    +0.000 OA
ATOM     19  C   UNL     1       5.532  -7.165  -9.087  0.00  0.00    +0.000 C 
BRANCH  19  20
ATOM     20  C   UNL     1       6.571  -6.092  -8.968  0.00  0.00    +0.000 C 
ATOM     21  H   UNL     1       6.414  -5.337  -9.742  0.00  0.00    +0.000 HD
ATOM     22  H   UNL     1       7.568  -6.531  -9.055  0.00  0.00    +0.000 HD
ATOM     23  H   UNL     1       6.485  -5.611  -7.990  0.00  0.00    +0.000 HD
ENDBRANCH  19  20
ENDBRANCH  17  19
ENDBRANCH  14  17
ENDBRANCH   1  14
TORSDOF 7
ENDMDL
MODEL 2
REMARK VINA RESULT:    -3.926     13.670     14.403
REMARK INTER + INTRA:          -5.730
REMARK INTER:                  -5.449
REMARK INTRA:                  -0.281
REMARK UNBOUND:                -0.426
REMARK  Name = 12348
REMARK  7 active torsions:
REMARK  status: ('A' for Active; 'I' for Inactive)
REMARK    1  A    between atoms: O_1  and  C_6
REMARK    2  A    between atoms: O_1  and  C_8
REMARK    3  A    between atoms: C_3  and  C_4
REMARK    4  A    between atoms: C_3  and  C_5
REMARK    5  A    between atoms: C_4  and  C_6
REMARK    6  A    between atoms: C_5  and  C_7
REMARK    7  A    between atoms: C_8  and  C_9
REMARK                            x       y       z     vdW  Elec       q    Type
REMARK                         _______ _______ _______ _____ _____    ______ ____
ROOT
ATOM      1  C   UNL     1      15.843  -4.882  -2.109  0.00  0.00    +0.000 C 
ATOM      2  H   UNL     1      16.166  -4.486  -1.138  0.00  0.00    +0.000 HD
ATOM      3  H   UNL     1      15.019  -4.235  -2.435  0.00  0.00    +0.000 HD
ENDROOT
BRANCH   1   4
ATOM      4  C   UNL     1      15.356  -6.321  -1.958  0.00  0.00    +0.000 C 
ATOM      5  H   UNL     1      15.990  -6.989  -2.553  0.00  0.00    +0.000 HD
ATOM      6  H   UNL     1      14.337  -6.407  -2.352  0.00  0.00    +0.000 HD
BRANCH   4   7
ATOM      7  C   UNL     1      15.375  -6.764  -0.495  0.00  0.00    +0.000 C 
ATOM      8  H   UNL     1      14.386  -7.137  -0.205  0.00  0.00    +0.000 HD
ATOM      9  H   UNL     1      16.084  -7.590  -0.364  0.00  0.00    +0.000 HD
BRANCH   7  10
ATOM     10  C   UNL     1      15.769  -5.621   0.428  0.00  0.00    +0.000 C 
ATOM     11  H   UNL     1      15.009  -5.458   1.197  0.00  0.00    +0.000 HD
ATOM     12  H   UNL     1      16.723  -5.828   0.923  0.00  0.00    +0.000 HD
ATOM     13  H   UNL     1      15.878  -4.694  -0.145  0.00  0.00    +0.000 HD
ENDBRANCH   7  10
ENDBRANCH   4   7
ENDBRANCH   1   4
BRANCH   1  14
ATOM     14  C   UNL     1      16.989  -4.777  -3.104  0.00  0.00    +0.000 C 
ATOM     15  H   UNL     1      17.653  -3.949  -2.825  0.00  0.00    +0.000 HD
ATOM     16  H   UNL     1      16.595  -4.595  -4.111  0.00  0.00    +0.000 HD
BRANCH  14  17
ATOM     17  O   UNL     1      17.721  -5.994  -3.093  0.00  0.00    +0.000 OA
BRANCH  17  19
ATOM     18  O   UNL     1      19.653  -6.096  -4.355  0.00  0.00    +0.000 OA
ATOM     19  C   UNL     1      18.448  -6.263  -4.220  0.00  0.00    +0.000 C 
BRANCH  19  20
ATOM     20  C   UNL     1      17.550  -6.803  -5.291  0.00  0.00    +0.000 C 
ATOM     21  H   UNL     1      18.147  -7.305  -6.056  0.00  0.00    +0.000 HD
ATOM     22  H   UNL     1      16.966  -5.991  -5.729  0.00  0.00    +0.000 HD
ATOM     23  H   UNL     1      16.861  -7.532  -4.853  0.00  0.00    +0.000 HD
ENDBRANCH  19  20
ENDBRANCH  17  19
ENDBRANCH  14  17
ENDBRANCH   1  14
TORSDOF 7
ENDMDL
MODEL 3
REMARK VINA RESULT:    -3.571     13.047     15.236
REMARK INTER + INTRA:          -5.250
REMARK INTER:                  -5.041
REMARK INTRA:                  -0.209
REMARK UNBOUND:                -0.426
REMARK  Name = 12348
REMARK  7 active torsions:
REMARK  status: ('A' for Active; 'I' for Inactive)
REMARK    1  A    between atoms: O_1  and  C_6
REMARK    2  A    between atoms: O_1  and  C_8
REMARK    3  A    between atoms: C_3  and  C_4
REMARK    4  A    between atoms: C_3  and  C_5
REMARK    5  A    between atoms: C_4  and  C_6
REMARK    6  A    between atoms: C_5  and  C_7
REMARK    7  A    between atoms: C_8  and  C_9
REMARK                            x       y       z     vdW  Elec       q    Type
REMARK                         _______ _______ _______ _____ _____    ______ ____
ROOT
ATOM      1  C   UNL     1      17.553  -6.000  -4.336  0.00  0.00    +0.000 C 
ATOM      2  H   UNL     1      16.719  -6.705  -4.440  0.00  0.00    +0.000 HD
ATOM      3  H   UNL     1      17.507  -5.350  -5.219  0.00  0.00    +0.000 HD
ENDROOT
BRANCH   1   4
ATOM      4  C   UNL     1      18.881  -6.753  -4.303  0.00  0.00    +0.000 C 
ATOM      5  H   UNL     1      19.196  -6.989  -5.326  0.00  0.00    +0.000 HD
ATOM      6  H   UNL     1      18.750  -7.706  -3.776  0.00  0.00    +0.000 HD
BRANCH   4   7
ATOM      7  C   UNL     1      19.968  -5.933  -3.607  0.00  0.00    +0.000 C 
ATOM      8  H   UNL     1      19.509  -5.164  -2.977  0.00  0.00    +0.000 HD
ATOM      9  H   UNL     1      20.560  -6.581  -2.951  0.00  0.00    +0.000 HD
BRANCH   7  10
ATOM     10  C   UNL     1      20.894  -5.269  -4.615  0.00  0.00    +0.000 C 
ATOM     11  H   UNL     1      21.881  -5.741  -4.613  0.00  0.00    +0.000 HD
ATOM     12  H   UNL     1      20.483  -5.333  -5.627  0.00  0.00    +0.000 HD
ATOM     13  H   UNL     1      21.024  -4.210  -4.368  0.00  0.00    +0.000 HD
ENDBRANCH   7  10
ENDBRANCH   4   7
ENDBRANCH   1   4
BRANCH   1  14
ATOM     14  C   UNL     1      17.351  -5.160  -3.083  0.00  0.00    +0.000 C 
ATOM     15  H   UNL     1      17.760  -4.154  -3.237  0.00  0.00    +0.000 HD
ATOM     16  H   UNL     1      17.862  -5.627  -2.232  0.00  0.00    +0.000 HD
BRANCH  14  17
ATOM     17  O   UNL     1      15.960  -5.068  -2.810  0.00  0.00    +0.000 OA
BRANCH  17  19
ATOM     18  O   UNL     1      14.652  -6.972  -2.811  0.00  0.00    +0.000 OA
ATOM     19  C   UNL     1      15.389  -6.176  -2.246  0.00  0.00    +0.000 C 
BRANCH  19  20
ATOM     20  C   UNL     1      15.799  -6.286  -0.808  0.00  0.00    +0.000 C 
ATOM     21  H   UNL     1      15.346  -5.476  -0.232  0.00  0.00    +0.000 HD
ATOM     22  H   UNL     1      16.888  -6.253  -0.730  0.00  0.00    +0.000 HD
ATOM     23  H   UNL     1      15.448  -7.239  -0.403  0.00  0.00    +0.000 HD
ENDBRANCH  19  20
ENDBRANCH  17  19
ENDBRANCH  14  17
ENDBRANCH   1  14
TORSDOF 7
ENDMDL
MODEL 4
REMARK VINA RESULT:    -3.481     18.012     20.409
REMARK INTER + INTRA:          -5.128
REMARK INTER:                  -5.041
REMARK INTRA:                  -0.087
REMARK UNBOUND:                -0.426
REMARK  Name = 12348
REMARK  7 active torsions:
REMARK  status: ('A' for Active; 'I' for Inactive)
REMARK    1  A    between atoms: O_1  and  C_6
REMARK    2  A    between atoms: O_1  and  C_8
REMARK    3  A    between atoms: C_3  and  C_4
REMARK    4  A    between atoms: C_3  and  C_5
REMARK    5  A    between atoms: C_4  and  C_6
REMARK    6  A    between atoms: C_5  and  C_7
REMARK    7  A    between atoms: C_8  and  C_9
REMARK                            x       y       z     vdW  Elec       q    Type
REMARK                         _______ _______ _______ _____ _____    ______ ____
ROOT
ATOM      1  C   UNL     1     -16.885  -6.378  -2.399  0.00  0.00    +0.000 C 
ATOM      2  H   UNL     1     -16.560  -7.368  -2.055  0.00  0.00    +0.000 HD
ATOM      3  H   UNL     1     -16.696  -5.695  -1.561  0.00  0.00    +0.000 HD
ENDROOT
BRANCH   1   4
ATOM      4  C   UNL     1     -18.374  -6.398  -2.738  0.00  0.00    +0.000 C 
ATOM      5  H   UNL     1     -18.873  -7.183  -2.159  0.00  0.00    +0.000 HD
ATOM      6  H   UNL     1     -18.504  -6.645  -3.799  0.00  0.00    +0.000 HD
BRANCH   4   7
ATOM      7  C   UNL     1     -19.029  -5.048  -2.446  0.00  0.00    +0.000 C 
ATOM      8  H   UNL     1     -18.298  -4.370  -1.990  0.00  0.00    +0.000 HD
ATOM      9  H   UNL     1     -19.362  -4.585  -3.382  0.00  0.00    +0.000 HD
BRANCH   7  10
ATOM     10  C   UNL     1     -20.222  -5.199  -1.515  0.00  0.00    +0.000 C 
ATOM     11  H   UNL     1     -21.126  -5.456  -2.074  0.00  0.00    +0.000 HD
ATOM     12  H   UNL     1     -20.042  -5.981  -0.771  0.00  0.00    +0.000 HD
ATOM     13  H   UNL     1     -20.407  -4.260  -0.983  0.00  0.00    +0.000 HD
ENDBRANCH   7  10
ENDBRANCH   4   7
ENDBRANCH   1   4
BRANCH   1  14
ATOM     14  C   UNL     1     -16.041  -5.955  -3.592  0.00  0.00    +0.000 C 
ATOM     15  H   UNL     1     -15.777  -4.894  -3.507  0.00  0.00    +0.000 HD
ATOM     16  H   UNL     1     -16.601  -6.111  -4.521  0.00  0.00    +0.000 HD
BRANCH  14  17
ATOM     17  O   UNL     1     -14.855  -6.736  -3.616  0.00  0.00    +0.000 OA
BRANCH  17  19
ATOM     18  O   UNL     1     -14.080  -6.595  -5.787  0.00  0.00    +0.000 OA
ATOM     19  C   UNL     1     -13.946  -6.411  -4.586  0.00  0.00    +0.000 C 
BRANCH  19  20
ATOM     20  C   UNL     1     -12.736  -5.784  -3.962  0.00  0.00    +0.000 C 
ATOM     21  H   UNL     1     -13.044  -5.072  -3.192  0.00  0.00    +0.000 HD
ATOM     22  H   UNL     1     -12.140  -5.286  -4.730  0.00  0.00    +0.000 HD
ATOM     23  H   UNL     1     -12.125  -6.560  -3.493  0.00  0.00    +0.000 HD
ENDBRANCH  19  20
ENDBRANCH  17  19
ENDBRANCH  14  17
ENDBRANCH   1  14
TORSDOF 7
ENDMDL
MODEL 5
REMARK VINA RESULT:    -3.469     34.324     35.245
REMARK INTER + INTRA:          -5.112
REMARK INTER:                  -4.869
REMARK INTRA:                  -0.243
REMARK UNBOUND:                -0.426
REMARK  Name = 12348
REMARK  7 active torsions:
REMARK  status: ('A' for Active; 'I' for Inactive)
REMARK    1  A    between atoms: O_1  and  C_6
REMARK    2  A    between atoms: O_1  and  C_8
REMARK    3  A    between atoms: C_3  and  C_4
REMARK    4  A    between atoms: C_3  and  C_5
REMARK    5  A    between atoms: C_4  and  C_6
REMARK    6  A    between atoms: C_5  and  C_7
REMARK    7  A    between atoms: C_8  and  C_9
REMARK                            x       y       z     vdW  Elec       q    Type
REMARK                         _______ _______ _______ _____ _____    ______ ____
ROOT
ATOM      1  C   UNL     1      -3.213   5.289  25.813  0.00  0.00    +0.000 C 
ATOM      2  H   UNL     1      -2.946   4.596  26.621  0.00  0.00    +0.000 HD
ATOM      3  H   UNL     1      -3.951   5.978  26.243  0.00  0.00    +0.000 HD
ENDROOT
BRANCH   1   4
ATOM      4  C   UNL     1      -3.825   4.524  24.642  0.00  0.00    +0.000 C 
ATOM      5  H   UNL     1      -3.524   3.472  24.691  0.00  0.00    +0.000 HD
ATOM      6  H   UNL     1      -3.437   4.928  23.698  0.00  0.00    +0.000 HD
BRANCH   4   7
ATOM      7  C   UNL     1      -5.351   4.624  24.648  0.00  0.00    +0.000 C 
ATOM      8  H   UNL     1      -5.673   5.456  24.011  0.00  0.00    +0.000 HD
ATOM      9  H   UNL     1      -5.786   3.709  24.232  0.00  0.00    +0.000 HD
BRANCH   7  10
ATOM     10  C   UNL     1      -5.888   4.834  26.056  0.00  0.00    +0.000 C 
ATOM     11  H   UNL     1      -6.702   5.565  26.060  0.00  0.00    +0.000 HD
ATOM     12  H   UNL     1      -6.265   3.896  26.475  0.00  0.00    +0.000 HD
ATOM     13  H   UNL     1      -5.094   5.204  26.712  0.00  0.00    +0.000 HD
ENDBRANCH   7  10
ENDBRANCH   4   7
ENDBRANCH   1   4
BRANCH   1  14
ATOM     14  C   UNL     1      -1.979   6.072  25.391  0.00  0.00    +0.000 C 
ATOM     15  H   UNL     1      -1.089   5.662  25.882  0.00  0.00    +0.000 HD
ATOM     16  H   UNL     1      -2.090   7.126  25.673  0.00  0.00    +0.000 HD
BRANCH  14  17
ATOM     17  O   UNL     1      -1.830   5.971  23.982  0.00  0.00    +0.000 OA
BRANCH  17  19
ATOM     18  O   UNL     1       0.015   7.080  23.145  0.00  0.00    +0.000 OA
ATOM     19  C   UNL     1      -1.185   7.013  23.374  0.00  0.00    +0.000 C 
BRANCH  19  20
ATOM     20  C   UNL     1      -2.169   8.086  23.018  0.00  0.00    +0.000 C 
ATOM     21  H   UNL     1      -2.601   8.508  23.929  0.00  0.00    +0.000 HD
ATOM     22  H   UNL     1      -2.950   7.672  22.376  0.00  0.00    +0.000 HD
ATOM     23  H   UNL     1      -1.656   8.884  22.474  0.00  0.00    +0.000 HD
ENDBRANCH  19  20
ENDBRANCH  17  19
ENDBRANCH  14  17
ENDBRANCH   1  14
TORSDOF 7
ENDMDL
MODEL 6
REMARK VINA RESULT:    -3.445     26.067     27.343
REMARK INTER + INTRA:          -5.080
REMARK INTER:                  -4.866
REMARK INTRA:                  -0.214
REMARK UNBOUND:                -0.426
REMARK  Name = 12348
REMARK  7 active torsions:
REMARK  status: ('A' for Active; 'I' for Inactive)
REMARK    1  A    between atoms: O_1  and  C_6
REMARK    2  A    between atoms: O_1  and  C_8
REMARK    3  A    between atoms: C_3  and  C_4
REMARK    4  A    between atoms: C_3  and  C_5
REMARK    5  A    between atoms: C_4  and  C_6
REMARK    6  A    between atoms: C_5  and  C_7
REMARK    7  A    between atoms: C_8  and  C_9
REMARK                            x       y       z     vdW  Elec       q    Type
REMARK                         _______ _______ _______ _____ _____    ______ ____
ROOT
ATOM      1  C   UNL     1      11.812  18.128 -11.833  0.00  0.00    +0.000 C 
ATOM      2  H   UNL     1      11.228  17.204 -11.940  0.00  0.00    +0.000 HD
ATOM      3  H   UNL     1      12.298  18.287 -12.803  0.00  0.00    +0.000 HD
ENDROOT
BRANCH   1   4
ATOM      4  C   UNL     1      12.862  17.965 -10.736  0.00  0.00    +0.000 C 
ATOM      5  H   UNL     1      12.368  17.898  -9.760  0.00  0.00    +0.000 HD
ATOM      6  H   UNL     1      13.506  18.852 -10.712  0.00  0.00    +0.000 HD
BRANCH   4   7
ATOM      7  C   UNL     1      13.718  16.720 -10.966  0.00  0.00    +0.000 C 
ATOM      8  H   UNL     1      14.779  16.996 -10.989  0.00  0.00    +0.000 HD
ATOM      9  H   UNL     1      13.584  16.017 -10.136  0.00  0.00    +0.000 HD
BRANCH   7  10
ATOM     10  C   UNL     1      13.353  16.026 -12.269  0.00  0.00    +0.000 C 
ATOM     11  H   UNL     1      13.700  14.989 -12.272  0.00  0.00    +0.000 HD
ATOM     12  H   UNL     1      12.269  16.027 -12.423  0.00  0.00    +0.000 HD
ATOM     13  H   UNL     1      13.816  16.543 -13.116  0.00  0.00    +0.000 HD
ENDBRANCH   7  10
ENDBRANCH   4   7
ENDBRANCH   1   4
BRANCH   1  14
ATOM     14  C   UNL     1      10.872  19.289 -11.545  0.00  0.00    +0.000 C 
ATOM     15  H   UNL     1       9.836  18.993 -11.751  0.00  0.00    +0.000 HD
ATOM     16  H   UNL     1      11.132  20.147 -12.176  0.00  0.00    +0.000 HD
BRANCH  14  17
ATOM     17  O   UNL     1      10.995  19.651 -10.177  0.00  0.00    +0.000 OA
BRANCH  17  19
ATOM     18  O   UNL     1       9.427  21.045  -9.210  0.00  0.00    +0.000 OA
ATOM     19  C   UNL     1      10.465  20.865  -9.831  0.00  0.00    +0.000 C 
BRANCH  19  20
ATOM     20  C   UNL     1      11.350  21.968 -10.327  0.00  0.00    +0.000 C 
ATOM     21  H   UNL     1      10.769  22.887 -10.436  0.00  0.00    +0.000 HD
ATOM     22  H   UNL     1      11.801  21.681 -11.279  0.00  0.00    +0.000 HD
ATOM     23  H   UNL     1      12.150  22.145  -9.601  0.00  0.00    +0.000 HD
ENDBRANCH  19  20
ENDBRANCH  17  19
ENDBRANCH  14  17
ENDBRANCH   1  14
TORSDOF 7
ENDMDL
MODEL 7
REMARK VINA RESULT:    -3.418     36.056     37.898
REMARK INTER + INTRA:          -5.043
REMARK INTER:                  -4.817
REMARK INTRA:                  -0.226
REMARK UNBOUND:                -0.426
REMARK  Name = 12348
REMARK  7 active torsions:
REMARK  status: ('A' for Active; 'I' for Inactive)
REMARK    1  A    between atoms: O_1  and  C_6
REMARK    2  A    between atoms: O_1  and  C_8
REMARK    3  A    between atoms: C_3  and  C_4
REMARK    4  A    between atoms: C_3  and  C_5
REMARK    5  A    between atoms: C_4  and  C_6
REMARK    6  A    between atoms: C_5  and  C_7
REMARK    7  A    between atoms: C_8  and  C_9
REMARK                            x       y       z     vdW  Elec       q    Type
REMARK                         _______ _______ _______ _____ _____    ______ ____
ROOT
ATOM      1  C   UNL     1      -5.691   4.576  25.162  0.00  0.00    +0.000 C 
ATOM      2  H   UNL     1      -6.225   3.720  24.730  0.00  0.00    +0.000 HD
ATOM      3  H   UNL     1      -6.242   5.467  24.835  0.00  0.00    +0.000 HD
ENDROOT
BRANCH   1   4
ATOM      4  C   UNL     1      -4.256   4.622  24.641  0.00  0.00    +0.000 C 
ATOM      5  H   UNL     1      -4.214   5.230  23.730  0.00  0.00    +0.000 HD
ATOM      6  H   UNL     1      -3.932   3.610  24.369  0.00  0.00    +0.000 HD
BRANCH   4   7
ATOM      7  C   UNL     1      -3.302   5.197  25.688  0.00  0.00    +0.000 C 
ATOM      8  H   UNL     1      -3.850   5.861  26.367  0.00  0.00    +0.000 HD
ATOM      9  H   UNL     1      -2.884   4.387  26.296  0.00  0.00    +0.000 HD
BRANCH   7  10
ATOM     10  C   UNL     1      -2.165   5.970  25.040  0.00  0.00    +0.000 C 
ATOM     11  H   UNL     1      -1.973   5.610  24.026  0.00  0.00    +0.000 HD
ATOM     12  H   UNL     1      -2.396   7.039  24.988  0.00  0.00    +0.000 HD
ATOM     13  H   UNL     1      -1.246   5.850  25.623  0.00  0.00    +0.000 HD
ENDBRANCH   7  10
ENDBRANCH   4   7
ENDBRANCH   1   4
BRANCH   1  14
ATOM     14  C   UNL     1      -5.736   4.487  26.680  0.00  0.00    +0.000 C 
ATOM     15  H   UNL     1      -4.732   4.636  27.094  0.00  0.00    +0.000 HD
ATOM     16  H   UNL     1      -6.108   3.502  26.986  0.00  0.00    +0.000 HD
BRANCH  14  17
ATOM     17  O   UNL     1      -6.605   5.496  27.174  0.00  0.00    +0.000 OA
BRANCH  17  19
ATOM     18  O   UNL     1      -7.162   6.577  29.138  0.00  0.00    +0.000 OA
ATOM     19  C   UNL     1      -6.601   5.675  28.531  0.00  0.00    +0.000 C 
BRANCH  19  20
ATOM     20  C   UNL     1      -5.799   4.592  29.186  0.00  0.00    +0.000 C 
ATOM     21  H   UNL     1      -6.445   3.993  29.832  0.00  0.00    +0.000 HD
ATOM     22  H   UNL     1      -4.982   5.033  29.761  0.00  0.00    +0.000 HD
ATOM     23  H   UNL     1      -5.374   3.940  28.418  0.00  0.00    +0.000 HD
ENDBRANCH  19  20
ENDBRANCH  17  19
ENDBRANCH  14  17
ENDBRANCH   1  14
TORSDOF 7
ENDMDL
MODEL 8
REMARK VINA RESULT:    -3.360     17.053     18.312
REMARK INTER + INTRA:          -4.964
REMARK INTER:                  -4.774
REMARK INTRA:                  -0.191
REMARK UNBOUND:                -0.426
REMARK  Name = 12348
REMARK  7 active torsions:
REMARK  status: ('A' for Active; 'I' for Inactive)
REMARK    1  A    between atoms: O_1  and  C_6
REMARK    2  A    between atoms: O_1  and  C_8
REMARK    3  A    between atoms: C_3  and  C_4
REMARK    4  A    between atoms: C_3  and  C_5
REMARK    5  A    between atoms: C_4  and  C_6
REMARK    6  A    between atoms: C_5  and  C_7
REMARK    7  A    between atoms: C_8  and  C_9
REMARK                            x       y       z     vdW  Elec       q    Type
REMARK                         _______ _______ _______ _____ _____    ______ ____
ROOT
ATOM      1  C   UNL     1      15.864   5.447  -1.358  0.00  0.00    +0.000 C 
ATOM      2  H   UNL     1      16.205   4.781  -2.160  0.00  0.00    +0.000 HD
ATOM      3  H   UNL     1      16.566   6.290  -1.351  0.00  0.00    +0.000 HD
ENDROOT
BRANCH   1   4
ATOM      4  C   UNL     1      15.898   4.720  -0.016  0.00  0.00    +0.000 C 
ATOM      5  H   UNL     1      15.219   5.214   0.689  0.00  0.00    +0.000 HD
ATOM      6  H   UNL     1      16.907   4.783   0.410  0.00  0.00    +0.000 HD
BRANCH   4   7
ATOM      7  C   UNL     1      15.502   3.251  -0.168  0.00  0.00    +0.000 C 
ATOM      8  H   UNL     1      15.373   3.009  -1.229  0.00  0.00    +0.000 HD
ATOM      9  H   UNL     1      16.301   2.608   0.217  0.00  0.00    +0.000 HD
BRANCH   7  10
ATOM     10  C   UNL     1      14.213   2.942   0.577  0.00  0.00    +0.000 C 
ATOM     11  H   UNL     1      14.397   2.263   1.414  0.00  0.00    +0.000 HD
ATOM     12  H   UNL     1      13.758   3.857   0.969  0.00  0.00    +0.000 HD
ATOM     13  H   UNL     1      13.492   2.467  -0.096  0.00  0.00    +0.000 HD
ENDBRANCH   7  10
ENDBRANCH   4   7
ENDBRANCH   1   4
BRANCH   1  14
ATOM     14  C   UNL     1      14.469   5.958  -1.685  0.00  0.00    +0.000 C 
ATOM     15  H   UNL     1      13.775   5.700  -0.876  0.00  0.00    +0.000 HD
ATOM     16  H   UNL     1      14.113   5.506  -2.619  0.00  0.00    +0.000 HD
BRANCH  14  17
ATOM     17  O   UNL     1      14.519   7.371  -1.831  0.00  0.00    +0.000 OA
BRANCH  17  19
ATOM     18  O   UNL     1      14.309   7.444  -4.130  0.00  0.00    +0.000 OA
ATOM     19  C   UNL     1      14.814   7.831  -3.085  0.00  0.00    +0.000 C 
BRANCH  19  20
ATOM     20  C   UNL     1      15.864   8.898  -3.004  0.00  0.00    +0.000 C 
ATOM     21  H   UNL     1      15.538   9.686  -2.321  0.00  0.00    +0.000 HD
ATOM     22  H   UNL     1      16.055   9.305  -3.999  0.00  0.00    +0.000 HD
ATOM     23  H   UNL     1      16.792   8.465  -2.619  0.00  0.00    +0.000 HD
ENDBRANCH  19  20
ENDBRANCH  17  19
ENDBRANCH  14  17
ENDBRANCH   1  14
TORSDOF 7
ENDMDL
MODEL 9
REMARK VINA RESULT:    -3.323     15.548     17.075
REMARK INTER + INTRA:          -4.915
REMARK INTER:                  -4.779
REMARK INTRA:                  -0.136
REMARK UNBOUND:                -0.426
REMARK  Name = 12348
REMARK  7 active torsions:
REMARK  status: ('A' for Active; 'I' for Inactive)
REMARK    1  A    between atoms: O_1  and  C_6
REMARK    2  A    between atoms: O_1  and  C_8
REMARK    3  A    between atoms: C_3  and  C_4
REMARK    4  A    between atoms: C_3  and  C_5
REMARK    5  A    between atoms: C_4  and  C_6
REMARK    6  A    between atoms: C_5  and  C_7
REMARK    7  A    between atoms: C_8  and  C_9
REMARK                            x       y       z     vdW  Elec       q    Type
REMARK                         _______ _______ _______ _____ _____    ______ ____
ROOT
ATOM      1  C   UNL     1      -7.533 -13.932   3.899  0.00  0.00    +0.000 C 
ATOM      2  H   UNL     1      -8.623 -13.839   3.816  0.00  0.00    +0.000 HD
ATOM      3  H   UNL     1      -7.334 -15.005   4.018  0.00  0.00    +0.000 HD
ENDROOT
BRANCH   1   4
ATOM      4  C   UNL     1      -7.027 -13.162   5.117  0.00  0.00    +0.000 C 
ATOM      5  H   UNL     1      -7.012 -12.089   4.893  0.00  0.00    +0.000 HD
ATOM      6  H   UNL     1      -5.995 -13.462   5.337  0.00  0.00    +0.000 HD
BRANCH   4   7
ATOM      7  C   UNL     1      -7.904 -13.420   6.342  0.00  0.00    +0.000 C 
ATOM      8  H   UNL     1      -7.491 -12.898   7.212  0.00  0.00    +0.000 HD
ATOM      9  H   UNL     1      -8.910 -13.022   6.170  0.00  0.00    +0.000 HD
BRANCH   7  10
ATOM     10  C   UNL     1      -8.004 -14.906   6.651  0.00  0.00    +0.000 C 
ATOM     11  H   UNL     1      -7.013 -15.365   6.698  0.00  0.00    +0.000 HD
ATOM     12  H   UNL     1      -8.508 -15.074   7.608  0.00  0.00    +0.000 HD
ATOM     13  H   UNL     1      -8.579 -15.416   5.872  0.00  0.00    +0.000 HD
ENDBRANCH   7  10
ENDBRANCH   4   7
ENDBRANCH   1   4
BRANCH   1  14
ATOM     14  C   UNL     1      -6.885 -13.441   2.613  0.00  0.00    +0.000 C 
ATOM     15  H   UNL     1      -6.248 -12.574   2.822  0.00  0.00    +0.000 HD
ATOM     16  H   UNL     1      -7.657 -13.152   1.891  0.00  0.00    +0.000 HD
BRANCH  14  17
ATOM     17  O   UNL     1      -6.094 -14.488   2.068  0.00  0.00    +0.000 OA
BRANCH  17  19
ATOM     18  O   UNL     1      -5.493 -15.421   0.043  0.00  0.00    +0.000 OA
ATOM     19  C   UNL     1      -6.142 -14.626   0.708  0.00  0.00    +0.000 C 
BRANCH  19  20
ATOM     20  C   UNL     1      -7.121 -13.649   0.130  0.00  0.00    +0.000 C 
ATOM     21  H   UNL     1      -6.845 -13.416  -0.902  0.00  0.00    +0.000 HD
ATOM     22  H   UNL     1      -7.142 -12.742   0.738  0.00  0.00    +0.000 HD
ATOM     23  H   UNL     1      -8.120 -14.094   0.131  0.00  0.00    +0.000 HD
ENDBRANCH  19  20
ENDBRANCH  17  19
ENDBRANCH  14  17
ENDBRANCH   1  14
TORSDOF 7
ENDMDL
MODEL 10
REMARK VINA RESULT:    -3.317     14.361     15.579
REMARK INTER + INTRA:          -4.906
REMARK INTER:                  -4.480
REMARK INTRA:                  -0.426
REMARK UNBOUND:                -0.426
REMARK  Name = 12348
REMARK  7 active torsions:
REMARK  status: ('A' for Active; 'I' for Inactive)
REMARK    1  A    between atoms: O_1  and  C_6
REMARK    2  A    between atoms: O_1  and  C_8
REMARK    3  A    between atoms: C_3  and  C_4
REMARK    4  A    between atoms: C_3  and  C_5
REMARK    5  A    between atoms: C_4  and  C_6
REMARK    6  A    between atoms: C_5  and  C_7
REMARK    7  A    between atoms: C_8  and  C_9
REMARK                            x       y       z     vdW  Elec       q    Type
REMARK                         _______ _______ _______ _____ _____    ______ ____
ROOT
ATOM      1  C   UNL     1      17.324  -6.260  -4.519  0.00  0.00    +0.000 C 
ATOM      2  H   UNL     1      17.282  -5.250  -4.946  0.00  0.00    +0.000 HD
ATOM      3  H   UNL     1      16.736  -6.894  -5.195  0.00  0.00    +0.000 HD
ENDROOT
BRANCH   1   4
ATOM      4  C   UNL     1      16.711  -6.269  -3.120  0.00  0.00    +0.000 C 
ATOM      5  H   UNL     1      17.477  -6.544  -2.385  0.00  0.00    +0.000 HD
ATOM      6  H   UNL     1      15.925  -7.032  -3.069  0.00  0.00    +0.000 HD
BRANCH   4   7
ATOM      7  C   UNL     1      16.122  -4.905  -2.763  0.00  0.00    +0.000 C 
ATOM      8  H   UNL     1      16.342  -4.183  -3.558  0.00  0.00    +0.000 HD
ATOM      9  H   UNL     1      15.031  -4.979  -2.685  0.00  0.00    +0.000 HD
BRANCH   7  10
ATOM     10  C   UNL     1      16.679  -4.385  -1.447  0.00  0.00    +0.000 C 
ATOM     11  H   UNL     1      16.878  -5.207  -0.753  0.00  0.00    +0.000 HD
ATOM     12  H   UNL     1      17.611  -3.834  -1.606  0.00  0.00    +0.000 HD
ATOM     13  H   UNL     1      15.961  -3.708  -0.974  0.00  0.00    +0.000 HD
ENDBRANCH   7  10
ENDBRANCH   4   7
ENDBRANCH   1   4
BRANCH   1  14
ATOM     14  C   UNL     1      18.767  -6.743  -4.505  0.00  0.00    +0.000 C 
ATOM     15  H   UNL     1      19.224  -6.586  -5.489  0.00  0.00    +0.000 HD
ATOM     16  H   UNL     1      18.802  -7.811  -4.260  0.00  0.00    +0.000 HD
BRANCH  14  17
ATOM     17  O   UNL     1      19.488  -6.008  -3.527  0.00  0.00    +0.000 OA
BRANCH  17  19
ATOM     18  O   UNL     1      21.222  -5.118  -4.766  0.00  0.00    +0.000 OA
ATOM     19  C   UNL     1      20.275  -4.994  -4.002  0.00  0.00    +0.000 C 
BRANCH  19  20
ATOM     20  C   UNL     1      19.808  -3.682  -3.449  0.00  0.00    +0.000 C 
ATOM     21  H   UNL     1      19.512  -3.020  -4.266  0.00  0.00    +0.000 HD
ATOM     22  H   UNL     1      20.604  -3.228  -2.853  0.00  0.00    +0.000 HD
ATOM     23  H   UNL     1      18.941  -3.849  -2.804  0.00  0.00    +0.000 HD
ENDBRANCH  19  20
ENDBRANCH  17  19
ENDBRANCH  14  17
ENDBRANCH   1  14
TORSDOF 7
ENDMDL
