MODEL 1
REMARK VINA RESULT:    -3.709      0.000      0.000
REMARK INTER + INTRA:          -4.143
REMARK INTER:                  -4.143
REMARK INTRA:                   0.000
REMARK UNBOUND:                 0.000
REMARK  Name = 1032
REMARK  3 active torsions:
REMARK  status: ('A' for Active; 'I' for Inactive)
REMARK    1  A    between atoms: O_1  and  C_5
REMARK    2  A    between atoms: C_3  and  C_4
REMARK    3  A    between atoms: C_3  and  C_5
REMARK                            x       y       z     vdW  Elec       q    Type
REMARK                         _______ _______ _______ _____ _____    ______ ____
ROOT
ATOM      1  C   UNL     1       5.958  -6.013  -9.855  0.00  0.00    +0.000 C 
ATOM      2  H   UNL     1       5.698  -4.964 -10.032  0.00  0.00    +0.000 HD
ATOM      3  H   UNL     1       6.470  -6.410 -10.738  0.00  0.00    +0.000 HD
ENDROOT
BRANCH   1   4
ATOM      4  C   UNL     1       6.882  -6.107  -8.654  0.00  0.00    +0.000 C 
ATOM      5  H   UNL     1       7.714  -5.404  -8.757  0.00  0.00    +0.000 HD
ATOM      6  H   UNL     1       6.348  -5.873  -7.727  0.00  0.00    +0.000 HD
ATOM      7  H   UNL     1       7.296  -7.116  -8.554  0.00  0.00    +0.000 HD
ENDBRANCH   1   4
BRANCH   1   9
ATOM      8  O   UNL     1       4.490  -7.647  -8.799  0.00  0.00    +0.000 OA
ATOM      9  C   UNL     1       4.683  -6.792  -9.651  0.00  0.00    +0.000 C 
BRANCH   9  10
ATOM     10  O   UNL     1       3.752  -6.408 -10.561  0.00  0.00    +0.000 OA
ATOM     11  H   UNL     1       4.133  -6.328 -11.461  0.00  0.00    +0.000 HD
ENDBRANCH   9  10
ENDBRANCH   1   9
TORSDOF 3
ENDMDL
MODEL 2
REMARK VINA RESULT:    -3.488      7.154      7.656
REMARK INTER + INTRA:          -3.896
REMARK INTER:                  -3.896
REMARK INTRA:                   0.000
REMARK UNBOUND:                 0.000
REMARK  Name = 1032
REMARK  3 active torsions:
REMARK  status: ('A' for Active; 'I' for Inactive)
REMARK    1  A    between atoms: O_1  and  C_5
REMARK    2  A    between atoms: C_3  and  C_4
REMARK    3  A    between atoms: C_3  and  C_5
REMARK                            x       y       z     vdW  Elec       q    Type
REMARK                         _______ _______ _______ _____ _____    ______ ____
ROOT
ATOM      1  C   UNL     1      -0.356  -5.513  -6.237  0.00  0.00    +0.000 C 
ATOM      2  H   UNL     1      -0.385  -5.049  -7.229  0.00  0.00    +0.000 HD
ATOM      3  H   UNL     1      -0.557  -6.586  -6.336  0.00  0.00    +0.000 HD
ENDROOT
BRANCH   1   4
ATOM      4  C   UNL     1       1.020  -5.314  -5.627  0.00  0.00    +0.000 C 
ATOM      5  H   UNL     1       1.713  -4.914  -6.374  0.00  0.00    +0.000 HD
ATOM      6  H   UNL     1       0.981  -4.614  -4.786  0.00  0.00    +0.000 HD
ATOM      7  H   UNL     1       1.426  -6.260  -5.255  0.00  0.00    +0.000 HD
ENDBRANCH   1   4
BRANCH   1   9
ATOM      8  O   UNL     1      -2.190  -3.991  -5.726  0.00  0.00    +0.000 OA
ATOM      9  C   UNL     1      -1.443  -4.899  -5.392  0.00  0.00    +0.000 C 
BRANCH   9  10
ATOM     10  O   UNL     1      -1.486  -5.504  -4.177  0.00  0.00    +0.000 OA
ATOM     11  H   UNL     1      -1.290  -6.464  -4.240  0.00  0.00    +0.000 HD
ENDBRANCH   9  10
ENDBRANCH   1   9
TORSDOF 3
ENDMDL
MODEL 3
REMARK VINA RESULT:    -3.384      6.788      7.387
REMARK INTER + INTRA:          -3.779
REMARK INTER:                  -3.779
REMARK INTRA:                   0.000
REMARK UNBOUND:                 0.000
REMARK  Name = 1032
REMARK  3 active torsions:
REMARK  status: ('A' for Active; 'I' for Inactive)
REMARK    1  A    between atoms: O_1  and  C_5
REMARK    2  A    between atoms: C_3  and  C_4
REMARK    3  A    between atoms: C_3  and  C_5
REMARK                            x       y       z     vdW  Elec       q    Type
REMARK                         _______ _______ _______ _____ _____    ______ ____
ROOT
ATOM      1  C   UNL     1       2.146  -4.800 -14.411  0.00  0.00    +0.000 C 
ATOM      2  H   UNL     1       1.582  -4.338 -13.594  0.00  0.00    +0.000 HD
ATOM      3  H   UNL     1       3.159  -5.032 -14.064  0.00  0.00    +0.000 HD
ENDROOT
BRANCH   1   4
ATOM      4  C   UNL     1       1.456  -6.082 -14.839  0.00  0.00    +0.000 C 
ATOM      5  H   UNL     1       1.247  -6.063 -15.913  0.00  0.00    +0.000 HD
ATOM      6  H   UNL     1       2.081  -6.956 -14.627  0.00  0.00    +0.000 HD
ATOM      7  H   UNL     1       0.507  -6.214 -14.308  0.00  0.00    +0.000 HD
ENDBRANCH   1   4
BRANCH   1   9
ATOM      8  O   UNL     1       1.309  -3.259 -16.104  0.00  0.00    +0.000 OA
ATOM      9  C   UNL     1       2.245  -3.807 -15.542  0.00  0.00    +0.000 C 
BRANCH   9  10
ATOM     10  O   UNL     1       3.547  -3.596 -15.863  0.00  0.00    +0.000 OA
ATOM     11  H   UNL     1       4.087  -4.408 -15.755  0.00  0.00    +0.000 HD
ENDBRANCH   9  10
ENDBRANCH   1   9
TORSDOF 3
ENDMDL
MODEL 4
REMARK VINA RESULT:    -3.363      2.872      3.464
REMARK INTER + INTRA:          -3.757
REMARK INTER:                  -3.757
REMARK INTRA:                   0.000
REMARK UNBOUND:                 0.000
REMARK  Name = 1032
REMARK  3 active torsions:
REMARK  status: ('A' for Active; 'I' for Inactive)
REMARK    1  A    between atoms: O_1  and  C_5
REMARK    2  A    between atoms: C_3  and  C_4
REMARK    3  A    between atoms: C_3  and  C_5
REMARK                            x       y       z     vdW  Elec       q    Type
REMARK                         _______ _______ _______ _____ _____    ______ ____
ROOT
ATOM      1  C   UNL     1       5.316  -5.087 -10.834  0.00  0.00    +0.000 C 
ATOM      2  H   UNL     1       5.694  -4.337 -10.131  0.00  0.00    +0.000 HD
ATOM      3  H   UNL     1       6.161  -5.642 -11.257  0.00  0.00    +0.000 HD
ENDROOT
BRANCH   1   4
ATOM      4  C   UNL     1       4.400  -6.050 -10.099  0.00  0.00    +0.000 C 
ATOM      5  H   UNL     1       3.436  -5.576  -9.893  0.00  0.00    +0.000 HD
ATOM      6  H   UNL     1       4.218  -6.952 -10.694  0.00  0.00    +0.000 HD
ATOM      7  H   UNL     1       4.840  -6.362  -9.146  0.00  0.00    +0.000 HD
ENDBRANCH   1   4
BRANCH   1   9
ATOM      8  O   UNL     1       3.661  -4.806 -12.601  0.00  0.00    +0.000 OA
ATOM      9  C   UNL     1       4.604  -4.373 -11.955  0.00  0.00    +0.000 C 
BRANCH   9  10
ATOM     10  O   UNL     1       5.162  -3.153 -12.158  0.00  0.00    +0.000 OA
ATOM     11  H   UNL     1       5.483  -3.047 -13.079  0.00  0.00    +0.000 HD
ENDBRANCH   9  10
ENDBRANCH   1   9
TORSDOF 3
ENDMDL
MODEL 5
REMARK VINA RESULT:    -3.113      5.673      6.598
REMARK INTER + INTRA:          -3.477
REMARK INTER:                  -3.477
REMARK INTRA:                   0.000
REMARK UNBOUND:                 0.000
REMARK  Name = 1032
REMARK  3 active torsions:
REMARK  status: ('A' for Active; 'I' for Inactive)
REMARK    1  A    between atoms: O_1  and  C_5
REMARK    2  A    between atoms: C_3  and  C_4
REMARK    3  A    between atoms: C_3  and  C_5
REMARK                            x       y       z     vdW  Elec       q    Type
REMARK                         _______ _______ _______ _____ _____    ______ ____
ROOT
ATOM      1  C   UNL     1       1.517  -5.369 -14.703  0.00  0.00    +0.000 C 
ATOM      2  H   UNL     1       1.158  -5.232 -13.678  0.00  0.00    +0.000 HD
ATOM      3  H   UNL     1       1.086  -6.288 -15.116  0.00  0.00    +0.000 HD
ENDROOT
BRANCH   1   4
ATOM      4  C   UNL     1       1.086  -4.186 -15.551  0.00  0.00    +0.000 C 
ATOM      5  H   UNL     1       1.962  -3.659 -15.943  0.00  0.00    +0.000 HD
ATOM      6  H   UNL     1       0.475  -4.512 -16.400  0.00  0.00    +0.000 HD
ATOM      7  H   UNL     1       0.492  -3.477 -14.965  0.00  0.00    +0.000 HD
ENDBRANCH   1   4
BRANCH   1   9
ATOM      8  O   UNL     1       3.785  -4.915 -13.934  0.00  0.00    +0.000 OA
ATOM      9  C   UNL     1       3.017  -5.521 -14.666  0.00  0.00    +0.000 C 
BRANCH   9  10
ATOM     10  O   UNL     1       3.414  -6.445 -15.578  0.00  0.00    +0.000 OA
ATOM     11  H   UNL     1       3.743  -7.264 -15.149  0.00  0.00    +0.000 HD
ENDBRANCH   9  10
ENDBRANCH   1   9
TORSDOF 3
ENDMDL
MODEL 6
REMARK VINA RESULT:    -3.076     39.109     39.582
REMARK INTER + INTRA:          -3.436
REMARK INTER:                  -3.436
REMARK INTRA:                   0.000
REMARK UNBOUND:                 0.000
REMARK  Name = 1032
REMARK  3 active torsions:
REMARK  status: ('A' for Active; 'I' for Inactive)
REMARK    1  A    between atoms: O_1  and  C_5
REMARK    2  A    between atoms: C_3  and  C_4
REMARK    3  A    between atoms: C_3  and  C_5
REMARK                            x       y       z     vdW  Elec       q    Type
REMARK                         _______ _______ _______ _____ _____    ______ ____
ROOT
ATOM      1  C   UNL     1      -5.112   4.882  26.242  0.00  0.00    +0.000 C 
ATOM      2  H   UNL     1      -4.480   4.069  26.613  0.00  0.00    +0.000 HD
ATOM      3  H   UNL     1      -4.569   5.829  26.329  0.00  0.00    +0.000 HD
ENDROOT
BRANCH   1   4
ATOM      4  C   UNL     1      -5.452   4.631  24.783  0.00  0.00    +0.000 C 
ATOM      5  H   UNL     1      -5.418   3.559  24.563  0.00  0.00    +0.000 HD
ATOM      6  H   UNL     1      -6.456   4.998  24.544  0.00  0.00    +0.000 HD
ATOM      7  H   UNL     1      -4.744   5.140  24.121  0.00  0.00    +0.000 HD
ENDBRANCH   1   4
BRANCH   1   9
ATOM      8  O   UNL     1      -7.087   5.923  27.220  0.00  0.00    +0.000 OA
ATOM      9  C   UNL     1      -6.346   4.958  27.105  0.00  0.00    +0.000 C 
BRANCH   9  10
ATOM     10  O   UNL     1      -6.532   3.781  27.755  0.00  0.00    +0.000 OA
ATOM     11  H   UNL     1      -5.688   3.300  27.889  0.00  0.00    +0.000 HD
ENDBRANCH   9  10
ENDBRANCH   1   9
TORSDOF 3
ENDMDL
MODEL 7
REMARK VINA RESULT:    -2.901     11.010     11.932
REMARK INTER + INTRA:          -3.240
REMARK INTER:                  -3.240
REMARK INTRA:                   0.000
REMARK UNBOUND:                 0.000
REMARK  Name = 1032
REMARK  3 active torsions:
REMARK  status: ('A' for Active; 'I' for Inactive)
REMARK    1  A    between atoms: O_1  and  C_5
REMARK    2  A    between atoms: C_3  and  C_4
REMARK    3  A    between atoms: C_3  and  C_5
REMARK                            x       y       z     vdW  Elec       q    Type
REMARK                         _______ _______ _______ _____ _____    ______ ____
ROOT
ATOM      1  C   UNL     1      -7.079  -7.412 -12.422  0.00  0.00    +0.000 C 
ATOM      2  H   UNL     1      -7.906  -8.096 -12.202  0.00  0.00    +0.000 HD
ATOM      3  H   UNL     1      -6.851  -7.457 -13.493  0.00  0.00    +0.000 HD
ENDROOT
BRANCH   1   4
ATOM      4  C   UNL     1      -7.484  -5.996 -12.054  0.00  0.00    +0.000 C 
ATOM      5  H   UNL     1      -8.574  -5.914 -11.997  0.00  0.00    +0.000 HD
ATOM      6  H   UNL     1      -7.068  -5.707 -11.083  0.00  0.00    +0.000 HD
ATOM      7  H   UNL     1      -7.125  -5.277 -12.798  0.00  0.00    +0.000 HD
ENDBRANCH   1   4
BRANCH   1   9
ATOM      8  O   UNL     1      -4.767  -7.333 -11.655  0.00  0.00    +0.000 OA
ATOM      9  C   UNL     1      -5.865  -7.871 -11.655  0.00  0.00    +0.000 C 
BRANCH   9  10
ATOM     10  O   UNL     1      -6.158  -8.989 -10.944  0.00  0.00    +0.000 OA
ATOM     11  H   UNL     1      -5.350  -9.491 -10.703  0.00  0.00    +0.000 HD
ENDBRANCH   9  10
ENDBRANCH   1   9
TORSDOF 3
ENDMDL
MODEL 8
REMARK VINA RESULT:    -2.894     24.608     25.089
REMARK INTER + INTRA:          -3.232
REMARK INTER:                  -3.232
REMARK INTRA:                   0.000
REMARK UNBOUND:                 0.000
REMARK  Name = 1032
REMARK  3 active torsions:
REMARK  status: ('A' for Active; 'I' for Inactive)
REMARK    1  A    between atoms: O_1  and  C_5
REMARK    2  A    between atoms: C_3  and  C_4
REMARK    3  A    between atoms: C_3  and  C_5
REMARK                            x       y       z     vdW  Elec       q    Type
REMARK                         _______ _______ _______ _____ _____    ______ ____
ROOT
ATOM      1  C   UNL     1      13.028  16.873 -11.240  0.00  0.00    +0.000 C 
ATOM      2  H   UNL     1      13.615  17.199 -10.375  0.00  0.00    +0.000 HD
ATOM      3  H   UNL     1      12.465  15.971 -10.974  0.00  0.00    +0.000 HD
ENDROOT
BRANCH   1   4
ATOM      4  C   UNL     1      12.058  17.972 -11.634  0.00  0.00    +0.000 C 
ATOM      5  H   UNL     1      12.571  18.938 -11.670  0.00  0.00    +0.000 HD
ATOM      6  H   UNL     1      11.623  17.779 -12.620  0.00  0.00    +0.000 HD
ATOM      7  H   UNL     1      11.235  18.048 -10.915  0.00  0.00    +0.000 HD
ENDBRANCH   1   4
BRANCH   1   9
ATOM      8  O   UNL     1      14.869  17.246 -12.792  0.00  0.00    +0.000 OA
ATOM      9  C   UNL     1      13.979  16.530 -12.359  0.00  0.00    +0.000 C 
BRANCH   9  10
ATOM     10  O   UNL     1      13.709  15.288 -12.835  0.00  0.00    +0.000 OA
ATOM     11  H   UNL     1      13.345  14.701 -12.138  0.00  0.00    +0.000 HD
ENDBRANCH   9  10
ENDBRANCH   1   9
TORSDOF 3
ENDMDL
MODEL 9
REMARK VINA RESULT:    -2.877     14.949     15.450
REMARK INTER + INTRA:          -3.213
REMARK INTER:                  -3.213
REMARK INTRA:                   0.000
REMARK UNBOUND:                 0.000
REMARK  Name = 1032
REMARK  3 active torsions:
REMARK  status: ('A' for Active; 'I' for Inactive)
REMARK    1  A    between atoms: O_1  and  C_5
REMARK    2  A    between atoms: C_3  and  C_4
REMARK    3  A    between atoms: C_3  and  C_5
REMARK                            x       y       z     vdW  Elec       q    Type
REMARK                         _______ _______ _______ _____ _____    ______ ____
ROOT
ATOM      1  C   UNL     1       1.167   4.379 -20.031  0.00  0.00    +0.000 C 
ATOM      2  H   UNL     1       1.252   4.494 -21.116  0.00  0.00    +0.000 HD
ATOM      3  H   UNL     1       2.117   4.005 -19.633  0.00  0.00    +0.000 HD
ENDROOT
BRANCH   1   4
ATOM      4  C   UNL     1       0.856   5.726 -19.403  0.00  0.00    +0.000 C 
ATOM      5  H   UNL     1       0.842   5.644 -18.312  0.00  0.00    +0.000 HD
ATOM      6  H   UNL     1       1.607   6.473 -19.681  0.00  0.00    +0.000 HD
ATOM      7  H   UNL     1      -0.121   6.097 -19.731  0.00  0.00    +0.000 HD
ENDBRANCH   1   4
BRANCH   1   9
ATOM      8  O   UNL     1      -0.394   2.579 -20.546  0.00  0.00    +0.000 OA
ATOM      9  C   UNL     1       0.094   3.360 -19.742  0.00  0.00    +0.000 C 
BRANCH   9  10
ATOM     10  O   UNL     1      -0.268   3.423 -18.435  0.00  0.00    +0.000 OA
ATOM     11  H   UNL     1      -0.383   4.349 -18.133  0.00  0.00    +0.000 HD
ENDBRANCH   9  10
ENDBRANCH   1   9
TORSDOF 3
ENDMDL
MODEL 10
REMARK VINA RESULT:    -2.814     18.040     18.579
REMARK INTER + INTRA:          -3.143
REMARK INTER:                  -3.143
REMARK INTRA:                   0.000
REMARK UNBOUND:                 0.000
REMARK  Name = 1032
REMARK  3 active torsions:
REMARK  status: ('A' for Active; 'I' for Inactive)
REMARK    1  A    between atoms: O_1  and  C_5
REMARK    2  A    between atoms: C_3  and  C_4
REMARK    3  A    between atoms: C_3  and  C_5
REMARK                            x       y       z     vdW  Elec       q    Type
REMARK                         _______ _______ _______ _____ _____    ______ ____
ROOT
ATOM      1  C   UNL     1      15.478   8.748  -3.065  0.00  0.00    +0.000 C 
ATOM      2  H   UNL     1      15.111   9.148  -2.114  0.00  0.00    +0.000 HD
ATOM      3  H   UNL     1      15.285   9.477  -3.859  0.00  0.00    +0.000 HD
ENDROOT
BRANCH   1   4
ATOM      4  C   UNL     1      16.972   8.499  -2.964  0.00  0.00    +0.000 C 
ATOM      5  H   UNL     1      17.338   8.772  -1.969  0.00  0.00    +0.000 HD
ATOM      6  H   UNL     1      17.208   7.444  -3.138  0.00  0.00    +0.000 HD
ATOM      7  H   UNL     1      17.521   9.090  -3.705  0.00  0.00    +0.000 HD
ENDBRANCH   1   4
BRANCH   1   9
ATOM      8  O   UNL     1      14.912   6.384  -2.889  0.00  0.00    +0.000 OA
ATOM      9  C   UNL     1      14.714   7.486  -3.377  0.00  0.00    +0.000 C 
BRANCH   9  10
ATOM     10  O   UNL     1      13.750   7.742  -4.298  0.00  0.00    +0.000 OA
ATOM     11  H   UNL     1      14.100   8.248  -5.063  0.00  0.00    +0.000 HD
ENDBRANCH   9  10
ENDBRANCH   1   9
TORSDOF 3
ENDMDL
