MODEL 1
REMARK VINA RESULT:    -3.258      0.000      0.000
REMARK INTER + INTRA:          -3.258
REMARK INTER:                  -3.258
REMARK INTRA:                   0.000
REMARK UNBOUND:                 0.000
REMARK  Name = 9261
REMARK  0 active torsions:
REMARK  status: ('A' for Active; 'I' for Inactive)
REMARK                            x       y       z     vdW  Elec       q    Type
REMARK                         _______ _______ _______ _____ _____    ______ ____
ROOT
ATOM      1  N   UNL     1       0.124  -5.437  -5.176  0.00  0.00    +0.000 NA
ATOM      2  N   UNL     1       1.020  -5.840  -7.802  0.00  0.00    +0.000 NA
ATOM      3  C   UNL     1      -0.729  -5.665  -6.193  0.00  0.00    +0.000 A 
ATOM      4  C   UNL     1      -0.289  -5.863  -7.484  0.00  0.00    +0.000 A 
ATOM      5  C   UNL     1       1.434  -5.413  -5.494  0.00  0.00    +0.000 A 
ATOM      6  C   UNL     1       1.874  -5.612  -6.785  0.00  0.00    +0.000 A 
ATOM      7  H   UNL     1      -1.781  -5.683  -5.938  0.00  0.00    +0.000 HD
ATOM      8  H   UNL     1      -0.976  -6.047  -8.301  0.00  0.00    +0.000 HD
ATOM      9  H   UNL     1       2.120  -5.230  -4.677  0.00  0.00    +0.000 HD
ATOM     10  H   UNL     1       2.925  -5.593  -7.041  0.00  0.00    +0.000 HD
ENDROOT
TORSDOF 0
ENDMDL
MODEL 2
REMARK VINA RESULT:    -3.144      1.669      2.235
REMARK INTER + INTRA:          -3.144
REMARK INTER:                  -3.144
REMARK INTRA:                   0.000
REMARK UNBOUND:                 0.000
REMARK  Name = 9261
REMARK  0 active torsions:
REMARK  status: ('A' for Active; 'I' for Inactive)
REMARK                            x       y       z     vdW  Elec       q    Type
REMARK                         _______ _______ _______ _____ _____    ______ ____
ROOT
ATOM      1  N   UNL     1      -1.752  -4.417  -5.686  0.00  0.00    +0.000 NA
ATOM      2  N   UNL     1       0.889  -5.110  -6.324  0.00  0.00    +0.000 NA
ATOM      3  C   UNL     1      -1.039  -5.279  -4.934  0.00  0.00    +0.000 A 
ATOM      4  C   UNL     1       0.258  -5.620  -5.248  0.00  0.00    +0.000 A 
ATOM      5  C   UNL     1      -1.121  -3.907  -6.762  0.00  0.00    +0.000 A 
ATOM      6  C   UNL     1       0.176  -4.248  -7.076  0.00  0.00    +0.000 A 
ATOM      7  H   UNL     1      -1.546  -5.689  -4.070  0.00  0.00    +0.000 HD
ATOM      8  H   UNL     1       0.830  -6.313  -4.644  0.00  0.00    +0.000 HD
ATOM      9  H   UNL     1      -1.693  -3.214  -7.366  0.00  0.00    +0.000 HD
ATOM     10  H   UNL     1       0.683  -3.838  -7.940  0.00  0.00    +0.000 HD
ENDROOT
TORSDOF 0
ENDMDL
MODEL 3
REMARK VINA RESULT:    -3.066      4.949      5.898
REMARK INTER + INTRA:          -3.066
REMARK INTER:                  -3.066
REMARK INTRA:                   0.000
REMARK UNBOUND:                 0.000
REMARK  Name = 9261
REMARK  0 active torsions:
REMARK  status: ('A' for Active; 'I' for Inactive)
REMARK                            x       y       z     vdW  Elec       q    Type
REMARK                         _______ _______ _______ _____ _____    ______ ____
ROOT
ATOM      1  N   UNL     1       4.295  -5.875  -9.992  0.00  0.00    +0.000 NA
ATOM      2  N   UNL     1       6.155  -7.749  -9.048  0.00  0.00    +0.000 NA
ATOM      3  C   UNL     1       3.917  -6.971  -9.304  0.00  0.00    +0.000 A 
ATOM      4  C   UNL     1       4.831  -7.892  -8.840  0.00  0.00    +0.000 A 
ATOM      5  C   UNL     1       5.618  -5.732 -10.199  0.00  0.00    +0.000 A 
ATOM      6  C   UNL     1       6.532  -6.653  -9.735  0.00  0.00    +0.000 A 
ATOM      7  H   UNL     1       2.853  -7.086  -9.138  0.00  0.00    +0.000 HD
ATOM      8  H   UNL     1       4.527  -8.772  -8.288  0.00  0.00    +0.000 HD
ATOM      9  H   UNL     1       5.923  -4.852 -10.752  0.00  0.00    +0.000 HD
ATOM     10  H   UNL     1       7.596  -6.539  -9.902  0.00  0.00    +0.000 HD
ENDROOT
TORSDOF 0
ENDMDL
MODEL 4
REMARK VINA RESULT:    -2.963     16.574     17.299
REMARK INTER + INTRA:          -2.963
REMARK INTER:                  -2.963
REMARK INTRA:                   0.000
REMARK UNBOUND:                 0.000
REMARK  Name = 9261
REMARK  0 active torsions:
REMARK  status: ('A' for Active; 'I' for Inactive)
REMARK                            x       y       z     vdW  Elec       q    Type
REMARK                         _______ _______ _______ _____ _____    ______ ____
ROOT
ATOM      1  N   UNL     1       1.012   1.916 -22.629  0.00  0.00    +0.000 NA
ATOM      2  N   UNL     1      -0.913   2.770 -20.777  0.00  0.00    +0.000 NA
ATOM      3  C   UNL     1      -0.309   1.778 -22.858  0.00  0.00    +0.000 A 
ATOM      4  C   UNL     1      -1.255   2.197 -21.948  0.00  0.00    +0.000 A 
ATOM      5  C   UNL     1       1.353   2.489 -21.458  0.00  0.00    +0.000 A 
ATOM      6  C   UNL     1       0.407   2.909 -20.548  0.00  0.00    +0.000 A 
ATOM      7  H   UNL     1      -0.584   1.318 -23.799  0.00  0.00    +0.000 HD
ATOM      8  H   UNL     1      -2.316   2.086 -22.133  0.00  0.00    +0.000 HD
ATOM      9  H   UNL     1       2.415   2.601 -21.273  0.00  0.00    +0.000 HD
ATOM     10  H   UNL     1       0.682   3.369 -19.607  0.00  0.00    +0.000 HD
ENDROOT
TORSDOF 0
ENDMDL
MODEL 5
REMARK VINA RESULT:    -2.892     17.219     18.071
REMARK INTER + INTRA:          -2.892
REMARK INTER:                  -2.892
REMARK INTRA:                   0.000
REMARK UNBOUND:                 0.000
REMARK  Name = 9261
REMARK  0 active torsions:
REMARK  status: ('A' for Active; 'I' for Inactive)
REMARK                            x       y       z     vdW  Elec       q    Type
REMARK                         _______ _______ _______ _____ _____    ______ ____
ROOT
ATOM      1  N   UNL     1      -0.492   3.604 -21.307  0.00  0.00    +0.000 NA
ATOM      2  N   UNL     1      -0.280   1.903 -23.526  0.00  0.00    +0.000 NA
ATOM      3  C   UNL     1      -0.672   4.049 -22.567  0.00  0.00    +0.000 A 
ATOM      4  C   UNL     1      -0.568   3.213 -23.657  0.00  0.00    +0.000 A 
ATOM      5  C   UNL     1      -0.204   2.294 -21.177  0.00  0.00    +0.000 A 
ATOM      6  C   UNL     1      -0.100   1.458 -22.267  0.00  0.00    +0.000 A 
ATOM      7  H   UNL     1      -0.904   5.101 -22.672  0.00  0.00    +0.000 HD
ATOM      8  H   UNL     1      -0.713   3.571 -24.669  0.00  0.00    +0.000 HD
ATOM      9  H   UNL     1      -0.059   1.936 -20.165  0.00  0.00    +0.000 HD
ATOM     10  H   UNL     1       0.132   0.406 -22.162  0.00  0.00    +0.000 HD
ENDROOT
TORSDOF 0
ENDMDL
MODEL 6
REMARK VINA RESULT:    -2.853     16.517     17.294
REMARK INTER + INTRA:          -2.853
REMARK INTER:                  -2.853
REMARK INTRA:                   0.000
REMARK UNBOUND:                 0.000
REMARK  Name = 9261
REMARK  0 active torsions:
REMARK  status: ('A' for Active; 'I' for Inactive)
REMARK                            x       y       z     vdW  Elec       q    Type
REMARK                         _______ _______ _______ _____ _____    ______ ____
ROOT
ATOM      1  N   UNL     1       0.804   4.539 -19.644  0.00  0.00    +0.000 NA
ATOM      2  N   UNL     1      -0.758   3.594 -21.772  0.00  0.00    +0.000 NA
ATOM      3  C   UNL     1       0.226   3.321 -19.619  0.00  0.00    +0.000 A 
ATOM      4  C   UNL     1      -0.542   2.857 -20.665  0.00  0.00    +0.000 A 
ATOM      5  C   UNL     1       0.587   5.275 -20.752  0.00  0.00    +0.000 A 
ATOM      6  C   UNL     1      -0.181   4.811 -21.798  0.00  0.00    +0.000 A 
ATOM      7  H   UNL     1       0.400   2.730 -18.730  0.00  0.00    +0.000 HD
ATOM      8  H   UNL     1      -1.006   1.879 -20.644  0.00  0.00    +0.000 HD
ATOM      9  H   UNL     1       1.051   6.254 -20.773  0.00  0.00    +0.000 HD
ATOM     10  H   UNL     1      -0.355   5.403 -22.687  0.00  0.00    +0.000 HD
ENDROOT
TORSDOF 0
ENDMDL
MODEL 7
REMARK VINA RESULT:    -2.774     16.631     17.392
REMARK INTER + INTRA:          -2.774
REMARK INTER:                  -2.774
REMARK INTRA:                   0.000
REMARK UNBOUND:                 0.000
REMARK  Name = 9261
REMARK  0 active torsions:
REMARK  status: ('A' for Active; 'I' for Inactive)
REMARK                            x       y       z     vdW  Elec       q    Type
REMARK                         _______ _______ _______ _____ _____    ______ ____
ROOT
ATOM      1  N   UNL     1      -0.324   2.907 -20.376  0.00  0.00    +0.000 NA
ATOM      2  N   UNL     1       0.399   5.515 -21.109  0.00  0.00    +0.000 NA
ATOM      3  C   UNL     1      -0.711   3.452 -21.546  0.00  0.00    +0.000 A 
ATOM      4  C   UNL     1      -0.355   4.734 -21.907  0.00  0.00    +0.000 A 
ATOM      5  C   UNL     1       0.430   3.689 -19.578  0.00  0.00    +0.000 A 
ATOM      6  C   UNL     1       0.785   4.970 -19.939  0.00  0.00    +0.000 A 
ATOM      7  H   UNL     1      -1.316   2.824 -22.187  0.00  0.00    +0.000 HD
ATOM      8  H   UNL     1      -0.666   5.171 -22.848  0.00  0.00    +0.000 HD
ATOM      9  H   UNL     1       0.741   3.252 -18.638  0.00  0.00    +0.000 HD
ATOM     10  H   UNL     1       1.391   5.598 -19.298  0.00  0.00    +0.000 HD
ENDROOT
TORSDOF 0
ENDMDL
MODEL 8
REMARK VINA RESULT:    -2.665     33.594     34.438
REMARK INTER + INTRA:          -2.665
REMARK INTER:                  -2.665
REMARK INTRA:                   0.000
REMARK UNBOUND:                 0.000
REMARK  Name = 9261
REMARK  0 active torsions:
REMARK  status: ('A' for Active; 'I' for Inactive)
REMARK                            x       y       z     vdW  Elec       q    Type
REMARK                         _______ _______ _______ _____ _____    ______ ____
ROOT
ATOM      1  N   UNL     1      -3.663   3.822  26.588  0.00  0.00    +0.000 NA
ATOM      2  N   UNL     1      -5.960   4.870  25.367  0.00  0.00    +0.000 NA
ATOM      3  C   UNL     1      -4.798   4.048  27.279  0.00  0.00    +0.000 A 
ATOM      4  C   UNL     1      -5.927   4.563  26.679  0.00  0.00    +0.000 A 
ATOM      5  C   UNL     1      -3.696   4.129  25.277  0.00  0.00    +0.000 A 
ATOM      6  C   UNL     1      -4.825   4.644  24.677  0.00  0.00    +0.000 A 
ATOM      7  H   UNL     1      -4.771   3.801  28.333  0.00  0.00    +0.000 HD
ATOM      8  H   UNL     1      -6.838   4.744  27.235  0.00  0.00    +0.000 HD
ATOM      9  H   UNL     1      -2.784   3.948  24.721  0.00  0.00    +0.000 HD
ATOM     10  H   UNL     1      -4.851   4.890  23.623  0.00  0.00    +0.000 HD
ENDROOT
TORSDOF 0
ENDMDL
MODEL 9
REMARK VINA RESULT:    -2.580     26.691     27.238
REMARK INTER + INTRA:          -2.580
REMARK INTER:                  -2.580
REMARK INTRA:                   0.000
REMARK UNBOUND:                 0.000
REMARK  Name = 9261
REMARK  0 active torsions:
REMARK  status: ('A' for Active; 'I' for Inactive)
REMARK                            x       y       z     vdW  Elec       q    Type
REMARK                         _______ _______ _______ _____ _____    ______ ____
ROOT
ATOM      1  N   UNL     1      13.232  18.950 -12.141  0.00  0.00    +0.000 NA
ATOM      2  N   UNL     1      13.854  16.218 -12.245  0.00  0.00    +0.000 NA
ATOM      3  C   UNL     1      12.355  18.003 -11.753  0.00  0.00    +0.000 A 
ATOM      4  C   UNL     1      12.661  16.661 -11.804  0.00  0.00    +0.000 A 
ATOM      5  C   UNL     1      14.426  18.507 -12.582  0.00  0.00    +0.000 A 
ATOM      6  C   UNL     1      14.732  17.164 -12.633  0.00  0.00    +0.000 A 
ATOM      7  H   UNL     1      11.396  18.359 -11.399  0.00  0.00    +0.000 HD
ATOM      8  H   UNL     1      11.955  15.900 -11.492  0.00  0.00    +0.000 HD
ATOM      9  H   UNL     1      15.131  19.267 -12.894  0.00  0.00    +0.000 HD
ATOM     10  H   UNL     1      15.691  16.809 -12.987  0.00  0.00    +0.000 HD
ENDROOT
TORSDOF 0
ENDMDL
MODEL 10
REMARK VINA RESULT:    -2.443     16.869     17.831
REMARK INTER + INTRA:          -2.443
REMARK INTER:                  -2.443
REMARK INTRA:                   0.000
REMARK UNBOUND:                 0.000
REMARK  Name = 9261
REMARK  0 active torsions:
REMARK  status: ('A' for Active; 'I' for Inactive)
REMARK                            x       y       z     vdW  Elec       q    Type
REMARK                         _______ _______ _______ _____ _____    ______ ____
ROOT
ATOM      1  N   UNL     1      18.969  -4.959  -3.791  0.00  0.00    +0.000 NA
ATOM      2  N   UNL     1      16.723  -4.411  -2.204  0.00  0.00    +0.000 NA
ATOM      3  C   UNL     1      18.970  -3.977  -2.868  0.00  0.00    +0.000 A 
ATOM      4  C   UNL     1      17.866  -3.707  -2.088  0.00  0.00    +0.000 A 
ATOM      5  C   UNL     1      17.825  -5.662  -3.907  0.00  0.00    +0.000 A 
ATOM      6  C   UNL     1      16.721  -5.393  -3.127  0.00  0.00    +0.000 A 
ATOM      7  H   UNL     1      19.888  -3.411  -2.775  0.00  0.00    +0.000 HD
ATOM      8  H   UNL     1      17.868  -2.918  -1.347  0.00  0.00    +0.000 HD
ATOM      9  H   UNL     1      17.824  -6.452  -4.648  0.00  0.00    +0.000 HD
ATOM     10  H   UNL     1      15.803  -5.958  -3.220  0.00  0.00    +0.000 HD
ENDROOT
TORSDOF 0
ENDMDL
