MODEL 1
REMARK VINA RESULT:    -4.119      0.000      0.000
REMARK INTER + INTRA:          -4.119
REMARK INTER:                  -4.119
REMARK INTRA:                   0.000
REMARK UNBOUND:                 0.000
REMARK  Name = 1049
REMARK  0 active torsions:
REMARK  status: ('A' for Active; 'I' for Inactive)
REMARK                            x       y       z     vdW  Elec       q    Type
REMARK                         _______ _______ _______ _____ _____    ______ ____
ROOT
ATOM      1  N   UNL     1       3.940  -7.112  -9.509  0.00  0.00    +0.000 NA
ATOM      2  C   UNL     1       6.552  -6.113  -9.496  0.00  0.00    +0.000 A 
ATOM      3  C   UNL     1       6.234  -7.246  -8.754  0.00  0.00    +0.000 A 
ATOM      4  C   UNL     1       5.566  -5.480 -10.244  0.00  0.00    +0.000 A 
ATOM      5  C   UNL     1       4.925  -7.701  -8.794  0.00  0.00    +0.000 A 
ATOM      6  C   UNL     1       4.287  -6.013 -10.218  0.00  0.00    +0.000 A 
ATOM      7  H   UNL     1       7.566  -5.726  -9.491  0.00  0.00    +0.000 HD
ATOM      8  H   UNL     1       6.985  -7.756  -8.163  0.00  0.00    +0.000 HD
ATOM      9  H   UNL     1       5.791  -4.596 -10.830  0.00  0.00    +0.000 HD
ATOM     10  H   UNL     1       4.625  -8.579  -8.234  0.00  0.00    +0.000 HD
ATOM     11  H   UNL     1       3.484  -5.556 -10.785  0.00  0.00    +0.000 HD
ENDROOT
TORSDOF 0
ENDMDL
MODEL 2
REMARK VINA RESULT:    -3.947      5.323      5.893
REMARK INTER + INTRA:          -3.947
REMARK INTER:                  -3.947
REMARK INTRA:                   0.000
REMARK UNBOUND:                 0.000
REMARK  Name = 1049
REMARK  0 active torsions:
REMARK  status: ('A' for Active; 'I' for Inactive)
REMARK                            x       y       z     vdW  Elec       q    Type
REMARK                         _______ _______ _______ _____ _____    ______ ____
ROOT
ATOM      1  N   UNL     1       0.113  -5.440  -5.140  0.00  0.00    +0.000 NA
ATOM      2  C   UNL     1       1.030  -5.901  -7.742  0.00  0.00    +0.000 A 
ATOM      3  C   UNL     1       1.936  -5.654  -6.716  0.00  0.00    +0.000 A 
ATOM      4  C   UNL     1      -0.333  -5.917  -7.468  0.00  0.00    +0.000 A 
ATOM      5  C   UNL     1       1.431  -5.432  -5.444  0.00  0.00    +0.000 A 
ATOM      6  C   UNL     1      -0.737  -5.684  -6.163  0.00  0.00    +0.000 A 
ATOM      7  H   UNL     1       1.385  -6.079  -8.752  0.00  0.00    +0.000 HD
ATOM      8  H   UNL     1       3.002  -5.636  -6.906  0.00  0.00    +0.000 HD
ATOM      9  H   UNL     1      -1.058  -6.108  -8.252  0.00  0.00    +0.000 HD
ATOM     10  H   UNL     1       2.095  -5.235  -4.610  0.00  0.00    +0.000 HD
ATOM     11  H   UNL     1      -1.789  -5.686  -5.899  0.00  0.00    +0.000 HD
ENDROOT
TORSDOF 0
ENDMDL
MODEL 3
REMARK VINA RESULT:    -3.770      1.164      2.285
REMARK INTER + INTRA:          -3.770
REMARK INTER:                  -3.770
REMARK INTRA:                   0.000
REMARK UNBOUND:                 0.000
REMARK  Name = 1049
REMARK  0 active torsions:
REMARK  status: ('A' for Active; 'I' for Inactive)
REMARK                            x       y       z     vdW  Elec       q    Type
REMARK                         _______ _______ _______ _____ _____    ______ ____
ROOT
ATOM      1  N   UNL     1       6.151  -7.823  -9.001  0.00  0.00    +0.000 NA
ATOM      2  C   UNL     1       4.393  -5.878  -9.975  0.00  0.00    +0.000 A 
ATOM      3  C   UNL     1       5.765  -5.733 -10.155  0.00  0.00    +0.000 A 
ATOM      4  C   UNL     1       3.900  -6.994  -9.309  0.00  0.00    +0.000 A 
ATOM      5  C   UNL     1       6.594  -6.724  -9.653  0.00  0.00    +0.000 A 
ATOM      6  C   UNL     1       4.812  -7.930  -8.845  0.00  0.00    +0.000 A 
ATOM      7  H   UNL     1       3.711  -5.123 -10.353  0.00  0.00    +0.000 HD
ATOM      8  H   UNL     1       6.172  -4.871 -10.671  0.00  0.00    +0.000 HD
ATOM      9  H   UNL     1       2.835  -7.129  -9.157  0.00  0.00    +0.000 HD
ATOM     10  H   UNL     1       7.670  -6.658  -9.767  0.00  0.00    +0.000 HD
ATOM     11  H   UNL     1       4.477  -8.817  -8.319  0.00  0.00    +0.000 HD
ENDROOT
TORSDOF 0
ENDMDL
MODEL 4
REMARK VINA RESULT:    -3.355     12.949     13.784
REMARK INTER + INTRA:          -3.355
REMARK INTER:                  -3.355
REMARK INTRA:                   0.000
REMARK UNBOUND:                 0.000
REMARK  Name = 1049
REMARK  0 active torsions:
REMARK  status: ('A' for Active; 'I' for Inactive)
REMARK                            x       y       z     vdW  Elec       q    Type
REMARK                         _______ _______ _______ _____ _____    ______ ____
ROOT
ATOM      1  N   UNL     1      16.962  -4.495  -0.872  0.00  0.00    +0.000 NA
ATOM      2  C   UNL     1      15.373  -6.303  -2.294  0.00  0.00    +0.000 A 
ATOM      3  C   UNL     1      16.058  -5.297  -2.966  0.00  0.00    +0.000 A 
ATOM      4  C   UNL     1      15.482  -6.407  -0.912  0.00  0.00    +0.000 A 
ATOM      5  C   UNL     1      16.832  -4.426  -2.216  0.00  0.00    +0.000 A 
ATOM      6  C   UNL     1      16.282  -5.487  -0.253  0.00  0.00    +0.000 A 
ATOM      7  H   UNL     1      14.756  -7.006  -2.846  0.00  0.00    +0.000 HD
ATOM      8  H   UNL     1      15.988  -5.197  -4.043  0.00  0.00    +0.000 HD
ATOM      9  H   UNL     1      14.957  -7.183  -0.367  0.00  0.00    +0.000 HD
ATOM     10  H   UNL     1      17.386  -3.625  -2.692  0.00  0.00    +0.000 HD
ATOM     11  H   UNL     1      16.399  -5.525   0.825  0.00  0.00    +0.000 HD
ENDROOT
TORSDOF 0
ENDMDL
MODEL 5
REMARK VINA RESULT:    -3.325     20.061     21.193
REMARK INTER + INTRA:          -3.325
REMARK INTER:                  -3.325
REMARK INTRA:                   0.000
REMARK UNBOUND:                 0.000
REMARK  Name = 1049
REMARK  0 active torsions:
REMARK  status: ('A' for Active; 'I' for Inactive)
REMARK                            x       y       z     vdW  Elec       q    Type
REMARK                         _______ _______ _______ _____ _____    ______ ____
ROOT
ATOM      1  N   UNL     1      -7.706 -15.209   4.053  0.00  0.00    +0.000 NA
ATOM      2  C   UNL     1      -7.900 -13.441   6.210  0.00  0.00    +0.000 A 
ATOM      3  C   UNL     1      -7.543 -12.970   4.951  0.00  0.00    +0.000 A 
ATOM      4  C   UNL     1      -8.159 -14.794   6.391  0.00  0.00    +0.000 A 
ATOM      5  C   UNL     1      -7.461 -13.886   3.915  0.00  0.00    +0.000 A 
ATOM      6  C   UNL     1      -8.049 -15.630   5.291  0.00  0.00    +0.000 A 
ATOM      7  H   UNL     1      -7.975 -12.754   7.048  0.00  0.00    +0.000 HD
ATOM      8  H   UNL     1      -7.336 -11.919   4.786  0.00  0.00    +0.000 HD
ATOM      9  H   UNL     1      -8.439 -15.185   7.364  0.00  0.00    +0.000 HD
ATOM     10  H   UNL     1      -7.187 -13.570   2.914  0.00  0.00    +0.000 HD
ATOM     11  H   UNL     1      -8.242 -16.694   5.381  0.00  0.00    +0.000 HD
ENDROOT
TORSDOF 0
ENDMDL
MODEL 6
REMARK VINA RESULT:    -3.220     13.388     14.213
REMARK INTER + INTRA:          -3.220
REMARK INTER:                  -3.220
REMARK INTRA:                   0.000
REMARK UNBOUND:                 0.000
REMARK  Name = 1049
REMARK  0 active torsions:
REMARK  status: ('A' for Active; 'I' for Inactive)
REMARK                            x       y       z     vdW  Elec       q    Type
REMARK                         _______ _______ _______ _____ _____    ______ ____
ROOT
ATOM      1  N   UNL     1      17.762  -3.840  -2.291  0.00  0.00    +0.000 NA
ATOM      2  C   UNL     1      17.541  -6.138  -3.868  0.00  0.00    +0.000 A 
ATOM      3  C   UNL     1      16.476  -5.735  -3.069  0.00  0.00    +0.000 A 
ATOM      4  C   UNL     1      18.715  -5.394  -3.879  0.00  0.00    +0.000 A 
ATOM      5  C   UNL     1      16.636  -4.589  -2.306  0.00  0.00    +0.000 A 
ATOM      6  C   UNL     1      18.775  -4.263  -3.081  0.00  0.00    +0.000 A 
ATOM      7  H   UNL     1      17.455  -7.031  -4.480  0.00  0.00    +0.000 HD
ATOM      8  H   UNL     1      15.551  -6.299  -3.044  0.00  0.00    +0.000 HD
ATOM      9  H   UNL     1      19.558  -5.690  -4.494  0.00  0.00    +0.000 HD
ATOM     10  H   UNL     1      15.836  -4.232  -1.667  0.00  0.00    +0.000 HD
ATOM     11  H   UNL     1      19.668  -3.649  -3.054  0.00  0.00    +0.000 HD
ENDROOT
TORSDOF 0
ENDMDL
MODEL 7
REMARK VINA RESULT:    -3.179     19.734     20.809
REMARK INTER + INTRA:          -3.179
REMARK INTER:                  -3.179
REMARK INTRA:                   0.000
REMARK UNBOUND:                 0.000
REMARK  Name = 1049
REMARK  0 active torsions:
REMARK  status: ('A' for Active; 'I' for Inactive)
REMARK                            x       y       z     vdW  Elec       q    Type
REMARK                         _______ _______ _______ _____ _____    ______ ____
ROOT
ATOM      1  N   UNL     1      -6.144 -15.075   5.111  0.00  0.00    +0.000 NA
ATOM      2  C   UNL     1      -8.159 -13.178   5.508  0.00  0.00    +0.000 A 
ATOM      3  C   UNL     1      -8.163 -14.363   6.235  0.00  0.00    +0.000 A 
ATOM      4  C   UNL     1      -7.148 -12.940   4.583  0.00  0.00    +0.000 A 
ATOM      5  C   UNL     1      -7.143 -15.271   6.001  0.00  0.00    +0.000 A 
ATOM      6  C   UNL     1      -6.172 -13.911   4.423  0.00  0.00    +0.000 A 
ATOM      7  H   UNL     1      -8.941 -12.441   5.662  0.00  0.00    +0.000 HD
ATOM      8  H   UNL     1      -8.941 -14.570   6.961  0.00  0.00    +0.000 HD
ATOM      9  H   UNL     1      -7.124 -12.023   4.005  0.00  0.00    +0.000 HD
ATOM     10  H   UNL     1      -7.100 -16.210   6.542  0.00  0.00    +0.000 HD
ATOM     11  H   UNL     1      -5.363 -13.773   3.715  0.00  0.00    +0.000 HD
ENDROOT
TORSDOF 0
ENDMDL
MODEL 8
REMARK VINA RESULT:    -3.094     15.395     16.352
REMARK INTER + INTRA:          -3.094
REMARK INTER:                  -3.094
REMARK INTRA:                   0.000
REMARK UNBOUND:                 0.000
REMARK  Name = 1049
REMARK  0 active torsions:
REMARK  status: ('A' for Active; 'I' for Inactive)
REMARK                            x       y       z     vdW  Elec       q    Type
REMARK                         _______ _______ _______ _____ _____    ______ ____
ROOT
ATOM      1  N   UNL     1      -0.720   3.560 -21.695  0.00  0.00    +0.000 NA
ATOM      2  C   UNL     1       0.811   4.664 -19.633  0.00  0.00    +0.000 A 
ATOM      3  C   UNL     1       0.299   3.376 -19.510  0.00  0.00    +0.000 A 
ATOM      4  C   UNL     1       0.559   5.399 -20.785  0.00  0.00    +0.000 A 
ATOM      5  C   UNL     1      -0.454   2.875 -20.560  0.00  0.00    +0.000 A 
ATOM      6  C   UNL     1      -0.205   4.808 -21.779  0.00  0.00    +0.000 A 
ATOM      7  H   UNL     1       1.406   5.092 -18.831  0.00  0.00    +0.000 HD
ATOM      8  H   UNL     1       0.483   2.785 -18.621  0.00  0.00    +0.000 HD
ATOM      9  H   UNL     1       0.948   6.404 -20.903  0.00  0.00    +0.000 HD
ATOM     10  H   UNL     1      -0.876   1.877 -20.514  0.00  0.00    +0.000 HD
ATOM     11  H   UNL     1      -0.430   5.340 -22.696  0.00  0.00    +0.000 HD
ENDROOT
TORSDOF 0
ENDMDL
MODEL 9
REMARK VINA RESULT:    -3.093     15.564     16.094
REMARK INTER + INTRA:          -3.093
REMARK INTER:                  -3.093
REMARK INTRA:                   0.000
REMARK UNBOUND:                 0.000
REMARK  Name = 1049
REMARK  0 active torsions:
REMARK  status: ('A' for Active; 'I' for Inactive)
REMARK                            x       y       z     vdW  Elec       q    Type
REMARK                         _______ _______ _______ _____ _____    ______ ____
ROOT
ATOM      1  N   UNL     1       1.072   1.886 -22.630  0.00  0.00    +0.000 NA
ATOM      2  C   UNL     1      -0.723   2.876 -20.728  0.00  0.00    +0.000 A 
ATOM      3  C   UNL     1       0.647   3.031 -20.542  0.00  0.00    +0.000 A 
ATOM      4  C   UNL     1      -1.196   2.228 -21.863  0.00  0.00    +0.000 A 
ATOM      5  C   UNL     1       1.495   2.522 -21.514  0.00  0.00    +0.000 A 
ATOM      6  C   UNL     1      -0.266   1.756 -22.776  0.00  0.00    +0.000 A 
ATOM      7  H   UNL     1      -1.420   3.261 -19.989  0.00  0.00    +0.000 HD
ATOM      8  H   UNL     1       1.039   3.532 -19.665  0.00  0.00    +0.000 HD
ATOM      9  H   UNL     1      -2.259   2.097 -22.029  0.00  0.00    +0.000 HD
ATOM     10  H   UNL     1       2.570   2.616 -21.417  0.00  0.00    +0.000 HD
ATOM     11  H   UNL     1      -0.585   1.243 -23.677  0.00  0.00    +0.000 HD
ENDROOT
TORSDOF 0
ENDMDL
MODEL 10
REMARK VINA RESULT:    -2.974     18.802     19.590
REMARK INTER + INTRA:          -2.974
REMARK INTER:                  -2.974
REMARK INTRA:                   0.000
REMARK UNBOUND:                 0.000
REMARK  Name = 1049
REMARK  0 active torsions:
REMARK  status: ('A' for Active; 'I' for Inactive)
REMARK                            x       y       z     vdW  Elec       q    Type
REMARK                         _______ _______ _______ _____ _____    ______ ____
ROOT
ATOM      1  N   UNL     1     -15.108  -5.311  -5.211  0.00  0.00    +0.000 NA
ATOM      2  C   UNL     1     -12.378  -5.299  -4.607  0.00  0.00    +0.000 A 
ATOM      3  C   UNL     1     -13.261  -6.045  -3.833  0.00  0.00    +0.000 A 
ATOM      4  C   UNL     1     -12.858  -4.560  -5.682  0.00  0.00    +0.000 A 
ATOM      5  C   UNL     1     -14.604  -6.017  -4.174  0.00  0.00    +0.000 A 
ATOM      6  C   UNL     1     -14.219  -4.599  -5.940  0.00  0.00    +0.000 A 
ATOM      7  H   UNL     1     -11.318  -5.295  -4.372  0.00  0.00    +0.000 HD
ATOM      8  H   UNL     1     -12.909  -6.628  -2.990  0.00  0.00    +0.000 HD
ATOM      9  H   UNL     1     -12.188  -3.972  -6.299  0.00  0.00    +0.000 HD
ATOM     10  H   UNL     1     -15.333  -6.581  -3.603  0.00  0.00    +0.000 HD
ATOM     11  H   UNL     1     -14.643  -4.040  -6.767  0.00  0.00    +0.000 HD
ENDROOT
TORSDOF 0
ENDMDL
