MODEL 1
REMARK VINA RESULT:    -5.460      0.000      0.000
REMARK INTER + INTRA:          -6.338
REMARK INTER:                  -6.106
REMARK INTRA:                  -0.232
REMARK UNBOUND:                -0.240
REMARK  Name = 5144
REMARK  2 active torsions:
REMARK  status: ('A' for Active; 'I' for Inactive)
REMARK    1  A    between atoms: C_3  and  C_7
REMARK    2  A    between atoms: C_7  and  C_11
REMARK                            x       y       z     vdW  Elec       q    Type
REMARK                         _______ _______ _______ _____ _____    ______ ____
ROOT
ATOM      1  O   UNL     1      20.682  -4.250  -2.724  0.00  0.00    +0.000 OA
ATOM      2  O   UNL     1      20.985  -5.861  -4.490  0.00  0.00    +0.000 OA
ATOM      3  C   UNL     1      17.178  -5.280  -3.068  0.00  0.00    +0.000 A 
ATOM      4  C   UNL     1      19.512  -4.836  -3.094  0.00  0.00    +0.000 A 
ATOM      5  C   UNL     1      19.684  -5.758  -4.102  0.00  0.00    +0.000 A 
ATOM      6  C   UNL     1      18.268  -4.575  -2.555  0.00  0.00    +0.000 A 
ATOM      7  C   UNL     1      17.354  -6.221  -4.098  0.00  0.00    +0.000 A 
ATOM      8  C   UNL     1      18.623  -6.467  -4.627  0.00  0.00    +0.000 A 
ATOM      9  C   UNL     1      21.611  -4.904  -3.612  0.00  0.00    +0.000 C 
ATOM     10  H   UNL     1      18.150  -3.846  -1.761  0.00  0.00    +0.000 HD
ATOM     11  H   UNL     1      16.501  -6.767  -4.496  0.00  0.00    +0.000 HD
ATOM     12  H   UNL     1      18.763  -7.191  -5.422  0.00  0.00    +0.000 HD
ATOM     13  H   UNL     1      22.367  -5.422  -3.009  0.00  0.00    +0.000 HD
ATOM     14  H   UNL     1      22.109  -4.142  -4.223  0.00  0.00    +0.000 HD
ENDROOT
BRANCH   3  15
ATOM     15  C   UNL     1      15.812  -5.035  -2.520  0.00  0.00    +0.000 C 
ATOM     16  H   UNL     1      15.855  -4.256  -1.747  0.00  0.00    +0.000 HD
ATOM     17  H   UNL     1      15.170  -4.618  -3.307  0.00  0.00    +0.000 HD
BRANCH  15  18
ATOM     18  C   UNL     1      15.188  -6.267  -1.919  0.00  0.00    +0.000 C 
ATOM     19  C   UNL     1      15.484  -6.744  -0.704  0.00  0.00    +0.000 C 
ATOM     20  H   UNL     1      14.465  -6.808  -2.525  0.00  0.00    +0.000 HD
ATOM     21  H   UNL     1      15.004  -7.642  -0.334  0.00  0.00    +0.000 HD
ATOM     22  H   UNL     1      16.204  -6.249  -0.061  0.00  0.00    +0.000 HD
ENDBRANCH  15  18
ENDBRANCH   3  15
TORSDOF 2
ENDMDL
MODEL 2
REMARK VINA RESULT:    -5.303     24.741     26.906
REMARK INTER + INTRA:          -6.162
REMARK INTER:                  -5.968
REMARK INTRA:                  -0.195
REMARK UNBOUND:                -0.240
REMARK  Name = 5144
REMARK  2 active torsions:
REMARK  status: ('A' for Active; 'I' for Inactive)
REMARK    1  A    between atoms: C_3  and  C_7
REMARK    2  A    between atoms: C_7  and  C_11
REMARK                            x       y       z     vdW  Elec       q    Type
REMARK                         _______ _______ _______ _____ _____    ______ ____
ROOT
ATOM      1  O   UNL     1      -3.739 -15.150   3.226  0.00  0.00    +0.000 OA
ATOM      2  O   UNL     1      -4.619 -15.111   0.983  0.00  0.00    +0.000 OA
ATOM      3  C   UNL     1      -6.977 -13.602   3.985  0.00  0.00    +0.000 A 
ATOM      4  C   UNL     1      -4.985 -14.608   3.170  0.00  0.00    +0.000 A 
ATOM      5  C   UNL     1      -5.489 -14.587   1.889  0.00  0.00    +0.000 A 
ATOM      6  C   UNL     1      -5.707 -14.123   4.241  0.00  0.00    +0.000 A 
ATOM      7  C   UNL     1      -7.491 -13.579   2.676  0.00  0.00    +0.000 A 
ATOM      8  C   UNL     1      -6.740 -14.077   1.609  0.00  0.00    +0.000 A 
ATOM      9  C   UNL     1      -3.512 -15.466   1.837  0.00  0.00    +0.000 C 
ATOM     10  H   UNL     1      -5.295 -14.147   5.244  0.00  0.00    +0.000 HD
ATOM     11  H   UNL     1      -8.480 -13.171   2.482  0.00  0.00    +0.000 HD
ATOM     12  H   UNL     1      -7.133 -14.061   0.599  0.00  0.00    +0.000 HD
ATOM     13  H   UNL     1      -3.332 -16.544   1.748  0.00  0.00    +0.000 HD
ATOM     14  H   UNL     1      -2.620 -14.929   1.495  0.00  0.00    +0.000 HD
ENDROOT
BRANCH   3  15
ATOM     15  C   UNL     1      -7.798 -13.063   5.109  0.00  0.00    +0.000 C 
ATOM     16  H   UNL     1      -7.364 -12.122   5.470  0.00  0.00    +0.000 HD
ATOM     17  H   UNL     1      -8.795 -12.793   4.738  0.00  0.00    +0.000 HD
BRANCH  15  18
ATOM     18  C   UNL     1      -7.901 -14.016   6.271  0.00  0.00    +0.000 C 
ATOM     19  C   UNL     1      -8.588 -15.165   6.243  0.00  0.00    +0.000 C 
ATOM     20  H   UNL     1      -7.397 -13.737   7.193  0.00  0.00    +0.000 HD
ATOM     21  H   UNL     1      -8.628 -15.802   7.119  0.00  0.00    +0.000 HD
ATOM     22  H   UNL     1      -9.115 -15.488   5.353  0.00  0.00    +0.000 HD
ENDBRANCH  15  18
ENDBRANCH   3  15
TORSDOF 2
ENDMDL
MODEL 3
REMARK VINA RESULT:    -5.300     27.574     29.013
REMARK INTER + INTRA:          -6.159
REMARK INTER:                  -6.009
REMARK INTRA:                  -0.150
REMARK UNBOUND:                -0.240
REMARK  Name = 5144
REMARK  2 active torsions:
REMARK  status: ('A' for Active; 'I' for Inactive)
REMARK    1  A    between atoms: C_3  and  C_7
REMARK    2  A    between atoms: C_7  and  C_11
REMARK                            x       y       z     vdW  Elec       q    Type
REMARK                         _______ _______ _______ _____ _____    ______ ____
ROOT
ATOM      1  O   UNL     1      -8.103 -17.001   5.326  0.00  0.00    +0.000 OA
ATOM      2  O   UNL     1      -8.582 -15.590   7.220  0.00  0.00    +0.000 OA
ATOM      3  C   UNL     1      -7.274 -13.781   3.775  0.00  0.00    +0.000 A 
ATOM      4  C   UNL     1      -7.884 -15.685   5.059  0.00  0.00    +0.000 A 
ATOM      5  C   UNL     1      -8.157 -14.879   6.140  0.00  0.00    +0.000 A 
ATOM      6  C   UNL     1      -7.439 -15.165   3.860  0.00  0.00    +0.000 A 
ATOM      7  C   UNL     1      -7.554 -12.958   4.880  0.00  0.00    +0.000 A 
ATOM      8  C   UNL     1      -8.002 -13.509   6.082  0.00  0.00    +0.000 A 
ATOM      9  C   UNL     1      -8.545 -16.934   6.697  0.00  0.00    +0.000 C 
ATOM     10  H   UNL     1      -7.229 -15.814   3.017  0.00  0.00    +0.000 HD
ATOM     11  H   UNL     1      -7.425 -11.880   4.809  0.00  0.00    +0.000 HD
ATOM     12  H   UNL     1      -8.220 -12.877   6.936  0.00  0.00    +0.000 HD
ATOM     13  H   UNL     1      -7.865 -17.532   7.315  0.00  0.00    +0.000 HD
ATOM     14  H   UNL     1      -9.552 -17.363   6.763  0.00  0.00    +0.000 HD
ENDROOT
BRANCH   3  15
ATOM     15  C   UNL     1      -6.796 -13.168   2.501  0.00  0.00    +0.000 C 
ATOM     16  H   UNL     1      -7.210 -12.156   2.396  0.00  0.00    +0.000 HD
ATOM     17  H   UNL     1      -5.709 -13.027   2.548  0.00  0.00    +0.000 HD
BRANCH  15  18
ATOM     18  C   UNL     1      -7.180 -13.968   1.283  0.00  0.00    +0.000 C 
ATOM     19  C   UNL     1      -7.128 -13.501   0.030  0.00  0.00    +0.000 C 
ATOM     20  H   UNL     1      -7.536 -14.982   1.444  0.00  0.00    +0.000 HD
ATOM     21  H   UNL     1      -7.426 -14.128  -0.802  0.00  0.00    +0.000 HD
ATOM     22  H   UNL     1      -6.787 -12.494  -0.186  0.00  0.00    +0.000 HD
ENDBRANCH  15  18
ENDBRANCH   3  15
TORSDOF 2
ENDMDL
MODEL 4
REMARK VINA RESULT:    -5.101      3.013      4.965
REMARK INTER + INTRA:          -5.937
REMARK INTER:                  -5.762
REMARK INTRA:                  -0.175
REMARK UNBOUND:                -0.240
REMARK  Name = 5144
REMARK  2 active torsions:
REMARK  status: ('A' for Active; 'I' for Inactive)
REMARK    1  A    between atoms: C_3  and  C_7
REMARK    2  A    between atoms: C_7  and  C_11
REMARK                            x       y       z     vdW  Elec       q    Type
REMARK                         _______ _______ _______ _____ _____    ______ ____
ROOT
ATOM      1  O   UNL     1      17.283  -4.929   1.383  0.00  0.00    +0.000 OA
ATOM      2  O   UNL     1      15.444  -6.461   1.663  0.00  0.00    +0.000 OA
ATOM      3  C   UNL     1      16.594  -5.540  -2.169  0.00  0.00    +0.000 A 
ATOM      4  C   UNL     1      16.783  -5.358   0.193  0.00  0.00    +0.000 A 
ATOM      5  C   UNL     1      15.732  -6.233   0.353  0.00  0.00    +0.000 A 
ATOM      6  C   UNL     1      17.237  -4.991  -1.057  0.00  0.00    +0.000 A 
ATOM      7  C   UNL     1      15.521  -6.434  -2.005  0.00  0.00    +0.000 A 
ATOM      8  C   UNL     1      15.080  -6.790  -0.729  0.00  0.00    +0.000 A 
ATOM      9  C   UNL     1      16.431  -5.632   2.310  0.00  0.00    +0.000 C 
ATOM     10  H   UNL     1      18.067  -4.301  -1.165  0.00  0.00    +0.000 HD
ATOM     11  H   UNL     1      15.024  -6.860  -2.874  0.00  0.00    +0.000 HD
ATOM     12  H   UNL     1      14.253  -7.479  -0.599  0.00  0.00    +0.000 HD
ATOM     13  H   UNL     1      15.913  -4.896   2.938  0.00  0.00    +0.000 HD
ATOM     14  H   UNL     1      17.055  -6.265   2.951  0.00  0.00    +0.000 HD
ENDROOT
BRANCH   3  15
ATOM     15  C   UNL     1      17.048  -5.176  -3.543  0.00  0.00    +0.000 C 
ATOM     16  H   UNL     1      16.178  -4.971  -4.180  0.00  0.00    +0.000 HD
ATOM     17  H   UNL     1      17.603  -4.230  -3.506  0.00  0.00    +0.000 HD
BRANCH  15  18
ATOM     18  C   UNL     1      17.874  -6.254  -4.195  0.00  0.00    +0.000 C 
ATOM     19  C   UNL     1      17.570  -6.829  -5.365  0.00  0.00    +0.000 C 
ATOM     20  H   UNL     1      18.761  -6.592  -3.666  0.00  0.00    +0.000 HD
ATOM     21  H   UNL     1      18.204  -7.607  -5.775  0.00  0.00    +0.000 HD
ATOM     22  H   UNL     1      16.693  -6.535  -5.930  0.00  0.00    +0.000 HD
ENDBRANCH  15  18
ENDBRANCH   3  15
TORSDOF 2
ENDMDL
MODEL 5
REMARK VINA RESULT:    -5.094     24.088     25.177
REMARK INTER + INTRA:          -5.929
REMARK INTER:                  -5.706
REMARK INTRA:                  -0.223
REMARK UNBOUND:                -0.240
REMARK  Name = 5144
REMARK  2 active torsions:
REMARK  status: ('A' for Active; 'I' for Inactive)
REMARK    1  A    between atoms: C_3  and  C_7
REMARK    2  A    between atoms: C_7  and  C_11
REMARK                            x       y       z     vdW  Elec       q    Type
REMARK                         _______ _______ _______ _____ _____    ______ ____
ROOT
ATOM      1  O   UNL     1       1.314   2.270 -20.734  0.00  0.00    +0.000 OA
ATOM      2  O   UNL     1       0.069   4.296 -20.348  0.00  0.00    +0.000 OA
ATOM      3  C   UNL     1       4.162   4.493 -20.094  0.00  0.00    +0.000 A 
ATOM      4  C   UNL     1       2.123   3.328 -20.457  0.00  0.00    +0.000 A 
ATOM      5  C   UNL     1       1.412   4.485 -20.235  0.00  0.00    +0.000 A 
ATOM      6  C   UNL     1       3.502   3.299 -20.393  0.00  0.00    +0.000 A 
ATOM      7  C   UNL     1       3.435   5.675 -19.868  0.00  0.00    +0.000 A 
ATOM      8  C   UNL     1       2.040   5.677 -19.939  0.00  0.00    +0.000 A 
ATOM      9  C   UNL     1       0.014   2.890 -20.664  0.00  0.00    +0.000 C 
ATOM     10  H   UNL     1       4.046   2.378 -20.571  0.00  0.00    +0.000 HD
ATOM     11  H   UNL     1       3.954   6.603 -19.637  0.00  0.00    +0.000 HD
ATOM     12  H   UNL     1       1.477   6.588 -19.766  0.00  0.00    +0.000 HD
ATOM     13  H   UNL     1      -0.576   2.380 -19.893  0.00  0.00    +0.000 HD
ATOM     14  H   UNL     1      -0.487   2.767 -21.631  0.00  0.00    +0.000 HD
ENDROOT
BRANCH   3  15
ATOM     15  C   UNL     1       5.651   4.515 -20.013  0.00  0.00    +0.000 C 
ATOM     16  H   UNL     1       6.042   3.490 -20.053  0.00  0.00    +0.000 HD
ATOM     17  H   UNL     1       6.059   5.010 -20.904  0.00  0.00    +0.000 HD
BRANCH  15  18
ATOM     18  C   UNL     1       6.163   5.171 -18.757  0.00  0.00    +0.000 C 
ATOM     19  C   UNL     1       6.421   4.517 -17.618  0.00  0.00    +0.000 C 
ATOM     20  H   UNL     1       6.313   6.248 -18.781  0.00  0.00    +0.000 HD
ATOM     21  H   UNL     1       6.780   5.052 -16.746  0.00  0.00    +0.000 HD
ATOM     22  H   UNL     1       6.281   3.445 -17.537  0.00  0.00    +0.000 HD
ENDBRANCH  15  18
ENDBRANCH   3  15
TORSDOF 2
ENDMDL
MODEL 6
REMARK VINA RESULT:    -5.071     22.972     24.000
REMARK INTER + INTRA:          -5.903
REMARK INTER:                  -5.757
REMARK INTRA:                  -0.146
REMARK UNBOUND:                -0.240
REMARK  Name = 5144
REMARK  2 active torsions:
REMARK  status: ('A' for Active; 'I' for Inactive)
REMARK    1  A    between atoms: C_3  and  C_7
REMARK    2  A    between atoms: C_7  and  C_11
REMARK                            x       y       z     vdW  Elec       q    Type
REMARK                         _______ _______ _______ _____ _____    ______ ____
ROOT
ATOM      1  O   UNL     1       3.201   4.292 -21.098  0.00  0.00    +0.000 OA
ATOM      2  O   UNL     1       2.409   6.391 -20.217  0.00  0.00    +0.000 OA
ATOM      3  C   UNL     1       5.825   4.803 -18.586  0.00  0.00    +0.000 A 
ATOM      4  C   UNL     1       3.996   4.767 -20.103  0.00  0.00    +0.000 A 
ATOM      5  C   UNL     1       3.544   5.966 -19.598  0.00  0.00    +0.000 A 
ATOM      6  C   UNL     1       5.136   4.159 -19.616  0.00  0.00    +0.000 A 
ATOM      7  C   UNL     1       5.363   6.027 -18.072  0.00  0.00    +0.000 A 
ATOM      8  C   UNL     1       4.207   6.622 -18.582  0.00  0.00    +0.000 A 
ATOM      9  C   UNL     1       2.196   5.325 -21.166  0.00  0.00    +0.000 C 
ATOM     10  H   UNL     1       5.478   3.215 -20.025  0.00  0.00    +0.000 HD
ATOM     11  H   UNL     1       5.904   6.526 -17.270  0.00  0.00    +0.000 HD
ATOM     12  H   UNL     1       3.848   7.566 -18.188  0.00  0.00    +0.000 HD
ATOM     13  H   UNL     1       1.216   4.874 -20.973  0.00  0.00    +0.000 HD
ATOM     14  H   UNL     1       2.197   5.751 -22.176  0.00  0.00    +0.000 HD
ENDROOT
BRANCH   3  15
ATOM     15  C   UNL     1       7.063   4.187 -18.025  0.00  0.00    +0.000 C 
ATOM     16  H   UNL     1       7.288   4.628 -17.045  0.00  0.00    +0.000 HD
ATOM     17  H   UNL     1       6.884   3.123 -17.824  0.00  0.00    +0.000 HD
BRANCH  15  18
ATOM     18  C   UNL     1       8.265   4.367 -18.915  0.00  0.00    +0.000 C 
ATOM     19  C   UNL     1       9.520   4.495 -18.467  0.00  0.00    +0.000 C 
ATOM     20  H   UNL     1       8.091   4.412 -19.987  0.00  0.00    +0.000 HD
ATOM     21  H   UNL     1      10.341   4.631 -19.162  0.00  0.00    +0.000 HD
ATOM     22  H   UNL     1       9.749   4.466 -17.407  0.00  0.00    +0.000 HD
ENDBRANCH  15  18
ENDBRANCH   3  15
TORSDOF 2
ENDMDL
MODEL 7
REMARK VINA RESULT:    -5.042      1.419      1.937
REMARK INTER + INTRA:          -5.871
REMARK INTER:                  -5.674
REMARK INTRA:                  -0.198
REMARK UNBOUND:                -0.240
REMARK  Name = 5144
REMARK  2 active torsions:
REMARK  status: ('A' for Active; 'I' for Inactive)
REMARK    1  A    between atoms: C_3  and  C_7
REMARK    2  A    between atoms: C_7  and  C_11
REMARK                            x       y       z     vdW  Elec       q    Type
REMARK                         _______ _______ _______ _____ _____    ______ ____
ROOT
ATOM      1  O   UNL     1      19.410  -2.694  -0.794  0.00  0.00    +0.000 OA
ATOM      2  O   UNL     1      20.945  -3.653  -2.385  0.00  0.00    +0.000 OA
ATOM      3  C   UNL     1      17.007  -4.793  -2.605  0.00  0.00    +0.000 A 
ATOM      4  C   UNL     1      18.797  -3.557  -1.647  0.00  0.00    +0.000 A 
ATOM      5  C   UNL     1      19.673  -4.106  -2.556  0.00  0.00    +0.000 A 
ATOM      6  C   UNL     1      17.455  -3.882  -1.646  0.00  0.00    +0.000 A 
ATOM      7  C   UNL     1      17.903  -5.352  -3.534  0.00  0.00    +0.000 A 
ATOM      8  C   UNL     1      19.256  -5.007  -3.514  0.00  0.00    +0.000 A 
ATOM      9  C   UNL     1      20.771  -2.759  -1.267  0.00  0.00    +0.000 C 
ATOM     10  H   UNL     1      16.779  -3.440  -0.923  0.00  0.00    +0.000 HD
ATOM     11  H   UNL     1      17.549  -6.060  -4.280  0.00  0.00    +0.000 HD
ATOM     12  H   UNL     1      19.949  -5.436  -4.229  0.00  0.00    +0.000 HD
ATOM     13  H   UNL     1      21.413  -3.097  -0.444  0.00  0.00    +0.000 HD
ATOM     14  H   UNL     1      21.087  -1.754  -1.570  0.00  0.00    +0.000 HD
ENDROOT
BRANCH   3  15
ATOM     15  C   UNL     1      15.566  -5.177  -2.647  0.00  0.00    +0.000 C 
ATOM     16  H   UNL     1      14.962  -4.410  -2.144  0.00  0.00    +0.000 HD
ATOM     17  H   UNL     1      15.217  -5.176  -3.688  0.00  0.00    +0.000 HD
BRANCH  15  18
ATOM     18  C   UNL     1      15.292  -6.505  -1.992  0.00  0.00    +0.000 C 
ATOM     19  C   UNL     1      15.396  -6.730  -0.677  0.00  0.00    +0.000 C 
ATOM     20  H   UNL     1      15.008  -7.332  -2.638  0.00  0.00    +0.000 HD
ATOM     21  H   UNL     1      15.191  -7.714  -0.270  0.00  0.00    +0.000 HD
ATOM     22  H   UNL     1      15.682  -5.943   0.012  0.00  0.00    +0.000 HD
ENDBRANCH  15  18
ENDBRANCH   3  15
TORSDOF 2
ENDMDL
MODEL 8
REMARK VINA RESULT:    -4.987     35.442     36.829
REMARK INTER + INTRA:          -5.809
REMARK INTER:                  -5.641
REMARK INTRA:                  -0.168
REMARK UNBOUND:                -0.240
REMARK  Name = 5144
REMARK  2 active torsions:
REMARK  status: ('A' for Active; 'I' for Inactive)
REMARK    1  A    between atoms: C_3  and  C_7
REMARK    2  A    between atoms: C_7  and  C_11
REMARK                            x       y       z     vdW  Elec       q    Type
REMARK                         _______ _______ _______ _____ _____    ______ ____
ROOT
ATOM      1  O   UNL     1      -0.494   7.546  23.200  0.00  0.00    +0.000 OA
ATOM      2  O   UNL     1       0.123   8.180  25.442  0.00  0.00    +0.000 OA
ATOM      3  C   UNL     1      -2.796   5.327  24.999  0.00  0.00    +0.000 A 
ATOM      4  C   UNL     1      -1.203   6.868  24.142  0.00  0.00    +0.000 A 
ATOM      5  C   UNL     1      -0.852   7.231  25.423  0.00  0.00    +0.000 A 
ATOM      6  C   UNL     1      -2.174   5.918  23.897  0.00  0.00    +0.000 A 
ATOM      7  C   UNL     1      -2.436   5.697  26.307  0.00  0.00    +0.000 A 
ATOM      8  C   UNL     1      -1.451   6.661  26.528  0.00  0.00    +0.000 A 
ATOM      9  C   UNL     1       0.345   8.376  24.031  0.00  0.00    +0.000 C 
ATOM     10  H   UNL     1      -2.438   5.645  22.882  0.00  0.00    +0.000 HD
ATOM     11  H   UNL     1      -2.922   5.232  27.162  0.00  0.00    +0.000 HD
ATOM     12  H   UNL     1      -1.170   6.948  27.536  0.00  0.00    +0.000 HD
ATOM     13  H   UNL     1       0.150   9.427  23.787  0.00  0.00    +0.000 HD
ATOM     14  H   UNL     1       1.394   8.151  23.807  0.00  0.00    +0.000 HD
ENDROOT
BRANCH   3  15
ATOM     15  C   UNL     1      -3.851   4.294  24.788  0.00  0.00    +0.000 C 
ATOM     16  H   UNL     1      -3.776   3.886  23.772  0.00  0.00    +0.000 HD
ATOM     17  H   UNL     1      -3.665   3.439  25.452  0.00  0.00    +0.000 HD
BRANCH  15  18
ATOM     18  C   UNL     1      -5.246   4.829  24.984  0.00  0.00    +0.000 C 
ATOM     19  C   UNL     1      -5.927   4.749  26.133  0.00  0.00    +0.000 C 
ATOM     20  H   UNL     1      -5.728   5.292  24.127  0.00  0.00    +0.000 HD
ATOM     21  H   UNL     1      -6.933   5.147  26.204  0.00  0.00    +0.000 HD
ATOM     22  H   UNL     1      -5.497   4.290  27.017  0.00  0.00    +0.000 HD
ENDBRANCH  15  18
ENDBRANCH   3  15
TORSDOF 2
ENDMDL
MODEL 9
REMARK VINA RESULT:    -4.939     32.288     33.957
REMARK INTER + INTRA:          -5.757
REMARK INTER:                  -5.591
REMARK INTRA:                  -0.166
REMARK UNBOUND:                -0.240
REMARK  Name = 5144
REMARK  2 active torsions:
REMARK  status: ('A' for Active; 'I' for Inactive)
REMARK    1  A    between atoms: C_3  and  C_7
REMARK    2  A    between atoms: C_7  and  C_11
REMARK                            x       y       z     vdW  Elec       q    Type
REMARK                         _______ _______ _______ _____ _____    ______ ____
ROOT
ATOM      1  O   UNL     1     -14.891  -2.552  -4.544  0.00  0.00    +0.000 OA
ATOM      2  O   UNL     1     -13.196  -3.926  -5.566  0.00  0.00    +0.000 OA
ATOM      3  C   UNL     1     -15.951  -5.776  -3.150  0.00  0.00    +0.000 A 
ATOM      4  C   UNL     1     -15.016  -3.863  -4.206  0.00  0.00    +0.000 A 
ATOM      5  C   UNL     1     -14.048  -4.648  -4.789  0.00  0.00    +0.000 A 
ATOM      6  C   UNL     1     -15.983  -4.399  -3.379  0.00  0.00    +0.000 A 
ATOM      7  C   UNL     1     -14.961  -6.577  -3.746  0.00  0.00    +0.000 A 
ATOM      8  C   UNL     1     -13.994  -6.011  -4.579  0.00  0.00    +0.000 A 
ATOM      9  C   UNL     1     -13.735  -2.598  -5.406  0.00  0.00    +0.000 C 
ATOM     10  H   UNL     1     -16.740  -3.765  -2.929  0.00  0.00    +0.000 HD
ATOM     11  H   UNL     1     -14.941  -7.650  -3.565  0.00  0.00    +0.000 HD
ATOM     12  H   UNL     1     -13.230  -6.627  -5.041  0.00  0.00    +0.000 HD
ATOM     13  H   UNL     1     -12.957  -1.951  -4.984  0.00  0.00    +0.000 HD
ATOM     14  H   UNL     1     -14.017  -2.213  -6.393  0.00  0.00    +0.000 HD
ENDROOT
BRANCH   3  15
ATOM     15  C   UNL     1     -16.974  -6.404  -2.264  0.00  0.00    +0.000 C 
ATOM     16  H   UNL     1     -16.794  -7.484  -2.194  0.00  0.00    +0.000 HD
ATOM     17  H   UNL     1     -16.852  -6.028  -1.240  0.00  0.00    +0.000 HD
BRANCH  15  18
ATOM     18  C   UNL     1     -18.384  -6.187  -2.747  0.00  0.00    +0.000 C 
ATOM     19  C   UNL     1     -19.330  -5.551  -2.046  0.00  0.00    +0.000 C 
ATOM     20  H   UNL     1     -18.646  -6.591  -3.722  0.00  0.00    +0.000 HD
ATOM     21  H   UNL     1     -20.330  -5.436  -2.450  0.00  0.00    +0.000 HD
ATOM     22  H   UNL     1     -19.126  -5.135  -1.065  0.00  0.00    +0.000 HD
ENDBRANCH  15  18
ENDBRANCH   3  15
TORSDOF 2
ENDMDL
MODEL 10
REMARK VINA RESULT:    -4.935     35.320     36.640
REMARK INTER + INTRA:          -5.752
REMARK INTER:                  -5.512
REMARK INTRA:                  -0.240
REMARK UNBOUND:                -0.240
REMARK  Name = 5144
REMARK  2 active torsions:
REMARK  status: ('A' for Active; 'I' for Inactive)
REMARK    1  A    between atoms: C_3  and  C_7
REMARK    2  A    between atoms: C_7  and  C_11
REMARK                            x       y       z     vdW  Elec       q    Type
REMARK                         _______ _______ _______ _____ _____    ______ ____
ROOT
ATOM      1  O   UNL     1     -18.535 -16.350   1.772  0.00  0.00    +0.000 OA
ATOM      2  O   UNL     1     -17.202 -17.272  -0.011  0.00  0.00    +0.000 OA
ATOM      3  C   UNL     1     -15.231 -15.658   3.208  0.00  0.00    +0.000 A 
ATOM      4  C   UNL     1     -17.201 -16.241   2.015  0.00  0.00    +0.000 A 
ATOM      5  C   UNL     1     -16.440 -16.767   0.997  0.00  0.00    +0.000 A 
ATOM      6  C   UNL     1     -16.625 -15.678   3.136  0.00  0.00    +0.000 A 
ATOM      7  C   UNL     1     -14.453 -16.196   2.168  0.00  0.00    +0.000 A 
ATOM      8  C   UNL     1     -15.060 -16.760   1.044  0.00  0.00    +0.000 A 
ATOM      9  C   UNL     1     -18.529 -17.004   0.487  0.00  0.00    +0.000 C 
ATOM     10  H   UNL     1     -17.241 -15.268   3.930  0.00  0.00    +0.000 HD
ATOM     11  H   UNL     1     -13.367 -16.179   2.229  0.00  0.00    +0.000 HD
ATOM     12  H   UNL     1     -14.464 -17.176   0.240  0.00  0.00    +0.000 HD
ATOM     13  H   UNL     1     -19.052 -16.365  -0.235  0.00  0.00    +0.000 HD
ATOM     14  H   UNL     1     -19.069 -17.954   0.573  0.00  0.00    +0.000 HD
ENDROOT
BRANCH   3  15
ATOM     15  C   UNL     1     -14.559 -15.061   4.399  0.00  0.00    +0.000 C 
ATOM     16  H   UNL     1     -13.957 -14.195   4.092  0.00  0.00    +0.000 HD
ATOM     17  H   UNL     1     -15.316 -14.653   5.081  0.00  0.00    +0.000 HD
BRANCH  15  18
ATOM     18  C   UNL     1     -13.660 -16.033   5.117  0.00  0.00    +0.000 C 
ATOM     19  C   UNL     1     -14.101 -17.063   5.850  0.00  0.00    +0.000 C 
ATOM     20  H   UNL     1     -12.588 -15.871   5.044  0.00  0.00    +0.000 HD
ATOM     21  H   UNL     1     -13.399 -17.722   6.349  0.00  0.00    +0.000 HD
ATOM     22  H   UNL     1     -15.160 -17.266   5.963  0.00  0.00    +0.000 HD
ENDBRANCH  15  18
ENDBRANCH   3  15
TORSDOF 2
ENDMDL
