MODEL 1
REMARK VINA RESULT:    -5.220      0.000      0.000
REMARK INTER + INTRA:          -6.300
REMARK INTER:                  -6.144
REMARK INTRA:                  -0.156
REMARK UNBOUND:                -0.165
REMARK  Name = 637563
REMARK  4 active torsions:
REMARK  status: ('A' for Active; 'I' for Inactive)
REMARK    1  A    between atoms: O_1  and  C_5
REMARK    2  A    between atoms: O_1  and  C_11
REMARK    3  A    between atoms: C_2  and  C_8
REMARK    4  A    between atoms: C_9  and  C_10
REMARK                            x       y       z     vdW  Elec       q    Type
REMARK                         _______ _______ _______ _____ _____    ______ ____
ROOT
ATOM      1  C   UNL     1      -3.609   4.976  25.245  0.00  0.00    +0.000 A 
ATOM      2  C   UNL     1      -3.306   4.913  26.605  0.00  0.00    +0.000 A 
ATOM      3  C   UNL     1      -4.914   4.740  24.809  0.00  0.00    +0.000 A 
ATOM      4  C   UNL     1      -5.611   4.380  27.094  0.00  0.00    +0.000 A 
ATOM      5  C   UNL     1      -4.307   4.616  27.530  0.00  0.00    +0.000 A 
ATOM      6  C   UNL     1      -5.914   4.443  25.734  0.00  0.00    +0.000 A 
ATOM      7  H   UNL     1      -2.302   5.069  26.988  0.00  0.00    +0.000 HD
ATOM      8  H   UNL     1      -5.168   4.786  23.753  0.00  0.00    +0.000 HD
ATOM      9  H   UNL     1      -4.064   4.564  28.587  0.00  0.00    +0.000 HD
ATOM     10  H   UNL     1      -6.905   4.270  25.328  0.00  0.00    +0.000 HD
ENDROOT
BRANCH   1  11
ATOM     11  C   UNL     1      -2.566   5.286  24.280  0.00  0.00    +0.000 C 
ATOM     12  C   UNL     1      -2.019   6.504  24.068  0.00  0.00    +0.000 C 
ATOM     13  H   UNL     1      -2.215   4.451  23.677  0.00  0.00    +0.000 HD
ATOM     14  H   UNL     1      -2.352   7.375  24.625  0.00  0.00    +0.000 HD
BRANCH  12  15
ATOM     15  C   UNL     1      -0.953   6.778  23.058  0.00  0.00    +0.000 C 
ATOM     16  H   UNL     1      -0.063   6.185  23.285  0.00  0.00    +0.000 HD
ATOM     17  H   UNL     1      -1.307   6.501  22.059  0.00  0.00    +0.000 HD
ATOM     18  H   UNL     1      -0.665   7.833  23.036  0.00  0.00    +0.000 HD
ENDBRANCH  12  15
ENDBRANCH   1  11
BRANCH   4  19
ATOM     19  O   UNL     1      -6.588   4.089  27.996  0.00  0.00    +0.000 OA
BRANCH  19  20
ATOM     20  C   UNL     1      -7.008   5.142  28.862  0.00  0.00    +0.000 C 
ATOM     21  H   UNL     1      -6.721   4.947  29.901  0.00  0.00    +0.000 HD
ATOM     22  H   UNL     1      -8.078   5.347  28.758  0.00  0.00    +0.000 HD
ATOM     23  H   UNL     1      -6.477   6.048  28.549  0.00  0.00    +0.000 HD
ENDBRANCH  19  20
ENDBRANCH   4  19
TORSDOF 4
ENDMDL
MODEL 2
REMARK VINA RESULT:    -4.903     28.403     29.623
REMARK INTER + INTRA:          -5.928
REMARK INTER:                  -5.751
REMARK INTRA:                  -0.176
REMARK UNBOUND:                -0.165
REMARK  Name = 637563
REMARK  4 active torsions:
REMARK  status: ('A' for Active; 'I' for Inactive)
REMARK    1  A    between atoms: O_1  and  C_5
REMARK    2  A    between atoms: O_1  and  C_11
REMARK    3  A    between atoms: C_2  and  C_8
REMARK    4  A    between atoms: C_9  and  C_10
REMARK                            x       y       z     vdW  Elec       q    Type
REMARK                         _______ _______ _______ _____ _____    ______ ____
ROOT
ATOM      1  C   UNL     1      -8.093 -15.081   5.829  0.00  0.00    +0.000 A 
ATOM      2  C   UNL     1      -7.823 -15.778   4.651  0.00  0.00    +0.000 A 
ATOM      3  C   UNL     1      -7.966 -13.691   5.862  0.00  0.00    +0.000 A 
ATOM      4  C   UNL     1      -7.300 -13.698   3.539  0.00  0.00    +0.000 A 
ATOM      5  C   UNL     1      -7.427 -15.087   3.506  0.00  0.00    +0.000 A 
ATOM      6  C   UNL     1      -7.569 -13.001   4.716  0.00  0.00    +0.000 A 
ATOM      7  H   UNL     1      -7.889 -16.859   4.584  0.00  0.00    +0.000 HD
ATOM      8  H   UNL     1      -8.172 -13.132   6.770  0.00  0.00    +0.000 HD
ATOM      9  H   UNL     1      -7.214 -15.636   2.593  0.00  0.00    +0.000 HD
ATOM     10  H   UNL     1      -7.491 -11.923   4.811  0.00  0.00    +0.000 HD
ENDROOT
BRANCH   1  11
ATOM     11  C   UNL     1      -8.505 -15.800   7.023  0.00  0.00    +0.000 C 
ATOM     12  C   UNL     1      -8.350 -17.126   7.242  0.00  0.00    +0.000 C 
ATOM     13  H   UNL     1      -8.989 -15.204   7.793  0.00  0.00    +0.000 HD
ATOM     14  H   UNL     1      -7.897 -17.771   6.495  0.00  0.00    +0.000 HD
BRANCH  12  15
ATOM     15  C   UNL     1      -8.798 -17.826   8.484  0.00  0.00    +0.000 C 
ATOM     16  H   UNL     1      -9.623 -17.276   8.945  0.00  0.00    +0.000 HD
ATOM     17  H   UNL     1      -9.150 -18.833   8.237  0.00  0.00    +0.000 HD
ATOM     18  H   UNL     1      -7.994 -17.917   9.220  0.00  0.00    +0.000 HD
ENDBRANCH  12  15
ENDBRANCH   1  11
BRANCH   4  19
ATOM     19  O   UNL     1      -6.913 -13.024   2.422  0.00  0.00    +0.000 OA
BRANCH  19  20
ATOM     20  C   UNL     1      -7.132 -13.666   1.167  0.00  0.00    +0.000 C 
ATOM     21  H   UNL     1      -8.176 -13.976   1.050  0.00  0.00    +0.000 HD
ATOM     22  H   UNL     1      -6.433 -14.495   1.012  0.00  0.00    +0.000 HD
ATOM     23  H   UNL     1      -6.929 -12.927   0.386  0.00  0.00    +0.000 HD
ENDBRANCH  19  20
ENDBRANCH   4  19
TORSDOF 4
ENDMDL
MODEL 3
REMARK VINA RESULT:    -4.832     45.885     46.535
REMARK INTER + INTRA:          -5.844
REMARK INTER:                  -5.679
REMARK INTRA:                  -0.166
REMARK UNBOUND:                -0.165
REMARK  Name = 637563
REMARK  4 active torsions:
REMARK  status: ('A' for Active; 'I' for Inactive)
REMARK    1  A    between atoms: O_1  and  C_5
REMARK    2  A    between atoms: O_1  and  C_11
REMARK    3  A    between atoms: C_2  and  C_8
REMARK    4  A    between atoms: C_9  and  C_10
REMARK                            x       y       z     vdW  Elec       q    Type
REMARK                         _______ _______ _______ _____ _____    ______ ____
ROOT
ATOM      1  C   UNL     1       4.245   4.298 -19.939  0.00  0.00    +0.000 A 
ATOM      2  C   UNL     1       3.482   5.459 -19.806  0.00  0.00    +0.000 A 
ATOM      3  C   UNL     1       3.629   3.096 -20.288  0.00  0.00    +0.000 A 
ATOM      4  C   UNL     1       1.489   4.214 -20.369  0.00  0.00    +0.000 A 
ATOM      5  C   UNL     1       2.104   5.417 -20.021  0.00  0.00    +0.000 A 
ATOM      6  C   UNL     1       2.252   3.054 -20.503  0.00  0.00    +0.000 A 
ATOM      7  H   UNL     1       3.914   6.412 -19.516  0.00  0.00    +0.000 HD
ATOM      8  H   UNL     1       4.208   2.182 -20.398  0.00  0.00    +0.000 HD
ATOM      9  H   UNL     1       1.515   6.323 -19.910  0.00  0.00    +0.000 HD
ATOM     10  H   UNL     1       1.838   2.088 -20.771  0.00  0.00    +0.000 HD
ENDROOT
BRANCH   1  11
ATOM     11  C   UNL     1       5.681   4.341 -19.715  0.00  0.00    +0.000 C 
ATOM     12  C   UNL     1       6.309   4.054 -18.552  0.00  0.00    +0.000 C 
ATOM     13  H   UNL     1       6.285   4.645 -20.567  0.00  0.00    +0.000 HD
ATOM     14  H   UNL     1       5.751   3.771 -17.665  0.00  0.00    +0.000 HD
BRANCH  12  15
ATOM     15  C   UNL     1       7.790   4.120 -18.364  0.00  0.00    +0.000 C 
ATOM     16  H   UNL     1       8.277   4.352 -19.316  0.00  0.00    +0.000 HD
ATOM     17  H   UNL     1       8.039   4.910 -17.648  0.00  0.00    +0.000 HD
ATOM     18  H   UNL     1       8.202   3.178 -17.990  0.00  0.00    +0.000 HD
ENDBRANCH  12  15
ENDBRANCH   1  11
BRANCH   4  19
ATOM     19  O   UNL     1       0.145   4.174 -20.578  0.00  0.00    +0.000 OA
BRANCH  19  20
ATOM     20  C   UNL     1      -0.471   2.887 -20.598  0.00  0.00    +0.000 C 
ATOM     21  H   UNL     1      -0.802   2.614 -21.606  0.00  0.00    +0.000 HD
ATOM     22  H   UNL     1      -1.278   2.816 -19.862  0.00  0.00    +0.000 HD
ATOM     23  H   UNL     1       0.293   2.159 -20.305  0.00  0.00    +0.000 HD
ENDBRANCH  19  20
ENDBRANCH   4  19
TORSDOF 4
ENDMDL
MODEL 4
REMARK VINA RESULT:    -4.799      1.452      2.192
REMARK INTER + INTRA:          -5.805
REMARK INTER:                  -5.652
REMARK INTRA:                  -0.153
REMARK UNBOUND:                -0.165
REMARK  Name = 637563
REMARK  4 active torsions:
REMARK  status: ('A' for Active; 'I' for Inactive)
REMARK    1  A    between atoms: O_1  and  C_5
REMARK    2  A    between atoms: O_1  and  C_11
REMARK    3  A    between atoms: C_2  and  C_8
REMARK    4  A    between atoms: C_9  and  C_10
REMARK                            x       y       z     vdW  Elec       q    Type
REMARK                         _______ _______ _______ _____ _____    ______ ____
ROOT
ATOM      1  C   UNL     1      -2.664   5.591  24.895  0.00  0.00    +0.000 A 
ATOM      2  C   UNL     1      -3.836   4.891  24.612  0.00  0.00    +0.000 A 
ATOM      3  C   UNL     1      -2.248   5.749  26.218  0.00  0.00    +0.000 A 
ATOM      4  C   UNL     1      -4.177   4.506  26.973  0.00  0.00    +0.000 A 
ATOM      5  C   UNL     1      -4.593   4.348  25.650  0.00  0.00    +0.000 A 
ATOM      6  C   UNL     1      -3.005   5.206  27.256  0.00  0.00    +0.000 A 
ATOM      7  H   UNL     1      -4.210   4.760  23.601  0.00  0.00    +0.000 HD
ATOM      8  H   UNL     1      -1.336   6.291  26.456  0.00  0.00    +0.000 HD
ATOM      9  H   UNL     1      -5.508   3.808  25.424  0.00  0.00    +0.000 HD
ATOM     10  H   UNL     1      -2.625   5.366  28.259  0.00  0.00    +0.000 HD
ENDROOT
BRANCH   1  11
ATOM     11  C   UNL     1      -1.875   6.158  23.813  0.00  0.00    +0.000 C 
ATOM     12  C   UNL     1      -1.935   7.435  23.374  0.00  0.00    +0.000 C 
ATOM     13  H   UNL     1      -1.190   5.474  23.317  0.00  0.00    +0.000 HD
ATOM     14  H   UNL     1      -2.620   8.151  23.817  0.00  0.00    +0.000 HD
BRANCH  12  15
ATOM     15  C   UNL     1      -1.109   7.973  22.250  0.00  0.00    +0.000 C 
ATOM     16  H   UNL     1      -1.351   9.026  22.081  0.00  0.00    +0.000 HD
ATOM     17  H   UNL     1      -0.046   7.899  22.501  0.00  0.00    +0.000 HD
ATOM     18  H   UNL     1      -1.279   7.429  21.316  0.00  0.00    +0.000 HD
ENDBRANCH  12  15
ENDBRANCH   1  11
BRANCH   4  19
ATOM     19  O   UNL     1      -4.916   3.977  27.986  0.00  0.00    +0.000 OA
BRANCH  19  20
ATOM     20  C   UNL     1      -4.592   2.652  28.403  0.00  0.00    +0.000 C 
ATOM     21  H   UNL     1      -4.762   2.515  29.477  0.00  0.00    +0.000 HD
ATOM     22  H   UNL     1      -3.575   2.374  28.106  0.00  0.00    +0.000 HD
ATOM     23  H   UNL     1      -5.275   1.973  27.882  0.00  0.00    +0.000 HD
ENDBRANCH  19  20
ENDBRANCH   4  19
TORSDOF 4
ENDMDL
MODEL 5
REMARK VINA RESULT:    -4.784     27.854     29.053
REMARK INTER + INTRA:          -5.788
REMARK INTER:                  -5.623
REMARK INTRA:                  -0.165
REMARK UNBOUND:                -0.165
REMARK  Name = 637563
REMARK  4 active torsions:
REMARK  status: ('A' for Active; 'I' for Inactive)
REMARK    1  A    between atoms: O_1  and  C_5
REMARK    2  A    between atoms: O_1  and  C_11
REMARK    3  A    between atoms: C_2  and  C_8
REMARK    4  A    between atoms: C_9  and  C_10
REMARK                            x       y       z     vdW  Elec       q    Type
REMARK                         _______ _______ _______ _____ _____    ______ ____
ROOT
ATOM      1  C   UNL     1      -8.429 -15.705   6.108  0.00  0.00    +0.000 A 
ATOM      2  C   UNL     1      -8.185 -14.571   6.882  0.00  0.00    +0.000 A 
ATOM      3  C   UNL     1      -8.127 -15.698   4.746  0.00  0.00    +0.000 A 
ATOM      4  C   UNL     1      -7.338 -13.422   4.933  0.00  0.00    +0.000 A 
ATOM      5  C   UNL     1      -7.640 -13.429   6.295  0.00  0.00    +0.000 A 
ATOM      6  C   UNL     1      -7.582 -14.557   4.159  0.00  0.00    +0.000 A 
ATOM      7  H   UNL     1      -8.422 -14.523   7.941  0.00  0.00    +0.000 HD
ATOM      8  H   UNL     1      -8.309 -16.574   4.128  0.00  0.00    +0.000 HD
ATOM      9  H   UNL     1      -7.456 -12.547   6.901  0.00  0.00    +0.000 HD
ATOM     10  H   UNL     1      -7.371 -14.619   3.096  0.00  0.00    +0.000 HD
ENDROOT
BRANCH   1  11
ATOM     11  C   UNL     1      -8.998 -16.895   6.720  0.00  0.00    +0.000 C 
ATOM     12  C   UNL     1      -8.670 -17.397   7.932  0.00  0.00    +0.000 C 
ATOM     13  H   UNL     1      -9.745 -17.421   6.129  0.00  0.00    +0.000 HD
ATOM     14  H   UNL     1      -7.911 -16.926   8.550  0.00  0.00    +0.000 HD
BRANCH  12  15
ATOM     15  C   UNL     1      -9.276 -18.631   8.518  0.00  0.00    +0.000 C 
ATOM     16  H   UNL     1      -9.561 -18.448   9.558  0.00  0.00    +0.000 HD
ATOM     17  H   UNL     1     -10.175 -18.906   7.957  0.00  0.00    +0.000 HD
ATOM     18  H   UNL     1      -8.587 -19.480   8.497  0.00  0.00    +0.000 HD
ENDBRANCH  12  15
ENDBRANCH   1  11
BRANCH   4  19
ATOM     19  O   UNL     1      -6.806 -12.308   4.359  0.00  0.00    +0.000 OA
BRANCH  19  20
ATOM     20  C   UNL     1      -5.556 -12.457   3.688  0.00  0.00    +0.000 C 
ATOM     21  H   UNL     1      -5.307 -11.566   3.101  0.00  0.00    +0.000 HD
ATOM     22  H   UNL     1      -5.528 -13.371   3.088  0.00  0.00    +0.000 HD
ATOM     23  H   UNL     1      -4.786 -12.556   4.460  0.00  0.00    +0.000 HD
ENDBRANCH  19  20
ENDBRANCH   4  19
TORSDOF 4
ENDMDL
MODEL 6
REMARK VINA RESULT:    -4.764     35.993     38.956
REMARK INTER + INTRA:          -5.764
REMARK INTER:                  -5.604
REMARK INTRA:                  -0.160
REMARK UNBOUND:                -0.165
REMARK  Name = 637563
REMARK  4 active torsions:
REMARK  status: ('A' for Active; 'I' for Inactive)
REMARK    1  A    between atoms: O_1  and  C_5
REMARK    2  A    between atoms: O_1  and  C_11
REMARK    3  A    between atoms: C_2  and  C_8
REMARK    4  A    between atoms: C_9  and  C_10
REMARK                            x       y       z     vdW  Elec       q    Type
REMARK                         _______ _______ _______ _____ _____    ______ ____
ROOT
ATOM      1  C   UNL     1      19.670  -5.190  -4.086  0.00  0.00    +0.000 A 
ATOM      2  C   UNL     1      18.709  -6.148  -4.410  0.00  0.00    +0.000 A 
ATOM      3  C   UNL     1      19.333  -4.116  -3.260  0.00  0.00    +0.000 A 
ATOM      4  C   UNL     1      17.075  -4.960  -3.084  0.00  0.00    +0.000 A 
ATOM      5  C   UNL     1      17.412  -6.034  -3.910  0.00  0.00    +0.000 A 
ATOM      6  C   UNL     1      18.036  -4.002  -2.760  0.00  0.00    +0.000 A 
ATOM      7  H   UNL     1      18.920  -6.989  -5.064  0.00  0.00    +0.000 HD
ATOM      8  H   UNL     1      20.069  -3.361  -2.997  0.00  0.00    +0.000 HD
ATOM      9  H   UNL     1      16.667  -6.780  -4.169  0.00  0.00    +0.000 HD
ATOM     10  H   UNL     1      17.842  -3.144  -2.126  0.00  0.00    +0.000 HD
ENDROOT
BRANCH   1  11
ATOM     11  C   UNL     1      21.021  -5.308  -4.608  0.00  0.00    +0.000 C 
ATOM     12  C   UNL     1      21.884  -6.317  -4.350  0.00  0.00    +0.000 C 
ATOM     13  H   UNL     1      21.353  -4.497  -5.252  0.00  0.00    +0.000 HD
ATOM     14  H   UNL     1      21.612  -7.137  -3.693  0.00  0.00    +0.000 HD
BRANCH  12  15
ATOM     15  C   UNL     1      23.271  -6.393  -4.903  0.00  0.00    +0.000 C 
ATOM     16  H   UNL     1      23.816  -7.215  -4.429  0.00  0.00    +0.000 HD
ATOM     17  H   UNL     1      23.232  -6.581  -5.981  0.00  0.00    +0.000 HD
ATOM     18  H   UNL     1      23.833  -5.470  -4.738  0.00  0.00    +0.000 HD
ENDBRANCH  12  15
ENDBRANCH   1  11
BRANCH   4  19
ATOM     19  O   UNL     1      15.810  -4.848  -2.597  0.00  0.00    +0.000 OA
BRANCH  19  20
ATOM     20  C   UNL     1      15.661  -4.818  -1.178  0.00  0.00    +0.000 C 
ATOM     21  H   UNL     1      16.168  -5.664  -0.702  0.00  0.00    +0.000 HD
ATOM     22  H   UNL     1      14.608  -4.747  -0.885  0.00  0.00    +0.000 HD
ATOM     23  H   UNL     1      16.154  -3.908  -0.821  0.00  0.00    +0.000 HD
ENDBRANCH  19  20
ENDBRANCH   4  19
TORSDOF 4
ENDMDL
MODEL 7
REMARK VINA RESULT:    -4.608     31.223     34.293
REMARK INTER + INTRA:          -5.582
REMARK INTER:                  -5.417
REMARK INTRA:                  -0.164
REMARK UNBOUND:                -0.165
REMARK  Name = 637563
REMARK  4 active torsions:
REMARK  status: ('A' for Active; 'I' for Inactive)
REMARK    1  A    between atoms: O_1  and  C_5
REMARK    2  A    between atoms: O_1  and  C_11
REMARK    3  A    between atoms: C_2  and  C_8
REMARK    4  A    between atoms: C_9  and  C_10
REMARK                            x       y       z     vdW  Elec       q    Type
REMARK                         _______ _______ _______ _____ _____    ______ ____
ROOT
ATOM      1  C   UNL     1      15.306   5.409  -1.111  0.00  0.00    +0.000 A 
ATOM      2  C   UNL     1      14.706   5.848  -2.291  0.00  0.00    +0.000 A 
ATOM      3  C   UNL     1      16.448   6.049  -0.629  0.00  0.00    +0.000 A 
ATOM      4  C   UNL     1      16.390   7.567  -2.508  0.00  0.00    +0.000 A 
ATOM      5  C   UNL     1      15.247   6.927  -2.989  0.00  0.00    +0.000 A 
ATOM      6  C   UNL     1      16.990   7.128  -1.328  0.00  0.00    +0.000 A 
ATOM      7  H   UNL     1      13.828   5.369  -2.714  0.00  0.00    +0.000 HD
ATOM      8  H   UNL     1      16.928   5.720   0.289  0.00  0.00    +0.000 HD
ATOM      9  H   UNL     1      14.778   7.262  -3.910  0.00  0.00    +0.000 HD
ATOM     10  H   UNL     1      17.878   7.578  -0.898  0.00  0.00    +0.000 HD
ENDROOT
BRANCH   1  11
ATOM     11  C   UNL     1      14.742   4.283  -0.382  0.00  0.00    +0.000 C 
ATOM     12  C   UNL     1      13.484   4.207   0.107  0.00  0.00    +0.000 C 
ATOM     13  H   UNL     1      15.412   3.442  -0.217  0.00  0.00    +0.000 HD
ATOM     14  H   UNL     1      12.784   5.029  -0.008  0.00  0.00    +0.000 HD
BRANCH  12  15
ATOM     15  C   UNL     1      12.949   3.032   0.859  0.00  0.00    +0.000 C 
ATOM     16  H   UNL     1      11.972   3.276   1.287  0.00  0.00    +0.000 HD
ATOM     17  H   UNL     1      12.825   2.181   0.181  0.00  0.00    +0.000 HD
ATOM     18  H   UNL     1      13.612   2.725   1.673  0.00  0.00    +0.000 HD
ENDBRANCH  12  15
ENDBRANCH   1  11
BRANCH   4  19
ATOM     19  O   UNL     1      16.918   8.619  -3.190  0.00  0.00    +0.000 OA
BRANCH  19  20
ATOM     20  C   UNL     1      18.339   8.668  -3.309  0.00  0.00    +0.000 C 
ATOM     21  H   UNL     1      18.738   9.633  -2.978  0.00  0.00    +0.000 HD
ATOM     22  H   UNL     1      18.668   8.408  -4.321  0.00  0.00    +0.000 HD
ATOM     23  H   UNL     1      18.746   7.906  -2.636  0.00  0.00    +0.000 HD
ENDBRANCH  19  20
ENDBRANCH   4  19
TORSDOF 4
ENDMDL
MODEL 8
REMARK VINA RESULT:    -4.562     29.194     32.642
REMARK INTER + INTRA:          -5.527
REMARK INTER:                  -5.359
REMARK INTRA:                  -0.167
REMARK UNBOUND:                -0.165
REMARK  Name = 637563
REMARK  4 active torsions:
REMARK  status: ('A' for Active; 'I' for Inactive)
REMARK    1  A    between atoms: O_1  and  C_5
REMARK    2  A    between atoms: O_1  and  C_11
REMARK    3  A    between atoms: C_2  and  C_8
REMARK    4  A    between atoms: C_9  and  C_10
REMARK                            x       y       z     vdW  Elec       q    Type
REMARK                         _______ _______ _______ _____ _____    ______ ____
ROOT
ATOM      1  C   UNL     1      15.354   5.627  -1.210  0.00  0.00    +0.000 A 
ATOM      2  C   UNL     1      15.699   4.335  -0.813  0.00  0.00    +0.000 A 
ATOM      3  C   UNL     1      14.105   6.151  -0.873  0.00  0.00    +0.000 A 
ATOM      4  C   UNL     1      13.547   4.090   0.258  0.00  0.00    +0.000 A 
ATOM      5  C   UNL     1      14.796   3.567  -0.079  0.00  0.00    +0.000 A 
ATOM      6  C   UNL     1      13.202   5.382  -0.139  0.00  0.00    +0.000 A 
ATOM      7  H   UNL     1      16.650   3.879  -1.069  0.00  0.00    +0.000 HD
ATOM      8  H   UNL     1      13.821   7.156  -1.173  0.00  0.00    +0.000 HD
ATOM      9  H   UNL     1      15.067   2.560   0.224  0.00  0.00    +0.000 HD
ATOM     10  H   UNL     1      12.250   5.850   0.088  0.00  0.00    +0.000 HD
ENDROOT
BRANCH   1  11
ATOM     11  C   UNL     1      16.295   6.429  -1.975  0.00  0.00    +0.000 C 
ATOM     12  C   UNL     1      16.149   7.736  -2.291  0.00  0.00    +0.000 C 
ATOM     13  H   UNL     1      17.184   5.910  -2.326  0.00  0.00    +0.000 HD
ATOM     14  H   UNL     1      15.269   8.293  -1.987  0.00  0.00    +0.000 HD
BRANCH  12  15
ATOM     15  C   UNL     1      17.141   8.519  -3.090  0.00  0.00    +0.000 C 
ATOM     16  H   UNL     1      16.713   8.778  -4.063  0.00  0.00    +0.000 HD
ATOM     17  H   UNL     1      17.392   9.446  -2.565  0.00  0.00    +0.000 HD
ATOM     18  H   UNL     1      18.066   7.962  -3.260  0.00  0.00    +0.000 HD
ENDBRANCH  12  15
ENDBRANCH   1  11
BRANCH   4  19
ATOM     19  O   UNL     1      12.665   3.340   0.974  0.00  0.00    +0.000 OA
BRANCH  19  20
ATOM     20  C   UNL     1      12.446   3.715   2.332  0.00  0.00    +0.000 C 
ATOM     21  H   UNL     1      13.196   3.275   2.998  0.00  0.00    +0.000 HD
ATOM     22  H   UNL     1      11.423   3.489   2.653  0.00  0.00    +0.000 HD
ATOM     23  H   UNL     1      12.566   4.802   2.390  0.00  0.00    +0.000 HD
ENDBRANCH  19  20
ENDBRANCH   4  19
TORSDOF 4
ENDMDL
MODEL 9
REMARK VINA RESULT:    -4.465     33.110     34.128
REMARK INTER + INTRA:          -5.413
REMARK INTER:                  -5.248
REMARK INTRA:                  -0.165
REMARK UNBOUND:                -0.165
REMARK  Name = 637563
REMARK  4 active torsions:
REMARK  status: ('A' for Active; 'I' for Inactive)
REMARK    1  A    between atoms: O_1  and  C_5
REMARK    2  A    between atoms: O_1  and  C_11
REMARK    3  A    between atoms: C_2  and  C_8
REMARK    4  A    between atoms: C_9  and  C_10
REMARK                            x       y       z     vdW  Elec       q    Type
REMARK                         _______ _______ _______ _____ _____    ______ ____
ROOT
ATOM      1  C   UNL     1     -16.345  -5.644  -3.653  0.00  0.00    +0.000 A 
ATOM      2  C   UNL     1     -16.793  -6.349  -2.536  0.00  0.00    +0.000 A 
ATOM      3  C   UNL     1     -17.240  -5.306  -4.669  0.00  0.00    +0.000 A 
ATOM      4  C   UNL     1     -19.029  -6.378  -3.450  0.00  0.00    +0.000 A 
ATOM      5  C   UNL     1     -18.134  -6.716  -2.434  0.00  0.00    +0.000 A 
ATOM      6  C   UNL     1     -18.582  -5.673  -4.567  0.00  0.00    +0.000 A 
ATOM      7  H   UNL     1     -16.129  -6.651  -1.731  0.00  0.00    +0.000 HD
ATOM      8  H   UNL     1     -16.909  -4.755  -5.546  0.00  0.00    +0.000 HD
ATOM      9  H   UNL     1     -18.476  -7.269  -1.564  0.00  0.00    +0.000 HD
ATOM     10  H   UNL     1     -19.222  -5.379  -5.391  0.00  0.00    +0.000 HD
ENDROOT
BRANCH   1  11
ATOM     11  C   UNL     1     -14.946  -5.262  -3.761  0.00  0.00    +0.000 C 
ATOM     12  C   UNL     1     -13.900  -6.110  -3.876  0.00  0.00    +0.000 C 
ATOM     13  H   UNL     1     -14.743  -4.193  -3.732  0.00  0.00    +0.000 HD
ATOM     14  H   UNL     1     -14.046  -7.186  -3.883  0.00  0.00    +0.000 HD
BRANCH  12  15
ATOM     15  C   UNL     1     -12.475  -5.672  -3.975  0.00  0.00    +0.000 C 
ATOM     16  H   UNL     1     -12.256  -4.935  -3.196  0.00  0.00    +0.000 HD
ATOM     17  H   UNL     1     -11.811  -6.531  -3.833  0.00  0.00    +0.000 HD
ATOM     18  H   UNL     1     -12.247  -5.221  -4.945  0.00  0.00    +0.000 HD
ENDBRANCH  12  15
ENDBRANCH   1  11
BRANCH   4  19
ATOM     19  O   UNL     1     -20.338  -6.737  -3.351  0.00  0.00    +0.000 OA
BRANCH  19  20
ATOM     20  C   UNL     1     -20.623  -7.988  -2.727  0.00  0.00    +0.000 C 
ATOM     21  H   UNL     1     -19.897  -8.220  -1.940  0.00  0.00    +0.000 HD
ATOM     22  H   UNL     1     -20.710  -8.794  -3.462  0.00  0.00    +0.000 HD
ATOM     23  H   UNL     1     -21.600  -7.892  -2.241  0.00  0.00    +0.000 HD
ENDBRANCH  19  20
ENDBRANCH   4  19
TORSDOF 4
ENDMDL
MODEL 10
REMARK VINA RESULT:    -4.444     42.053     42.945
REMARK INTER + INTRA:          -5.388
REMARK INTER:                  -5.223
REMARK INTRA:                  -0.165
REMARK UNBOUND:                -0.165
REMARK  Name = 637563
REMARK  4 active torsions:
REMARK  status: ('A' for Active; 'I' for Inactive)
REMARK    1  A    between atoms: O_1  and  C_5
REMARK    2  A    between atoms: O_1  and  C_11
REMARK    3  A    between atoms: C_2  and  C_8
REMARK    4  A    between atoms: C_9  and  C_10
REMARK                            x       y       z     vdW  Elec       q    Type
REMARK                         _______ _______ _______ _____ _____    ______ ____
ROOT
ATOM      1  C   UNL     1      11.216  19.321 -11.436  0.00  0.00    +0.000 A 
ATOM      2  C   UNL     1      11.161  19.764 -10.114  0.00  0.00    +0.000 A 
ATOM      3  C   UNL     1      10.740  20.135 -12.465  0.00  0.00    +0.000 A 
ATOM      4  C   UNL     1      10.154  21.834 -10.850  0.00  0.00    +0.000 A 
ATOM      5  C   UNL     1      10.630  21.020  -9.821  0.00  0.00    +0.000 A 
ATOM      6  C   UNL     1      10.209  21.391 -12.171  0.00  0.00    +0.000 A 
ATOM      7  H   UNL     1      11.500  19.158  -9.280  0.00  0.00    +0.000 HD
ATOM      8  H   UNL     1      10.776  19.806 -13.500  0.00  0.00    +0.000 HD
ATOM      9  H   UNL     1      10.585  21.358  -8.790  0.00  0.00    +0.000 HD
ATOM     10  H   UNL     1       9.857  21.971 -13.017  0.00  0.00    +0.000 HD
ENDROOT
BRANCH   1  11
ATOM     11  C   UNL     1      11.768  18.012 -11.742  0.00  0.00    +0.000 C 
ATOM     12  C   UNL     1      12.852  17.453 -11.158  0.00  0.00    +0.000 C 
ATOM     13  H   UNL     1      11.256  17.452 -12.522  0.00  0.00    +0.000 HD
ATOM     14  H   UNL     1      13.414  17.980 -10.393  0.00  0.00    +0.000 HD
BRANCH  12  15
ATOM     15  C   UNL     1      13.391  16.104 -11.512  0.00  0.00    +0.000 C 
ATOM     16  H   UNL     1      13.461  16.005 -12.599  0.00  0.00    +0.000 HD
ATOM     17  H   UNL     1      14.393  15.981 -11.088  0.00  0.00    +0.000 HD
ATOM     18  H   UNL     1      12.759  15.295 -11.134  0.00  0.00    +0.000 HD
ENDBRANCH  12  15
ENDBRANCH   1  11
BRANCH   4  19
ATOM     19  O   UNL     1       9.635  23.059 -10.563  0.00  0.00    +0.000 OA
BRANCH  19  20
ATOM     20  C   UNL     1       8.316  23.332 -11.032  0.00  0.00    +0.000 C 
ATOM     21  H   UNL     1       7.571  22.712 -10.521  0.00  0.00    +0.000 HD
ATOM     22  H   UNL     1       8.250  23.246 -12.122  0.00  0.00    +0.000 HD
ATOM     23  H   UNL     1       8.092  24.373 -10.779  0.00  0.00    +0.000 HD
ENDBRANCH  19  20
ENDBRANCH   4  19
TORSDOF 4
ENDMDL
