MODEL 1
REMARK VINA RESULT:    -5.470      0.000      0.000
REMARK INTER + INTRA:          -6.428
REMARK INTER:                  -6.272
REMARK INTRA:                  -0.156
REMARK UNBOUND:                -0.158
REMARK  Name = 444539
REMARK  3 active torsions:
REMARK  status: ('A' for Active; 'I' for Inactive)
REMARK    1  A    between atoms: O_1  and  C_11
REMARK    2  A    between atoms: C_3  and  C_6
REMARK    3  A    between atoms: C_10  and  C_11
REMARK                            x       y       z     vdW  Elec       q    Type
REMARK                         _______ _______ _______ _____ _____    ______ ____
ROOT
ATOM      1  C   UNL     1      -7.509 -14.031   4.103  0.00  0.00    +0.000 A 
ATOM      2  C   UNL     1      -7.554 -13.044   5.088  0.00  0.00    +0.000 A 
ATOM      3  C   UNL     1      -7.810 -15.353   4.427  0.00  0.00    +0.000 A 
ATOM      4  C   UNL     1      -7.898 -13.381   6.397  0.00  0.00    +0.000 A 
ATOM      5  C   UNL     1      -8.154 -15.690   5.736  0.00  0.00    +0.000 A 
ATOM      6  C   UNL     1      -8.199 -14.703   6.721  0.00  0.00    +0.000 A 
ATOM      7  H   UNL     1      -7.304 -12.005   4.895  0.00  0.00    +0.000 HD
ATOM      8  H   UNL     1      -7.781 -16.136   3.672  0.00  0.00    +0.000 HD
ATOM      9  H   UNL     1      -7.927 -12.614   7.166  0.00  0.00    +0.000 HD
ATOM     10  H   UNL     1      -8.388 -16.720   5.989  0.00  0.00    +0.000 HD
ATOM     11  H   UNL     1      -8.466 -14.965   7.741  0.00  0.00    +0.000 HD
ENDROOT
BRANCH   1  12
ATOM     12  C   UNL     1      -7.153 -13.681   2.737  0.00  0.00    +0.000 C 
ATOM     13  C   UNL     1      -7.207 -14.548   1.732  0.00  0.00    +0.000 C 
ATOM     14  H   UNL     1      -6.822 -12.657   2.576  0.00  0.00    +0.000 HD
ATOM     15  H   UNL     1      -7.498 -15.587   1.830  0.00  0.00    +0.000 HD
BRANCH  13  17
ATOM     16  O   UNL     1      -7.276 -13.153  -0.233  0.00  0.00    +0.000 OA
ATOM     17  C   UNL     1      -6.807 -14.094   0.383  0.00  0.00    +0.000 C 
BRANCH  17  18
ATOM     18  O   UNL     1      -5.817 -14.899  -0.069  0.00  0.00    +0.000 OA
ATOM     19  H   UNL     1      -6.133 -15.814  -0.230  0.00  0.00    +0.000 HD
ENDBRANCH  17  18
ENDBRANCH  13  17
ENDBRANCH   1  12
TORSDOF 3
ENDMDL
MODEL 2
REMARK VINA RESULT:    -5.271     40.125     41.336
REMARK INTER + INTRA:          -6.199
REMARK INTER:                  -6.057
REMARK INTRA:                  -0.142
REMARK UNBOUND:                -0.158
REMARK  Name = 444539
REMARK  3 active torsions:
REMARK  status: ('A' for Active; 'I' for Inactive)
REMARK    1  A    between atoms: O_1  and  C_11
REMARK    2  A    between atoms: C_3  and  C_6
REMARK    3  A    between atoms: C_10  and  C_11
REMARK                            x       y       z     vdW  Elec       q    Type
REMARK                         _______ _______ _______ _____ _____    ______ ____
ROOT
ATOM      1  C   UNL     1      12.448  18.488 -11.718  0.00  0.00    +0.000 A 
ATOM      2  C   UNL     1      13.619  19.080 -12.191  0.00  0.00    +0.000 A 
ATOM      3  C   UNL     1      12.351  17.099 -11.640  0.00  0.00    +0.000 A 
ATOM      4  C   UNL     1      14.692  18.282 -12.587  0.00  0.00    +0.000 A 
ATOM      5  C   UNL     1      13.425  16.302 -12.036  0.00  0.00    +0.000 A 
ATOM      6  C   UNL     1      14.596  16.893 -12.509  0.00  0.00    +0.000 A 
ATOM      7  H   UNL     1      13.738  20.154 -12.296  0.00  0.00    +0.000 HD
ATOM      8  H   UNL     1      11.447  16.620 -11.273  0.00  0.00    +0.000 HD
ATOM      9  H   UNL     1      15.603  18.742 -12.962  0.00  0.00    +0.000 HD
ATOM     10  H   UNL     1      13.350  15.220 -11.975  0.00  0.00    +0.000 HD
ATOM     11  H   UNL     1      15.432  16.272 -12.819  0.00  0.00    +0.000 HD
ENDROOT
BRANCH   1  12
ATOM     12  C   UNL     1      11.329  19.319 -11.302  0.00  0.00    +0.000 C 
ATOM     13  C   UNL     1      11.249  19.870 -10.095  0.00  0.00    +0.000 C 
ATOM     14  H   UNL     1      10.539  19.461 -12.037  0.00  0.00    +0.000 HD
ATOM     15  H   UNL     1      11.984  19.743  -9.311  0.00  0.00    +0.000 HD
BRANCH  13  17
ATOM     16  O   UNL     1       9.741  21.742 -10.285  0.00  0.00    +0.000 OA
ATOM     17  C   UNL     1      10.059  20.685  -9.769  0.00  0.00    +0.000 C 
BRANCH  17  18
ATOM     18  O   UNL     1       9.364  20.062  -8.788  0.00  0.00    +0.000 OA
ATOM     19  H   UNL     1       8.416  19.961  -9.019  0.00  0.00    +0.000 HD
ENDBRANCH  17  18
ENDBRANCH  13  17
ENDBRANCH   1  12
TORSDOF 3
ENDMDL
MODEL 3
REMARK VINA RESULT:    -5.120     28.762     29.718
REMARK INTER + INTRA:          -6.027
REMARK INTER:                  -5.873
REMARK INTRA:                  -0.154
REMARK UNBOUND:                -0.158
REMARK  Name = 444539
REMARK  3 active torsions:
REMARK  status: ('A' for Active; 'I' for Inactive)
REMARK    1  A    between atoms: O_1  and  C_11
REMARK    2  A    between atoms: C_3  and  C_6
REMARK    3  A    between atoms: C_10  and  C_11
REMARK                            x       y       z     vdW  Elec       q    Type
REMARK                         _______ _______ _______ _____ _____    ______ ____
ROOT
ATOM      1  C   UNL     1      -3.532   5.166  25.150  0.00  0.00    +0.000 A 
ATOM      2  C   UNL     1      -3.296   5.160  26.525  0.00  0.00    +0.000 A 
ATOM      3  C   UNL     1      -4.782   4.798  24.656  0.00  0.00    +0.000 A 
ATOM      4  C   UNL     1      -4.310   4.783  27.404  0.00  0.00    +0.000 A 
ATOM      5  C   UNL     1      -5.797   4.421  25.536  0.00  0.00    +0.000 A 
ATOM      6  C   UNL     1      -5.561   4.414  26.910  0.00  0.00    +0.000 A 
ATOM      7  H   UNL     1      -2.334   5.413  26.961  0.00  0.00    +0.000 HD
ATOM      8  H   UNL     1      -4.985   4.798  23.587  0.00  0.00    +0.000 HD
ATOM      9  H   UNL     1      -4.126   4.771  28.475  0.00  0.00    +0.000 HD
ATOM     10  H   UNL     1      -6.771   4.134  25.150  0.00  0.00    +0.000 HD
ATOM     11  H   UNL     1      -6.351   4.119  27.596  0.00  0.00    +0.000 HD
ENDROOT
BRANCH   1  12
ATOM     12  C   UNL     1      -2.475   5.562  24.232  0.00  0.00    +0.000 C 
ATOM     13  C   UNL     1      -1.829   6.719  24.331  0.00  0.00    +0.000 C 
ATOM     14  H   UNL     1      -2.242   4.856  23.438  0.00  0.00    +0.000 HD
ATOM     15  H   UNL     1      -2.033   7.476  25.078  0.00  0.00    +0.000 HD
BRANCH  13  17
ATOM     16  O   UNL     1       0.369   7.355  23.571  0.00  0.00    +0.000 OA
ATOM     17  C   UNL     1      -0.782   7.031  23.335  0.00  0.00    +0.000 C 
BRANCH  17  18
ATOM     18  O   UNL     1      -1.309   6.896  22.096  0.00  0.00    +0.000 OA
ATOM     19  H   UNL     1      -2.251   7.168  22.066  0.00  0.00    +0.000 HD
ENDBRANCH  17  18
ENDBRANCH  13  17
ENDBRANCH   1  12
TORSDOF 3
ENDMDL
MODEL 4
REMARK VINA RESULT:    -5.091     30.879     31.513
REMARK INTER + INTRA:          -5.993
REMARK INTER:                  -5.840
REMARK INTRA:                  -0.153
REMARK UNBOUND:                -0.158
REMARK  Name = 444539
REMARK  3 active torsions:
REMARK  status: ('A' for Active; 'I' for Inactive)
REMARK    1  A    between atoms: O_1  and  C_11
REMARK    2  A    between atoms: C_3  and  C_6
REMARK    3  A    between atoms: C_10  and  C_11
REMARK                            x       y       z     vdW  Elec       q    Type
REMARK                         _______ _______ _______ _____ _____    ______ ____
ROOT
ATOM      1  C   UNL     1       2.127   3.918 -20.433  0.00  0.00    +0.000 A 
ATOM      2  C   UNL     1       2.001   5.243 -20.014  0.00  0.00    +0.000 A 
ATOM      3  C   UNL     1       3.384   3.317 -20.473  0.00  0.00    +0.000 A 
ATOM      4  C   UNL     1       3.132   5.966 -19.638  0.00  0.00    +0.000 A 
ATOM      5  C   UNL     1       4.516   4.040 -20.097  0.00  0.00    +0.000 A 
ATOM      6  C   UNL     1       4.390   5.365 -19.679  0.00  0.00    +0.000 A 
ATOM      7  H   UNL     1       1.050   5.766 -19.989  0.00  0.00    +0.000 HD
ATOM      8  H   UNL     1       3.502   2.285 -20.796  0.00  0.00    +0.000 HD
ATOM      9  H   UNL     1       3.036   7.000 -19.318  0.00  0.00    +0.000 HD
ATOM     10  H   UNL     1       5.496   3.572 -20.128  0.00  0.00    +0.000 HD
ATOM     11  H   UNL     1       5.272   5.929 -19.387  0.00  0.00    +0.000 HD
ENDROOT
BRANCH   1  12
ATOM     12  C   UNL     1       0.947   3.162 -20.823  0.00  0.00    +0.000 C 
ATOM     13  C   UNL     1       0.963   2.245 -21.785  0.00  0.00    +0.000 C 
ATOM     14  H   UNL     1       0.030   3.396 -20.287  0.00  0.00    +0.000 HD
ATOM     15  H   UNL     1       1.834   1.987 -22.374  0.00  0.00    +0.000 HD
BRANCH  13  17
ATOM     16  O   UNL     1      -1.424   1.993 -22.004  0.00  0.00    +0.000 OA
ATOM     17  C   UNL     1      -0.296   1.545 -22.115  0.00  0.00    +0.000 C 
BRANCH  17  18
ATOM     18  O   UNL     1       0.003   0.305 -22.569  0.00  0.00    +0.000 OA
ATOM     19  H   UNL     1       0.499   0.334 -23.415  0.00  0.00    +0.000 HD
ENDBRANCH  17  18
ENDBRANCH  13  17
ENDBRANCH   1  12
TORSDOF 3
ENDMDL
MODEL 5
REMARK VINA RESULT:    -5.078     29.614     30.626
REMARK INTER + INTRA:          -5.979
REMARK INTER:                  -5.832
REMARK INTRA:                  -0.146
REMARK UNBOUND:                -0.158
REMARK  Name = 444539
REMARK  3 active torsions:
REMARK  status: ('A' for Active; 'I' for Inactive)
REMARK    1  A    between atoms: O_1  and  C_11
REMARK    2  A    between atoms: C_3  and  C_6
REMARK    3  A    between atoms: C_10  and  C_11
REMARK                            x       y       z     vdW  Elec       q    Type
REMARK                         _______ _______ _______ _____ _____    ______ ____
ROOT
ATOM      1  C   UNL     1      -3.045   5.218  26.153  0.00  0.00    +0.000 A 
ATOM      2  C   UNL     1      -3.112   5.201  24.759  0.00  0.00    +0.000 A 
ATOM      3  C   UNL     1      -2.051   5.956  26.794  0.00  0.00    +0.000 A 
ATOM      4  C   UNL     1      -2.184   5.921  24.008  0.00  0.00    +0.000 A 
ATOM      5  C   UNL     1      -1.122   6.676  26.042  0.00  0.00    +0.000 A 
ATOM      6  C   UNL     1      -1.189   6.659  24.649  0.00  0.00    +0.000 A 
ATOM      7  H   UNL     1      -3.850   4.623  24.210  0.00  0.00    +0.000 HD
ATOM      8  H   UNL     1      -1.983   5.982  27.879  0.00  0.00    +0.000 HD
ATOM      9  H   UNL     1      -2.231   5.903  22.923  0.00  0.00    +0.000 HD
ATOM     10  H   UNL     1      -0.347   7.251  26.542  0.00  0.00    +0.000 HD
ATOM     11  H   UNL     1      -0.465   7.219  24.063  0.00  0.00    +0.000 HD
ENDROOT
BRANCH   1  12
ATOM     12  C   UNL     1      -4.015   4.470  26.937  0.00  0.00    +0.000 C 
ATOM     13  C   UNL     1      -3.689   3.401  27.658  0.00  0.00    +0.000 C 
ATOM     14  H   UNL     1      -5.041   4.826  26.897  0.00  0.00    +0.000 HD
ATOM     15  H   UNL     1      -2.694   2.978  27.716  0.00  0.00    +0.000 HD
BRANCH  13  17
ATOM     16  O   UNL     1      -5.895   3.097  28.583  0.00  0.00    +0.000 OA
ATOM     17  C   UNL     1      -4.755   2.702  28.406  0.00  0.00    +0.000 C 
BRANCH  17  18
ATOM     18  O   UNL     1      -4.261   1.532  28.874  0.00  0.00    +0.000 OA
ATOM     19  H   UNL     1      -3.280   1.521  28.869  0.00  0.00    +0.000 HD
ENDBRANCH  17  18
ENDBRANCH  13  17
ENDBRANCH   1  12
TORSDOF 3
ENDMDL
MODEL 6
REMARK VINA RESULT:    -4.976     30.955     31.824
REMARK INTER + INTRA:          -5.862
REMARK INTER:                  -5.713
REMARK INTRA:                  -0.149
REMARK UNBOUND:                -0.158
REMARK  Name = 444539
REMARK  3 active torsions:
REMARK  status: ('A' for Active; 'I' for Inactive)
REMARK    1  A    between atoms: O_1  and  C_11
REMARK    2  A    between atoms: C_3  and  C_6
REMARK    3  A    between atoms: C_10  and  C_11
REMARK                            x       y       z     vdW  Elec       q    Type
REMARK                         _______ _______ _______ _____ _____    ______ ____
ROOT
ATOM      1  C   UNL     1       3.703   4.615 -20.063  0.00  0.00    +0.000 A 
ATOM      2  C   UNL     1       3.342   5.886 -19.613  0.00  0.00    +0.000 A 
ATOM      3  C   UNL     1       4.907   4.046 -19.651  0.00  0.00    +0.000 A 
ATOM      4  C   UNL     1       4.187   6.585 -18.752  0.00  0.00    +0.000 A 
ATOM      5  C   UNL     1       5.751   4.746 -18.790  0.00  0.00    +0.000 A 
ATOM      6  C   UNL     1       5.391   6.016 -18.340  0.00  0.00    +0.000 A 
ATOM      7  H   UNL     1       2.429   6.385 -19.923  0.00  0.00    +0.000 HD
ATOM      8  H   UNL     1       5.204   3.056 -19.991  0.00  0.00    +0.000 HD
ATOM      9  H   UNL     1       3.910   7.577 -18.405  0.00  0.00    +0.000 HD
ATOM     10  H   UNL     1       6.690   4.302 -18.469  0.00  0.00    +0.000 HD
ATOM     11  H   UNL     1       6.049   6.562 -17.670  0.00  0.00    +0.000 HD
ENDROOT
BRANCH   1  12
ATOM     12  C   UNL     1       2.822   3.883 -20.960  0.00  0.00    +0.000 C 
ATOM     13  C   UNL     1       2.122   2.821 -20.575  0.00  0.00    +0.000 C 
ATOM     14  H   UNL     1       2.770   4.247 -21.983  0.00  0.00    +0.000 HD
ATOM     15  H   UNL     1       2.151   2.392 -19.581  0.00  0.00    +0.000 HD
BRANCH  13  17
ATOM     16  O   UNL     1       0.061   1.981 -21.503  0.00  0.00    +0.000 OA
ATOM     17  C   UNL     1       1.268   2.139 -21.570  0.00  0.00    +0.000 C 
BRANCH  17  18
ATOM     18  O   UNL     1       2.049   1.710 -22.589  0.00  0.00    +0.000 OA
ATOM     19  H   UNL     1       2.180   0.738 -22.567  0.00  0.00    +0.000 HD
ENDBRANCH  17  18
ENDBRANCH  13  17
ENDBRANCH   1  12
TORSDOF 3
ENDMDL
MODEL 7
REMARK VINA RESULT:    -4.960      7.763      9.046
REMARK INTER + INTRA:          -5.843
REMARK INTER:                  -5.692
REMARK INTRA:                  -0.151
REMARK UNBOUND:                -0.158
REMARK  Name = 444539
REMARK  3 active torsions:
REMARK  status: ('A' for Active; 'I' for Inactive)
REMARK    1  A    between atoms: O_1  and  C_11
REMARK    2  A    between atoms: C_3  and  C_6
REMARK    3  A    between atoms: C_10  and  C_11
REMARK                            x       y       z     vdW  Elec       q    Type
REMARK                         _______ _______ _______ _____ _____    ______ ____
ROOT
ATOM      1  C   UNL     1      -0.711 -16.635   2.143  0.00  0.00    +0.000 A 
ATOM      2  C   UNL     1      -1.239 -15.364   2.369  0.00  0.00    +0.000 A 
ATOM      3  C   UNL     1      -0.887 -17.254   0.907  0.00  0.00    +0.000 A 
ATOM      4  C   UNL     1      -1.946 -14.714   1.358  0.00  0.00    +0.000 A 
ATOM      5  C   UNL     1      -1.594 -16.603  -0.104  0.00  0.00    +0.000 A 
ATOM      6  C   UNL     1      -2.124 -15.333   0.121  0.00  0.00    +0.000 A 
ATOM      7  H   UNL     1      -1.153 -14.849   3.321  0.00  0.00    +0.000 HD
ATOM      8  H   UNL     1      -0.481 -18.244   0.712  0.00  0.00    +0.000 HD
ATOM      9  H   UNL     1      -2.364 -13.727   1.535  0.00  0.00    +0.000 HD
ATOM     10  H   UNL     1      -1.732 -17.086  -1.068  0.00  0.00    +0.000 HD
ATOM     11  H   UNL     1      -2.675 -14.826  -0.666  0.00  0.00    +0.000 HD
ENDROOT
BRANCH   1  12
ATOM     12  C   UNL     1       0.029 -17.313   3.196  0.00  0.00    +0.000 C 
ATOM     13  C   UNL     1       1.121 -18.035   2.962  0.00  0.00    +0.000 C 
ATOM     14  H   UNL     1      -0.368 -17.210   4.204  0.00  0.00    +0.000 HD
ATOM     15  H   UNL     1       1.549 -18.202   1.982  0.00  0.00    +0.000 HD
BRANCH  13  17
ATOM     16  O   UNL     1       1.428 -19.720   4.659  0.00  0.00    +0.000 OA
ATOM     17  C   UNL     1       1.788 -18.697   4.102  0.00  0.00    +0.000 C 
BRANCH  17  18
ATOM     18  O   UNL     1       2.885 -17.978   4.440  0.00  0.00    +0.000 OA
ATOM     19  H   UNL     1       3.133 -18.107   5.380  0.00  0.00    +0.000 HD
ENDBRANCH  17  18
ENDBRANCH  13  17
ENDBRANCH   1  12
TORSDOF 3
ENDMDL
MODEL 8
REMARK VINA RESULT:    -4.889      6.518      7.180
REMARK INTER + INTRA:          -5.762
REMARK INTER:                  -5.605
REMARK INTRA:                  -0.157
REMARK UNBOUND:                -0.158
REMARK  Name = 444539
REMARK  3 active torsions:
REMARK  status: ('A' for Active; 'I' for Inactive)
REMARK    1  A    between atoms: O_1  and  C_11
REMARK    2  A    between atoms: C_3  and  C_6
REMARK    3  A    between atoms: C_10  and  C_11
REMARK                            x       y       z     vdW  Elec       q    Type
REMARK                         _______ _______ _______ _____ _____    ______ ____
ROOT
ATOM      1  C   UNL     1      -1.487 -16.452   0.300  0.00  0.00    +0.000 A 
ATOM      2  C   UNL     1      -1.815 -15.318   1.044  0.00  0.00    +0.000 A 
ATOM      3  C   UNL     1      -0.744 -17.478   0.882  0.00  0.00    +0.000 A 
ATOM      4  C   UNL     1      -1.397 -15.211   2.370  0.00  0.00    +0.000 A 
ATOM      5  C   UNL     1      -0.326 -17.370   2.209  0.00  0.00    +0.000 A 
ATOM      6  C   UNL     1      -0.653 -16.237   2.953  0.00  0.00    +0.000 A 
ATOM      7  H   UNL     1      -2.369 -14.480   0.631  0.00  0.00    +0.000 HD
ATOM      8  H   UNL     1      -0.480 -18.369   0.318  0.00  0.00    +0.000 HD
ATOM      9  H   UNL     1      -1.646 -14.326   2.949  0.00  0.00    +0.000 HD
ATOM     10  H   UNL     1       0.253 -18.169   2.663  0.00  0.00    +0.000 HD
ATOM     11  H   UNL     1      -0.327 -16.152   3.986  0.00  0.00    +0.000 HD
ENDROOT
BRANCH   1  12
ATOM     12  C   UNL     1      -1.924 -16.566  -1.083  0.00  0.00    +0.000 C 
ATOM     13  C   UNL     1      -2.584 -15.600  -1.714  0.00  0.00    +0.000 C 
ATOM     14  H   UNL     1      -1.691 -17.504  -1.583  0.00  0.00    +0.000 HD
ATOM     15  H   UNL     1      -2.872 -14.658  -1.264  0.00  0.00    +0.000 HD
BRANCH  13  17
ATOM     16  O   UNL     1      -3.440 -16.859  -3.583  0.00  0.00    +0.000 OA
ATOM     17  C   UNL     1      -2.997 -15.824  -3.115  0.00  0.00    +0.000 C 
BRANCH  17  18
ATOM     18  O   UNL     1      -2.803 -14.680  -3.812  0.00  0.00    +0.000 OA
ATOM     19  H   UNL     1      -3.637 -14.347  -4.208  0.00  0.00    +0.000 HD
ENDBRANCH  17  18
ENDBRANCH  13  17
ENDBRANCH   1  12
TORSDOF 3
ENDMDL
MODEL 9
REMARK VINA RESULT:    -4.765     40.281     41.763
REMARK INTER + INTRA:          -5.619
REMARK INTER:                  -5.461
REMARK INTRA:                  -0.158
REMARK UNBOUND:                -0.158
REMARK  Name = 444539
REMARK  3 active torsions:
REMARK  status: ('A' for Active; 'I' for Inactive)
REMARK    1  A    between atoms: O_1  and  C_11
REMARK    2  A    between atoms: C_3  and  C_6
REMARK    3  A    between atoms: C_10  and  C_11
REMARK                            x       y       z     vdW  Elec       q    Type
REMARK                         _______ _______ _______ _____ _____    ______ ____
ROOT
ATOM      1  C   UNL     1      12.649  18.981 -11.689  0.00  0.00    +0.000 A 
ATOM      2  C   UNL     1      12.170  17.674 -11.779  0.00  0.00    +0.000 A 
ATOM      3  C   UNL     1      13.949  19.218 -11.245  0.00  0.00    +0.000 A 
ATOM      4  C   UNL     1      12.991  16.605 -11.424  0.00  0.00    +0.000 A 
ATOM      5  C   UNL     1      14.770  18.148 -10.889  0.00  0.00    +0.000 A 
ATOM      6  C   UNL     1      14.292  16.841 -10.979  0.00  0.00    +0.000 A 
ATOM      7  H   UNL     1      11.158  17.436 -12.094  0.00  0.00    +0.000 HD
ATOM      8  H   UNL     1      14.340  20.230 -11.169  0.00  0.00    +0.000 HD
ATOM      9  H   UNL     1      12.617  15.587 -11.488  0.00  0.00    +0.000 HD
ATOM     10  H   UNL     1      15.784  18.333 -10.543  0.00  0.00    +0.000 HD
ATOM     11  H   UNL     1      14.931  16.008 -10.701  0.00  0.00    +0.000 HD
ENDROOT
BRANCH   1  12
ATOM     12  C   UNL     1      11.794  20.098 -12.062  0.00  0.00    +0.000 C 
ATOM     13  C   UNL     1      10.568  19.936 -12.549  0.00  0.00    +0.000 C 
ATOM     14  H   UNL     1      12.219  21.091 -11.932  0.00  0.00    +0.000 HD
ATOM     15  H   UNL     1      10.100  18.977 -12.731  0.00  0.00    +0.000 HD
BRANCH  13  17
ATOM     16  O   UNL     1      10.173  22.293 -12.864  0.00  0.00    +0.000 OA
ATOM     17  C   UNL     1       9.788  21.138 -12.913  0.00  0.00    +0.000 C 
BRANCH  17  18
ATOM     18  O   UNL     1       8.556  20.749 -13.317  0.00  0.00    +0.000 OA
ATOM     19  H   UNL     1       8.035  20.359 -12.582  0.00  0.00    +0.000 HD
ENDBRANCH  17  18
ENDBRANCH  13  17
ENDBRANCH   1  12
TORSDOF 3
ENDMDL
MODEL 10
REMARK VINA RESULT:    -4.753     18.021     18.927
REMARK INTER + INTRA:          -5.606
REMARK INTER:                  -5.448
REMARK INTRA:                  -0.158
REMARK UNBOUND:                -0.158
REMARK  Name = 444539
REMARK  3 active torsions:
REMARK  status: ('A' for Active; 'I' for Inactive)
REMARK    1  A    between atoms: O_1  and  C_11
REMARK    2  A    between atoms: C_3  and  C_6
REMARK    3  A    between atoms: C_10  and  C_11
REMARK                            x       y       z     vdW  Elec       q    Type
REMARK                         _______ _______ _______ _____ _____    ______ ____
ROOT
ATOM      1  C   UNL     1     -12.275 -10.530  21.001  0.00  0.00    +0.000 A 
ATOM      2  C   UNL     1     -12.487  -9.723  19.883  0.00  0.00    +0.000 A 
ATOM      3  C   UNL     1     -12.721 -10.117  22.255  0.00  0.00    +0.000 A 
ATOM      4  C   UNL     1     -13.145  -8.501  20.022  0.00  0.00    +0.000 A 
ATOM      5  C   UNL     1     -13.379  -8.895  22.393  0.00  0.00    +0.000 A 
ATOM      6  C   UNL     1     -13.592  -8.087  21.276  0.00  0.00    +0.000 A 
ATOM      7  H   UNL     1     -12.137  -9.985  18.889  0.00  0.00    +0.000 HD
ATOM      8  H   UNL     1     -12.565 -10.733  23.137  0.00  0.00    +0.000 HD
ATOM      9  H   UNL     1     -13.306  -7.868  19.153  0.00  0.00    +0.000 HD
ATOM     10  H   UNL     1     -13.727  -8.572  23.370  0.00  0.00    +0.000 HD
ATOM     11  H   UNL     1     -14.103  -7.134  21.383  0.00  0.00    +0.000 HD
ENDROOT
BRANCH   1  12
ATOM     12  C   UNL     1     -11.590 -11.806  20.858  0.00  0.00    +0.000 C 
ATOM     13  C   UNL     1     -10.407 -12.057  21.409  0.00  0.00    +0.000 C 
ATOM     14  H   UNL     1     -12.098 -12.557  20.256  0.00  0.00    +0.000 HD
ATOM     15  H   UNL     1      -9.837 -11.344  21.992  0.00  0.00    +0.000 HD
BRANCH  13  17
ATOM     16  O   UNL     1      -8.625 -13.680  21.381  0.00  0.00    +0.000 OA
ATOM     17  C   UNL     1      -9.791 -13.382  21.188  0.00  0.00    +0.000 C 
BRANCH  17  18
ATOM     18  O   UNL     1     -10.741 -14.230  20.729  0.00  0.00    +0.000 OA
ATOM     19  H   UNL     1     -10.702 -14.331  19.754  0.00  0.00    +0.000 HD
ENDBRANCH  17  18
ENDBRANCH  13  17
ENDBRANCH   1  12
TORSDOF 3
ENDMDL
