MODEL 1
REMARK VINA RESULT:    -4.216      0.000      0.000
REMARK INTER + INTRA:          -6.202
REMARK INTER:                  -5.840
REMARK INTRA:                  -0.361
REMARK UNBOUND:                -0.507
REMARK  Name = 5363388
REMARK  7 active torsions:
REMARK  status: ('A' for Active; 'I' for Inactive)
REMARK    1  A    between atoms: O_1  and  C_4
REMARK    2  A    between atoms: O_1  and  C_9
REMARK    3  A    between atoms: C_3  and  C_4
REMARK    4  A    between atoms: C_3  and  C_5
REMARK    5  A    between atoms: C_6  and  C_7
REMARK    6  A    between atoms: C_6  and  C_8
REMARK    7  A    between atoms: C_9  and  C_10
REMARK                            x       y       z     vdW  Elec       q    Type
REMARK                         _______ _______ _______ _____ _____    ______ ____
ROOT
ATOM      1  C   UNL     1      16.263  -4.618  -2.137  0.00  0.00    +0.000 C 
ATOM      2  H   UNL     1      16.441  -4.577  -1.055  0.00  0.00    +0.000 HD
ATOM      3  H   UNL     1      15.748  -3.690  -2.394  0.00  0.00    +0.000 HD
ENDROOT
BRANCH   1   4
ATOM      4  C   UNL     1      15.448  -5.846  -2.426  0.00  0.00    +0.000 C 
ATOM      5  C   UNL     1      15.124  -6.762  -1.500  0.00  0.00    +0.000 C 
ATOM      6  H   UNL     1      15.118  -6.000  -3.450  0.00  0.00    +0.000 HD
ATOM      7  H   UNL     1      14.547  -7.632  -1.804  0.00  0.00    +0.000 HD
BRANCH   5   8
ATOM      8  C   UNL     1      15.535  -6.674  -0.061  0.00  0.00    +0.000 C 
ATOM      9  H   UNL     1      15.760  -5.651   0.253  0.00  0.00    +0.000 HD
ATOM     10  H   UNL     1      14.678  -6.979   0.552  0.00  0.00    +0.000 HD
BRANCH   8  11
ATOM     11  C   UNL     1      16.705  -7.601   0.238  0.00  0.00    +0.000 C 
ATOM     12  H   UNL     1      17.520  -7.415  -0.470  0.00  0.00    +0.000 HD
ATOM     13  H   UNL     1      16.415  -8.653   0.149  0.00  0.00    +0.000 HD
ATOM     14  H   UNL     1      17.094  -7.437   1.248  0.00  0.00    +0.000 HD
ENDBRANCH   8  11
ENDBRANCH   5   8
ENDBRANCH   1   4
BRANCH   1  15
ATOM     15  C   UNL     1      17.607  -4.652  -2.853  0.00  0.00    +0.000 C 
ATOM     16  H   UNL     1      17.534  -4.087  -3.790  0.00  0.00    +0.000 HD
ATOM     17  H   UNL     1      18.383  -4.193  -2.227  0.00  0.00    +0.000 HD
BRANCH  15  18
ATOM     18  O   UNL     1      17.963  -5.998  -3.140  0.00  0.00    +0.000 OA
BRANCH  18  20
ATOM     19  O   UNL     1      19.749  -5.948  -4.604  0.00  0.00    +0.000 OA
ATOM     20  C   UNL     1      18.582  -6.209  -4.341  0.00  0.00    +0.000 C 
BRANCH  20  21
ATOM     21  C   UNL     1      17.618  -6.816  -5.313  0.00  0.00    +0.000 C 
ATOM     22  H   UNL     1      17.593  -7.901  -5.180  0.00  0.00    +0.000 HD
ATOM     23  H   UNL     1      17.910  -6.560  -6.334  0.00  0.00    +0.000 HD
ATOM     24  H   UNL     1      16.616  -6.419  -5.127  0.00  0.00    +0.000 HD
ENDBRANCH  20  21
ENDBRANCH  18  20
ENDBRANCH  15  18
ENDBRANCH   1  15
TORSDOF 7
ENDMDL
MODEL 2
REMARK VINA RESULT:    -4.074      1.562      2.222
REMARK INTER + INTRA:          -6.010
REMARK INTER:                  -5.408
REMARK INTRA:                  -0.602
REMARK UNBOUND:                -0.507
REMARK  Name = 5363388
REMARK  7 active torsions:
REMARK  status: ('A' for Active; 'I' for Inactive)
REMARK    1  A    between atoms: O_1  and  C_4
REMARK    2  A    between atoms: O_1  and  C_9
REMARK    3  A    between atoms: C_3  and  C_4
REMARK    4  A    between atoms: C_3  and  C_5
REMARK    5  A    between atoms: C_6  and  C_7
REMARK    6  A    between atoms: C_6  and  C_8
REMARK    7  A    between atoms: C_9  and  C_10
REMARK                            x       y       z     vdW  Elec       q    Type
REMARK                         _______ _______ _______ _____ _____    ______ ____
ROOT
ATOM      1  C   UNL     1      18.094  -3.481  -2.425  0.00  0.00    +0.000 C 
ATOM      2  H   UNL     1      18.239  -2.413  -2.221  0.00  0.00    +0.000 HD
ATOM      3  H   UNL     1      17.425  -3.537  -3.288  0.00  0.00    +0.000 HD
ENDROOT
BRANCH   1   4
ATOM      4  C   UNL     1      17.521  -4.115  -1.190  0.00  0.00    +0.000 C 
ATOM      5  C   UNL     1      16.408  -4.865  -1.184  0.00  0.00    +0.000 C 
ATOM      6  H   UNL     1      18.037  -3.939  -0.250  0.00  0.00    +0.000 HD
ATOM      7  H   UNL     1      16.054  -5.268  -0.238  0.00  0.00    +0.000 HD
BRANCH   5   8
ATOM      8  C   UNL     1      15.597  -5.164  -2.409  0.00  0.00    +0.000 C 
ATOM      9  H   UNL     1      14.750  -4.483  -2.533  0.00  0.00    +0.000 HD
ATOM     10  H   UNL     1      16.234  -4.988  -3.285  0.00  0.00    +0.000 HD
BRANCH   8  11
ATOM     11  C   UNL     1      15.131  -6.612  -2.424  0.00  0.00    +0.000 C 
ATOM     12  H   UNL     1      14.617  -6.831  -3.366  0.00  0.00    +0.000 HD
ATOM     13  H   UNL     1      14.434  -6.817  -1.605  0.00  0.00    +0.000 HD
ATOM     14  H   UNL     1      15.976  -7.303  -2.335  0.00  0.00    +0.000 HD
ENDBRANCH   8  11
ENDBRANCH   5   8
ENDBRANCH   1   4
BRANCH   1  15
ATOM     15  C   UNL     1      19.437  -4.093  -2.802  0.00  0.00    +0.000 C 
ATOM     16  H   UNL     1      20.165  -3.293  -2.976  0.00  0.00    +0.000 HD
ATOM     17  H   UNL     1      19.805  -4.732  -1.989  0.00  0.00    +0.000 HD
BRANCH  15  18
ATOM     18  O   UNL     1      19.294  -4.867  -3.987  0.00  0.00    +0.000 OA
BRANCH  18  20
ATOM     19  O   UNL     1      19.400  -6.918  -2.929  0.00  0.00    +0.000 OA
ATOM     20  C   UNL     1      18.964  -6.182  -3.804  0.00  0.00    +0.000 C 
BRANCH  20  21
ATOM     21  C   UNL     1      17.973  -6.608  -4.843  0.00  0.00    +0.000 C 
ATOM     22  H   UNL     1      17.872  -7.697  -4.833  0.00  0.00    +0.000 HD
ATOM     23  H   UNL     1      18.295  -6.260  -5.828  0.00  0.00    +0.000 HD
ATOM     24  H   UNL     1      16.998  -6.166  -4.618  0.00  0.00    +0.000 HD
ENDBRANCH  20  21
ENDBRANCH  18  20
ENDBRANCH  15  18
ENDBRANCH   1  15
TORSDOF 7
ENDMDL
MODEL 3
REMARK VINA RESULT:    -3.886      2.006      4.277
REMARK INTER + INTRA:          -5.755
REMARK INTER:                  -5.130
REMARK INTRA:                  -0.625
REMARK UNBOUND:                -0.507
REMARK  Name = 5363388
REMARK  7 active torsions:
REMARK  status: ('A' for Active; 'I' for Inactive)
REMARK    1  A    between atoms: O_1  and  C_4
REMARK    2  A    between atoms: O_1  and  C_9
REMARK    3  A    between atoms: C_3  and  C_4
REMARK    4  A    between atoms: C_3  and  C_5
REMARK    5  A    between atoms: C_6  and  C_7
REMARK    6  A    between atoms: C_6  and  C_8
REMARK    7  A    between atoms: C_9  and  C_10
REMARK                            x       y       z     vdW  Elec       q    Type
REMARK                         _______ _______ _______ _____ _____    ______ ____
ROOT
ATOM      1  C   UNL     1      19.159  -5.849  -1.580  0.00  0.00    +0.000 C 
ATOM      2  H   UNL     1      19.980  -5.616  -0.891  0.00  0.00    +0.000 HD
ATOM      3  H   UNL     1      19.253  -6.913  -1.813  0.00  0.00    +0.000 HD
ENDROOT
BRANCH   1   4
ATOM      4  C   UNL     1      19.299  -4.965  -2.786  0.00  0.00    +0.000 C 
ATOM      5  C   UNL     1      19.068  -5.373  -4.043  0.00  0.00    +0.000 C 
ATOM      6  H   UNL     1      19.621  -3.939  -2.621  0.00  0.00    +0.000 HD
ATOM      7  H   UNL     1      19.215  -4.669  -4.858  0.00  0.00    +0.000 HD
BRANCH   5   8
ATOM      8  C   UNL     1      18.638  -6.765  -4.401  0.00  0.00    +0.000 C 
ATOM      9  H   UNL     1      19.461  -7.376  -4.782  0.00  0.00    +0.000 HD
ATOM     10  H   UNL     1      18.315  -7.264  -3.480  0.00  0.00    +0.000 HD
BRANCH   8  11
ATOM     11  C   UNL     1      17.478  -6.749  -5.385  0.00  0.00    +0.000 C 
ATOM     12  H   UNL     1      17.579  -5.902  -6.072  0.00  0.00    +0.000 HD
ATOM     13  H   UNL     1      16.517  -6.650  -4.868  0.00  0.00    +0.000 HD
ATOM     14  H   UNL     1      17.452  -7.666  -5.984  0.00  0.00    +0.000 HD
ENDBRANCH   8  11
ENDBRANCH   5   8
ENDBRANCH   1   4
BRANCH   1  15
ATOM     15  C   UNL     1      17.836  -5.616  -0.861  0.00  0.00    +0.000 C 
ATOM     16  H   UNL     1      17.988  -5.715   0.220  0.00  0.00    +0.000 HD
ATOM     17  H   UNL     1      17.461  -4.607  -1.072  0.00  0.00    +0.000 HD
BRANCH  15  18
ATOM     18  O   UNL     1      16.881  -6.577  -1.293  0.00  0.00    +0.000 OA
BRANCH  18  20
ATOM     19  O   UNL     1      15.009  -6.729  -2.638  0.00  0.00    +0.000 OA
ATOM     20  C   UNL     1      15.796  -6.080  -1.960  0.00  0.00    +0.000 C 
BRANCH  20  21
ATOM     21  C   UNL     1      15.697  -4.601  -1.744  0.00  0.00    +0.000 C 
ATOM     22  H   UNL     1      16.684  -4.144  -1.859  0.00  0.00    +0.000 HD
ATOM     23  H   UNL     1      15.292  -4.398  -0.750  0.00  0.00    +0.000 HD
ATOM     24  H   UNL     1      15.024  -4.169  -2.491  0.00  0.00    +0.000 HD
ENDBRANCH  20  21
ENDBRANCH  18  20
ENDBRANCH  15  18
ENDBRANCH   1  15
TORSDOF 7
ENDMDL
MODEL 4
REMARK VINA RESULT:    -3.808     24.969     26.497
REMARK INTER + INTRA:          -5.651
REMARK INTER:                  -5.017
REMARK INTRA:                  -0.634
REMARK UNBOUND:                -0.507
REMARK  Name = 5363388
REMARK  7 active torsions:
REMARK  status: ('A' for Active; 'I' for Inactive)
REMARK    1  A    between atoms: O_1  and  C_4
REMARK    2  A    between atoms: O_1  and  C_9
REMARK    3  A    between atoms: C_3  and  C_4
REMARK    4  A    between atoms: C_3  and  C_5
REMARK    5  A    between atoms: C_6  and  C_7
REMARK    6  A    between atoms: C_6  and  C_8
REMARK    7  A    between atoms: C_9  and  C_10
REMARK                            x       y       z     vdW  Elec       q    Type
REMARK                         _______ _______ _______ _____ _____    ______ ____
ROOT
ATOM      1  C   UNL     1      -7.294 -13.575   3.421  0.00  0.00    +0.000 C 
ATOM      2  H   UNL     1      -7.666 -12.894   2.645  0.00  0.00    +0.000 HD
ATOM      3  H   UNL     1      -7.887 -14.489   3.329  0.00  0.00    +0.000 HD
ENDROOT
BRANCH   1   4
ATOM      4  C   UNL     1      -7.458 -12.895   4.750  0.00  0.00    +0.000 C 
ATOM      5  C   UNL     1      -8.082 -13.450   5.801  0.00  0.00    +0.000 C 
ATOM      6  H   UNL     1      -7.057 -11.890   4.853  0.00  0.00    +0.000 HD
ATOM      7  H   UNL     1      -8.171 -12.876   6.720  0.00  0.00    +0.000 HD
BRANCH   5   8
ATOM      8  C   UNL     1      -8.693 -14.820   5.780  0.00  0.00    +0.000 C 
ATOM      9  H   UNL     1      -9.776 -14.797   5.633  0.00  0.00    +0.000 HD
ATOM     10  H   UNL     1      -8.297 -15.350   4.905  0.00  0.00    +0.000 HD
BRANCH   8  11
ATOM     11  C   UNL     1      -8.334 -15.604   7.033  0.00  0.00    +0.000 C 
ATOM     12  H   UNL     1      -8.255 -16.671   6.798  0.00  0.00    +0.000 HD
ATOM     13  H   UNL     1      -9.096 -15.486   7.811  0.00  0.00    +0.000 HD
ATOM     14  H   UNL     1      -7.372 -15.280   7.444  0.00  0.00    +0.000 HD
ENDBRANCH   8  11
ENDBRANCH   5   8
ENDBRANCH   1   4
BRANCH   1  15
ATOM     15  C   UNL     1      -5.835 -13.901   3.129  0.00  0.00    +0.000 C 
ATOM     16  H   UNL     1      -5.520 -13.375   2.221  0.00  0.00    +0.000 HD
ATOM     17  H   UNL     1      -5.200 -13.574   3.963  0.00  0.00    +0.000 HD
BRANCH  15  18
ATOM     18  O   UNL     1      -5.687 -15.302   2.940  0.00  0.00    +0.000 OA
BRANCH  18  20
ATOM     19  O   UNL     1      -6.355 -17.022   4.330  0.00  0.00    +0.000 OA
ATOM     20  C   UNL     1      -5.645 -16.057   4.080  0.00  0.00    +0.000 C 
BRANCH  20  21
ATOM     21  C   UNL     1      -4.590 -15.529   5.003  0.00  0.00    +0.000 C 
ATOM     22  H   UNL     1      -3.811 -15.024   4.424  0.00  0.00    +0.000 HD
ATOM     23  H   UNL     1      -4.165 -16.349   5.587  0.00  0.00    +0.000 HD
ATOM     24  H   UNL     1      -5.037 -14.806   5.690  0.00  0.00    +0.000 HD
ENDBRANCH  20  21
ENDBRANCH  18  20
ENDBRANCH  15  18
ENDBRANCH   1  15
TORSDOF 7
ENDMDL
MODEL 5
REMARK VINA RESULT:    -3.680     23.108     24.170
REMARK INTER + INTRA:          -5.477
REMARK INTER:                  -5.289
REMARK INTRA:                  -0.188
REMARK UNBOUND:                -0.507
REMARK  Name = 5363388
REMARK  7 active torsions:
REMARK  status: ('A' for Active; 'I' for Inactive)
REMARK    1  A    between atoms: O_1  and  C_4
REMARK    2  A    between atoms: O_1  and  C_9
REMARK    3  A    between atoms: C_3  and  C_4
REMARK    4  A    between atoms: C_3  and  C_5
REMARK    5  A    between atoms: C_6  and  C_7
REMARK    6  A    between atoms: C_6  and  C_8
REMARK    7  A    between atoms: C_9  and  C_10
REMARK                            x       y       z     vdW  Elec       q    Type
REMARK                         _______ _______ _______ _____ _____    ______ ____
ROOT
ATOM      1  C   UNL     1       4.564   4.373 -19.965  0.00  0.00    +0.000 C 
ATOM      2  H   UNL     1       4.432   3.395 -19.486  0.00  0.00    +0.000 HD
ATOM      3  H   UNL     1       5.222   4.205 -20.821  0.00  0.00    +0.000 HD
ENDROOT
BRANCH   1   4
ATOM      4  C   UNL     1       5.147   5.313 -18.948  0.00  0.00    +0.000 C 
ATOM      5  C   UNL     1       6.167   4.995 -18.137  0.00  0.00    +0.000 C 
ATOM      6  H   UNL     1       4.699   6.300 -18.862  0.00  0.00    +0.000 HD
ATOM      7  H   UNL     1       6.512   5.732 -17.416  0.00  0.00    +0.000 HD
BRANCH   5   8
ATOM      8  C   UNL     1       6.855   3.662 -18.145  0.00  0.00    +0.000 C 
ATOM      9  H   UNL     1       6.891   3.199 -17.155  0.00  0.00    +0.000 HD
ATOM     10  H   UNL     1       6.255   2.979 -18.758  0.00  0.00    +0.000 HD
BRANCH   8  11
ATOM     11  C   UNL     1       8.250   3.763 -18.745  0.00  0.00    +0.000 C 
ATOM     12  H   UNL     1       8.533   4.815 -18.860  0.00  0.00    +0.000 HD
ATOM     13  H   UNL     1       8.296   3.292 -19.732  0.00  0.00    +0.000 HD
ATOM     14  H   UNL     1       8.995   3.284 -18.101  0.00  0.00    +0.000 HD
ENDBRANCH   8  11
ENDBRANCH   5   8
ENDBRANCH   1   4
BRANCH   1  15
ATOM     15  C   UNL     1       3.211   4.858 -20.470  0.00  0.00    +0.000 C 
ATOM     16  H   UNL     1       2.904   5.741 -19.897  0.00  0.00    +0.000 HD
ATOM     17  H   UNL     1       3.278   5.133 -21.531  0.00  0.00    +0.000 HD
BRANCH  15  18
ATOM     18  O   UNL     1       2.243   3.829 -20.307  0.00  0.00    +0.000 OA
BRANCH  18  20
ATOM     19  O   UNL     1       0.737   5.335 -19.414  0.00  0.00    +0.000 OA
ATOM     20  C   UNL     1       1.013   4.231 -19.865  0.00  0.00    +0.000 C 
BRANCH  20  21
ATOM     21  C   UNL     1       0.027   3.113 -20.013  0.00  0.00    +0.000 C 
ATOM     22  H   UNL     1       0.546   2.200 -20.317  0.00  0.00    +0.000 HD
ATOM     23  H   UNL     1      -0.735   3.386 -20.747  0.00  0.00    +0.000 HD
ATOM     24  H   UNL     1      -0.463   2.932 -19.052  0.00  0.00    +0.000 HD
ENDBRANCH  20  21
ENDBRANCH  18  20
ENDBRANCH  15  18
ENDBRANCH   1  15
TORSDOF 7
ENDMDL
MODEL 6
REMARK VINA RESULT:    -3.673     26.709     28.003
REMARK INTER + INTRA:          -5.468
REMARK INTER:                  -5.185
REMARK INTRA:                  -0.283
REMARK UNBOUND:                -0.507
REMARK  Name = 5363388
REMARK  7 active torsions:
REMARK  status: ('A' for Active; 'I' for Inactive)
REMARK    1  A    between atoms: O_1  and  C_4
REMARK    2  A    between atoms: O_1  and  C_9
REMARK    3  A    between atoms: C_3  and  C_4
REMARK    4  A    between atoms: C_3  and  C_5
REMARK    5  A    between atoms: C_6  and  C_7
REMARK    6  A    between atoms: C_6  and  C_8
REMARK    7  A    between atoms: C_9  and  C_10
REMARK                            x       y       z     vdW  Elec       q    Type
REMARK                         _______ _______ _______ _____ _____    ______ ____
ROOT
ATOM      1  C   UNL     1      11.071  19.190 -11.484  0.00  0.00    +0.000 C 
ATOM      2  H   UNL     1      10.130  18.673 -11.257  0.00  0.00    +0.000 HD
ATOM      3  H   UNL     1      11.349  18.882 -12.495  0.00  0.00    +0.000 HD
ENDROOT
BRANCH   1   4
ATOM      4  C   UNL     1      12.081  18.790 -10.446  0.00  0.00    +0.000 C 
ATOM      5  C   UNL     1      13.126  17.986 -10.692  0.00  0.00    +0.000 C 
ATOM      6  H   UNL     1      11.939  19.169  -9.437  0.00  0.00    +0.000 HD
ATOM      7  H   UNL     1      13.796  17.733  -9.874  0.00  0.00    +0.000 HD
BRANCH   5   8
ATOM      8  C   UNL     1      13.418  17.385 -12.035  0.00  0.00    +0.000 C 
ATOM      9  H   UNL     1      12.966  17.948 -12.856  0.00  0.00    +0.000 HD
ATOM     10  H   UNL     1      14.500  17.452 -12.204  0.00  0.00    +0.000 HD
BRANCH   8  11
ATOM     11  C   UNL     1      13.002  15.923 -12.089  0.00  0.00    +0.000 C 
ATOM     12  H   UNL     1      11.964  15.840 -12.428  0.00  0.00    +0.000 HD
ATOM     13  H   UNL     1      13.072  15.450 -11.103  0.00  0.00    +0.000 HD
ATOM     14  H   UNL     1      13.628  15.356 -12.786  0.00  0.00    +0.000 HD
ENDBRANCH   8  11
ENDBRANCH   5   8
ENDBRANCH   1   4
BRANCH   1  15
ATOM     15  C   UNL     1      10.819  20.692 -11.476  0.00  0.00    +0.000 C 
ATOM     16  H   UNL     1      11.411  21.164 -12.269  0.00  0.00    +0.000 HD
ATOM     17  H   UNL     1       9.757  20.900 -11.660  0.00  0.00    +0.000 HD
BRANCH  15  18
ATOM     18  O   UNL     1      11.197  21.234 -10.217  0.00  0.00    +0.000 OA
BRANCH  18  20
ATOM     19  O   UNL     1       9.016  21.614  -9.559  0.00  0.00    +0.000 OA
ATOM     20  C   UNL     1      10.210  21.880  -9.525  0.00  0.00    +0.000 C 
BRANCH  20  21
ATOM     21  C   UNL     1      10.802  22.981  -8.700  0.00  0.00    +0.000 C 
ATOM     22  H   UNL     1      10.057  23.356  -7.993  0.00  0.00    +0.000 HD
ATOM     23  H   UNL     1      11.154  23.784  -9.351  0.00  0.00    +0.000 HD
ATOM     24  H   UNL     1      11.654  22.592  -8.133  0.00  0.00    +0.000 HD
ENDBRANCH  20  21
ENDBRANCH  18  20
ENDBRANCH  15  18
ENDBRANCH   1  15
TORSDOF 7
ENDMDL
MODEL 7
REMARK VINA RESULT:    -3.630      2.128      4.383
REMARK INTER + INTRA:          -5.410
REMARK INTER:                  -4.985
REMARK INTRA:                  -0.425
REMARK UNBOUND:                -0.507
REMARK  Name = 5363388
REMARK  7 active torsions:
REMARK  status: ('A' for Active; 'I' for Inactive)
REMARK    1  A    between atoms: O_1  and  C_4
REMARK    2  A    between atoms: O_1  and  C_9
REMARK    3  A    between atoms: C_3  and  C_4
REMARK    4  A    between atoms: C_3  and  C_5
REMARK    5  A    between atoms: C_6  and  C_7
REMARK    6  A    between atoms: C_6  and  C_8
REMARK    7  A    between atoms: C_9  and  C_10
REMARK                            x       y       z     vdW  Elec       q    Type
REMARK                         _______ _______ _______ _____ _____    ______ ____
ROOT
ATOM      1  C   UNL     1      16.928  -4.652  -2.754  0.00  0.00    +0.000 C 
ATOM      2  H   UNL     1      16.460  -3.804  -3.269  0.00  0.00    +0.000 HD
ATOM      3  H   UNL     1      17.979  -4.384  -2.624  0.00  0.00    +0.000 HD
ENDROOT
BRANCH   1   4
ATOM      4  C   UNL     1      16.731  -5.876  -3.603  0.00  0.00    +0.000 C 
ATOM      5  C   UNL     1      17.712  -6.465  -4.304  0.00  0.00    +0.000 C 
ATOM      6  H   UNL     1      15.728  -6.293  -3.657  0.00  0.00    +0.000 HD
ATOM      7  H   UNL     1      17.473  -7.336  -4.908  0.00  0.00    +0.000 HD
BRANCH   5   8
ATOM      8  C   UNL     1      19.129  -5.975  -4.327  0.00  0.00    +0.000 C 
ATOM      9  H   UNL     1      19.522  -5.865  -5.342  0.00  0.00    +0.000 HD
ATOM     10  H   UNL     1      19.141  -4.962  -3.905  0.00  0.00    +0.000 HD
BRANCH   8  11
ATOM     11  C   UNL     1      20.036  -6.866  -3.491  0.00  0.00    +0.000 C 
ATOM     12  H   UNL     1      19.491  -7.761  -3.172  0.00  0.00    +0.000 HD
ATOM     13  H   UNL     1      20.387  -6.348  -2.593  0.00  0.00    +0.000 HD
ATOM     14  H   UNL     1      20.911  -7.191  -4.063  0.00  0.00    +0.000 HD
ENDBRANCH   8  11
ENDBRANCH   5   8
ENDBRANCH   1   4
BRANCH   1  15
ATOM     15  C   UNL     1      16.284  -4.808  -1.382  0.00  0.00    +0.000 C 
ATOM     16  H   UNL     1      17.058  -4.749  -0.609  0.00  0.00    +0.000 HD
ATOM     17  H   UNL     1      15.555  -4.005  -1.212  0.00  0.00    +0.000 HD
BRANCH  15  18
ATOM     18  O   UNL     1      15.630  -6.068  -1.301  0.00  0.00    +0.000 OA
BRANCH  18  20
ATOM     19  O   UNL     1      15.052  -7.081   0.692  0.00  0.00    +0.000 OA
ATOM     20  C   UNL     1      15.874  -6.794  -0.168  0.00  0.00    +0.000 C 
BRANCH  20  21
ATOM     21  C   UNL     1      17.315  -7.200  -0.122  0.00  0.00    +0.000 C 
ATOM     22  H   UNL     1      17.827  -6.657   0.677  0.00  0.00    +0.000 HD
ATOM     23  H   UNL     1      17.787  -7.001  -1.087  0.00  0.00    +0.000 HD
ATOM     24  H   UNL     1      17.384  -8.272   0.086  0.00  0.00    +0.000 HD
ENDBRANCH  20  21
ENDBRANCH  18  20
ENDBRANCH  15  18
ENDBRANCH   1  15
TORSDOF 7
ENDMDL
MODEL 8
REMARK VINA RESULT:    -3.622     12.498     14.246
REMARK INTER + INTRA:          -5.399
REMARK INTER:                  -4.885
REMARK INTRA:                  -0.514
REMARK UNBOUND:                -0.507
REMARK  Name = 5363388
REMARK  7 active torsions:
REMARK  status: ('A' for Active; 'I' for Inactive)
REMARK    1  A    between atoms: O_1  and  C_4
REMARK    2  A    between atoms: O_1  and  C_9
REMARK    3  A    between atoms: C_3  and  C_4
REMARK    4  A    between atoms: C_3  and  C_5
REMARK    5  A    between atoms: C_6  and  C_7
REMARK    6  A    between atoms: C_6  and  C_8
REMARK    7  A    between atoms: C_9  and  C_10
REMARK                            x       y       z     vdW  Elec       q    Type
REMARK                         _______ _______ _______ _____ _____    ______ ____
ROOT
ATOM      1  C   UNL     1      15.334   5.888  -2.307  0.00  0.00    +0.000 C 
ATOM      2  H   UNL     1      16.288   6.121  -1.817  0.00  0.00    +0.000 HD
ATOM      3  H   UNL     1      15.527   5.024  -2.948  0.00  0.00    +0.000 HD
ENDROOT
BRANCH   1   4
ATOM      4  C   UNL     1      14.896   7.105  -3.071  0.00  0.00    +0.000 C 
ATOM      5  C   UNL     1      15.572   8.264  -3.080  0.00  0.00    +0.000 C 
ATOM      6  H   UNL     1      13.970   7.036  -3.635  0.00  0.00    +0.000 HD
ATOM      7  H   UNL     1      15.169   9.101  -3.645  0.00  0.00    +0.000 HD
BRANCH   5   8
ATOM      8  C   UNL     1      16.850   8.490  -2.328  0.00  0.00    +0.000 C 
ATOM      9  H   UNL     1      16.841   9.417  -1.748  0.00  0.00    +0.000 HD
ATOM     10  H   UNL     1      16.948   7.690  -1.584  0.00  0.00    +0.000 HD
BRANCH   8  11
ATOM     11  C   UNL     1      18.053   8.446  -3.258  0.00  0.00    +0.000 C 
ATOM     12  H   UNL     1      18.254   7.413  -3.562  0.00  0.00    +0.000 HD
ATOM     13  H   UNL     1      18.952   8.833  -2.767  0.00  0.00    +0.000 HD
ATOM     14  H   UNL     1      17.877   9.035  -4.164  0.00  0.00    +0.000 HD
ENDBRANCH   8  11
ENDBRANCH   5   8
ENDBRANCH   1   4
BRANCH   1  15
ATOM     15  C   UNL     1      14.320   5.495  -1.241  0.00  0.00    +0.000 C 
ATOM     16  H   UNL     1      13.326   5.852  -1.536  0.00  0.00    +0.000 HD
ATOM     17  H   UNL     1      14.284   4.404  -1.135  0.00  0.00    +0.000 HD
BRANCH  15  18
ATOM     18  O   UNL     1      14.682   6.081   0.003  0.00  0.00    +0.000 OA
BRANCH  18  20
ATOM     19  O   UNL     1      12.728   6.467   1.172  0.00  0.00    +0.000 OA
ATOM     20  C   UNL     1      13.729   6.866   0.593  0.00  0.00    +0.000 C 
BRANCH  20  21
ATOM     21  C   UNL     1      14.086   8.311   0.430  0.00  0.00    +0.000 C 
ATOM     22  H   UNL     1      15.149   8.405   0.189  0.00  0.00    +0.000 HD
ATOM     23  H   UNL     1      13.851   8.857   1.348  0.00  0.00    +0.000 HD
ATOM     24  H   UNL     1      13.504   8.739  -0.390  0.00  0.00    +0.000 HD
ENDBRANCH  20  21
ENDBRANCH  18  20
ENDBRANCH  15  18
ENDBRANCH   1  15
TORSDOF 7
ENDMDL
MODEL 9
REMARK VINA RESULT:    -3.553     22.397     23.503
REMARK INTER + INTRA:          -5.306
REMARK INTER:                  -5.092
REMARK INTRA:                  -0.214
REMARK UNBOUND:                -0.507
REMARK  Name = 5363388
REMARK  7 active torsions:
REMARK  status: ('A' for Active; 'I' for Inactive)
REMARK    1  A    between atoms: O_1  and  C_4
REMARK    2  A    between atoms: O_1  and  C_9
REMARK    3  A    between atoms: C_3  and  C_4
REMARK    4  A    between atoms: C_3  and  C_5
REMARK    5  A    between atoms: C_6  and  C_7
REMARK    6  A    between atoms: C_6  and  C_8
REMARK    7  A    between atoms: C_9  and  C_10
REMARK                            x       y       z     vdW  Elec       q    Type
REMARK                         _______ _______ _______ _____ _____    ______ ____
ROOT
ATOM      1  C   UNL     1       6.003   5.448 -18.384  0.00  0.00    +0.000 C 
ATOM      2  H   UNL     1       6.818   6.028 -18.834  0.00  0.00    +0.000 HD
ATOM      3  H   UNL     1       5.706   5.992 -17.483  0.00  0.00    +0.000 HD
ENDROOT
BRANCH   1   4
ATOM      4  C   UNL     1       6.522   4.068 -18.095  0.00  0.00    +0.000 C 
ATOM      5  C   UNL     1       7.745   3.642 -18.445  0.00  0.00    +0.000 C 
ATOM      6  H   UNL     1       5.854   3.377 -17.586  0.00  0.00    +0.000 HD
ATOM      7  H   UNL     1       8.029   2.618 -18.213  0.00  0.00    +0.000 HD
BRANCH   5   8
ATOM      8  C   UNL     1       8.749   4.491 -19.167  0.00  0.00    +0.000 C 
ATOM      9  H   UNL     1       8.943   4.142 -20.185  0.00  0.00    +0.000 HD
ATOM     10  H   UNL     1       8.318   5.492 -19.286  0.00  0.00    +0.000 HD
BRANCH   8  11
ATOM     11  C   UNL     1      10.045   4.605 -18.378  0.00  0.00    +0.000 C 
ATOM     12  H   UNL     1      10.825   3.996 -18.848  0.00  0.00    +0.000 HD
ATOM     13  H   UNL     1       9.919   4.255 -17.348  0.00  0.00    +0.000 HD
ATOM     14  H   UNL     1      10.401   5.640 -18.346  0.00  0.00    +0.000 HD
ENDBRANCH   8  11
ENDBRANCH   5   8
ENDBRANCH   1   4
BRANCH   1  15
ATOM     15  C   UNL     1       4.829   5.418 -19.353  0.00  0.00    +0.000 C 
ATOM     16  H   UNL     1       5.168   5.738 -20.345  0.00  0.00    +0.000 HD
ATOM     17  H   UNL     1       4.426   4.400 -19.431  0.00  0.00    +0.000 HD
BRANCH  15  18
ATOM     18  O   UNL     1       3.809   6.298 -18.896  0.00  0.00    +0.000 OA
BRANCH  18  20
ATOM     19  O   UNL     1       1.509   6.278 -19.099  0.00  0.00    +0.000 OA
ATOM     20  C   UNL     1       2.630   6.256 -19.587  0.00  0.00    +0.000 C 
BRANCH  20  21
ATOM     21  C   UNL     1       2.904   6.176 -21.058  0.00  0.00    +0.000 C 
ATOM     22  H   UNL     1       3.509   5.291 -21.275  0.00  0.00    +0.000 HD
ATOM     23  H   UNL     1       3.417   7.083 -21.389  0.00  0.00    +0.000 HD
ATOM     24  H   UNL     1       1.958   6.093 -21.599  0.00  0.00    +0.000 HD
ENDBRANCH  20  21
ENDBRANCH  18  20
ENDBRANCH  15  18
ENDBRANCH   1  15
TORSDOF 7
ENDMDL
MODEL 10
REMARK VINA RESULT:    -3.534     26.624     27.548
REMARK INTER + INTRA:          -5.280
REMARK INTER:                  -4.773
REMARK INTRA:                  -0.507
REMARK UNBOUND:                -0.507
REMARK  Name = 5363388
REMARK  7 active torsions:
REMARK  status: ('A' for Active; 'I' for Inactive)
REMARK    1  A    between atoms: O_1  and  C_4
REMARK    2  A    between atoms: O_1  and  C_9
REMARK    3  A    between atoms: C_3  and  C_4
REMARK    4  A    between atoms: C_3  and  C_5
REMARK    5  A    between atoms: C_6  and  C_7
REMARK    6  A    between atoms: C_6  and  C_8
REMARK    7  A    between atoms: C_9  and  C_10
REMARK                            x       y       z     vdW  Elec       q    Type
REMARK                         _______ _______ _______ _____ _____    ______ ____
ROOT
ATOM      1  C   UNL     1       0.604   3.240 -20.697  0.00  0.00    +0.000 C 
ATOM      2  H   UNL     1       1.032   2.270 -20.414  0.00  0.00    +0.000 HD
ATOM      3  H   UNL     1       1.274   3.657 -21.453  0.00  0.00    +0.000 HD
ENDROOT
BRANCH   1   4
ATOM      4  C   UNL     1       0.513   4.085 -19.458  0.00  0.00    +0.000 C 
ATOM      5  C   UNL     1       0.784   5.399 -19.428  0.00  0.00    +0.000 C 
ATOM      6  H   UNL     1       0.223   3.591 -18.534  0.00  0.00    +0.000 HD
ATOM      7  H   UNL     1       0.711   5.927 -18.481  0.00  0.00    +0.000 HD
BRANCH   5   8
ATOM      8  C   UNL     1       1.212   6.189 -20.629  0.00  0.00    +0.000 C 
ATOM      9  H   UNL     1       0.841   5.766 -21.567  0.00  0.00    +0.000 HD
ATOM     10  H   UNL     1       0.748   7.181 -20.561  0.00  0.00    +0.000 HD
BRANCH   8  11
ATOM     11  C   UNL     1       2.724   6.356 -20.671  0.00  0.00    +0.000 C 
ATOM     12  H   UNL     1       3.207   5.376 -20.754  0.00  0.00    +0.000 HD
ATOM     13  H   UNL     1       3.098   6.840 -19.764  0.00  0.00    +0.000 HD
ATOM     14  H   UNL     1       3.033   6.956 -21.533  0.00  0.00    +0.000 HD
ENDBRANCH   8  11
ENDBRANCH   5   8
ENDBRANCH   1   4
BRANCH   1  15
ATOM     15  C   UNL     1      -0.765   3.008 -21.323  0.00  0.00    +0.000 C 
ATOM     16  H   UNL     1      -0.817   1.984 -21.712  0.00  0.00    +0.000 HD
ATOM     17  H   UNL     1      -1.554   3.139 -20.572  0.00  0.00    +0.000 HD
BRANCH  15  18
ATOM     18  O   UNL     1      -0.965   3.929 -22.389  0.00  0.00    +0.000 OA
BRANCH  18  20
ATOM     19  O   UNL     1      -0.362   2.552 -24.143  0.00  0.00    +0.000 OA
ATOM     20  C   UNL     1      -0.331   3.630 -23.563  0.00  0.00    +0.000 C 
BRANCH  20  21
ATOM     21  C   UNL     1       0.424   4.827 -24.054  0.00  0.00    +0.000 C 
ATOM     22  H   UNL     1       1.498   4.619 -24.037  0.00  0.00    +0.000 HD
ATOM     23  H   UNL     1       0.190   5.694 -23.431  0.00  0.00    +0.000 HD
ATOM     24  H   UNL     1       0.127   5.046 -25.083  0.00  0.00    +0.000 HD
ENDBRANCH  20  21
ENDBRANCH  18  20
ENDBRANCH  15  18
ENDBRANCH   1  15
TORSDOF 7
ENDMDL
