MODEL 1
REMARK VINA RESULT:    -5.719      0.000      0.000
REMARK INTER + INTRA:          -6.897
REMARK INTER:                  -6.695
REMARK INTRA:                  -0.202
REMARK UNBOUND:                -0.175
REMARK  Name = 17100
REMARK  5 active torsions:
REMARK  status: ('A' for Active; 'I' for Inactive)
REMARK    1  A    between atoms: O_1  and  C_3
REMARK    2  A    between atoms: C_2  and  C_3
REMARK    3  A    between atoms: C_3  and  C_9
REMARK    4  A    between atoms: C_3  and  C_10
REMARK    5  A    between atoms: C_7  and  C_11
REMARK                            x       y       z     vdW  Elec       q    Type
REMARK                         _______ _______ _______ _____ _____    ______ ____
ROOT
ATOM      1  C   UNL     1       0.428  -2.042  -7.785  0.00  0.00    +0.000 C 
ATOM      2  C   UNL     1      -0.975  -2.512  -7.386  0.00  0.00    +0.000 C 
ATOM      3  C   UNL     1       0.967  -2.899  -8.941  0.00  0.00    +0.000 C 
ATOM      4  C   UNL     1      -0.964  -3.983  -6.954  0.00  0.00    +0.000 C 
ATOM      5  C   UNL     1      -0.135  -4.871  -7.848  0.00  0.00    +0.000 C 
ATOM      6  C   UNL     1       0.724  -4.368  -8.751  0.00  0.00    +0.000 C 
ATOM      7  H   UNL     1       1.087  -2.185  -6.916  0.00  0.00    +0.000 HD
ATOM      8  H   UNL     1      -1.671  -2.391  -8.225  0.00  0.00    +0.000 HD
ATOM      9  H   UNL     1      -1.381  -1.938  -6.547  0.00  0.00    +0.000 HD
ATOM     10  H   UNL     1       2.050  -2.755  -9.028  0.00  0.00    +0.000 HD
ATOM     11  H   UNL     1       0.524  -2.613  -9.903  0.00  0.00    +0.000 HD
ATOM     12  H   UNL     1      -1.999  -4.343  -6.928  0.00  0.00    +0.000 HD
ATOM     13  H   UNL     1      -0.572  -4.058  -5.932  0.00  0.00    +0.000 HD
ATOM     14  H   UNL     1       1.289  -5.040  -9.392  0.00  0.00    +0.000 HD
ENDROOT
BRANCH   5  15
ATOM     15  C   UNL     1      -0.322  -6.349  -7.667  0.00  0.00    +0.000 C 
ATOM     16  H   UNL     1      -0.189  -6.867  -8.623  0.00  0.00    +0.000 HD
ATOM     17  H   UNL     1      -1.320  -6.595  -7.289  0.00  0.00    +0.000 HD
ATOM     18  H   UNL     1       0.410  -6.740  -6.954  0.00  0.00    +0.000 HD
ENDBRANCH   5  15
BRANCH   1  19
ATOM     19  C   UNL     1       0.426  -0.562  -8.163  0.00  0.00    +0.000 C 
BRANCH  19  20
ATOM     20  C   UNL     1      -0.790  -0.220  -9.023  0.00  0.00    +0.000 C 
ATOM     21  H   UNL     1      -0.896   0.861  -9.163  0.00  0.00    +0.000 HD
ATOM     22  H   UNL     1      -1.710  -0.592  -8.557  0.00  0.00    +0.000 HD
ATOM     23  H   UNL     1      -0.748  -0.705 -10.004  0.00  0.00    +0.000 HD
ENDBRANCH  19  20
BRANCH  19  24
ATOM     24  C   UNL     1       1.718  -0.191  -8.890  0.00  0.00    +0.000 C 
ATOM     25  H   UNL     1       2.583  -0.750  -8.517  0.00  0.00    +0.000 HD
ATOM     26  H   UNL     1       1.633  -0.330  -9.972  0.00  0.00    +0.000 HD
ATOM     27  H   UNL     1       1.968   0.863  -8.710  0.00  0.00    +0.000 HD
ENDBRANCH  19  24
BRANCH  19  28
ATOM     28  O   UNL     1       0.369   0.214  -6.966  0.00  0.00    +0.000 OA
ATOM     29  H   UNL     1       0.668   1.115  -7.177  0.00  0.00    +0.000 HD
ENDBRANCH  19  28
ENDBRANCH   1  19
TORSDOF 5
ENDMDL
MODEL 2
REMARK VINA RESULT:    -4.964     15.672     17.994
REMARK INTER + INTRA:          -6.009
REMARK INTER:                  -5.853
REMARK INTRA:                  -0.156
REMARK UNBOUND:                -0.175
REMARK  Name = 17100
REMARK  5 active torsions:
REMARK  status: ('A' for Active; 'I' for Inactive)
REMARK    1  A    between atoms: O_1  and  C_3
REMARK    2  A    between atoms: C_2  and  C_3
REMARK    3  A    between atoms: C_3  and  C_9
REMARK    4  A    between atoms: C_3  and  C_10
REMARK    5  A    between atoms: C_7  and  C_11
REMARK                            x       y       z     vdW  Elec       q    Type
REMARK                         _______ _______ _______ _____ _____    ______ ____
ROOT
ATOM      1  C   UNL     1      -7.321 -14.127   2.575  0.00  0.00    +0.000 C 
ATOM      2  C   UNL     1      -7.401 -15.365   3.475  0.00  0.00    +0.000 C 
ATOM      3  C   UNL     1      -6.462 -13.041   3.241  0.00  0.00    +0.000 C 
ATOM      4  C   UNL     1      -8.005 -15.018   4.841  0.00  0.00    +0.000 C 
ATOM      5  C   UNL     1      -7.476 -13.734   5.429  0.00  0.00    +0.000 C 
ATOM      6  C   UNL     1      -6.768 -12.856   4.698  0.00  0.00    +0.000 C 
ATOM      7  H   UNL     1      -8.341 -13.734   2.458  0.00  0.00    +0.000 HD
ATOM      8  H   UNL     1      -6.403 -15.794   3.625  0.00  0.00    +0.000 HD
ATOM      9  H   UNL     1      -8.027 -16.151   3.042  0.00  0.00    +0.000 HD
ATOM     10  H   UNL     1      -6.639 -12.080   2.745  0.00  0.00    +0.000 HD
ATOM     11  H   UNL     1      -5.390 -13.257   3.154  0.00  0.00    +0.000 HD
ATOM     12  H   UNL     1      -7.809 -15.851   5.526  0.00  0.00    +0.000 HD
ATOM     13  H   UNL     1      -9.095 -14.931   4.744  0.00  0.00    +0.000 HD
ATOM     14  H   UNL     1      -6.386 -11.951   5.163  0.00  0.00    +0.000 HD
ENDROOT
BRANCH   5  15
ATOM     15  C   UNL     1      -7.790 -13.493   6.876  0.00  0.00    +0.000 C 
ATOM     16  H   UNL     1      -8.334 -14.346   7.294  0.00  0.00    +0.000 HD
ATOM     17  H   UNL     1      -8.407 -12.599   7.022  0.00  0.00    +0.000 HD
ATOM     18  H   UNL     1      -6.866 -13.356   7.448  0.00  0.00    +0.000 HD
ENDBRANCH   5  15
BRANCH   1  19
ATOM     19  C   UNL     1      -6.770 -14.484   1.196  0.00  0.00    +0.000 C 
BRANCH  19  20
ATOM     20  C   UNL     1      -7.076 -13.381   0.184  0.00  0.00    +0.000 C 
ATOM     21  H   UNL     1      -7.250 -12.417   0.674  0.00  0.00    +0.000 HD
ATOM     22  H   UNL     1      -7.971 -13.630  -0.399  0.00  0.00    +0.000 HD
ATOM     23  H   UNL     1      -6.275 -13.267  -0.554  0.00  0.00    +0.000 HD
ENDBRANCH  19  20
BRANCH  19  24
ATOM     24  C   UNL     1      -7.335 -15.821   0.720  0.00  0.00    +0.000 C 
ATOM     25  H   UNL     1      -6.552 -16.566   0.540  0.00  0.00    +0.000 HD
ATOM     26  H   UNL     1      -8.071 -16.227   1.421  0.00  0.00    +0.000 HD
ATOM     27  H   UNL     1      -7.834 -15.701  -0.250  0.00  0.00    +0.000 HD
ENDBRANCH  19  24
BRANCH  19  28
ATOM     28  O   UNL     1      -5.352 -14.628   1.295  0.00  0.00    +0.000 OA
ATOM     29  H   UNL     1      -4.969 -14.437   0.422  0.00  0.00    +0.000 HD
ENDBRANCH  19  28
ENDBRANCH   1  19
TORSDOF 5
ENDMDL
MODEL 3
REMARK VINA RESULT:    -4.961     13.775     14.492
REMARK INTER + INTRA:          -6.006
REMARK INTER:                  -5.798
REMARK INTRA:                  -0.208
REMARK UNBOUND:                -0.175
REMARK  Name = 17100
REMARK  5 active torsions:
REMARK  status: ('A' for Active; 'I' for Inactive)
REMARK    1  A    between atoms: O_1  and  C_3
REMARK    2  A    between atoms: C_2  and  C_3
REMARK    3  A    between atoms: C_3  and  C_9
REMARK    4  A    between atoms: C_3  and  C_10
REMARK    5  A    between atoms: C_7  and  C_11
REMARK                            x       y       z     vdW  Elec       q    Type
REMARK                         _______ _______ _______ _____ _____    ______ ____
ROOT
ATOM      1  C   UNL     1       1.218   3.316 -20.298  0.00  0.00    +0.000 C 
ATOM      2  C   UNL     1       2.277   2.402 -20.924  0.00  0.00    +0.000 C 
ATOM      3  C   UNL     1       1.619   4.789 -20.471  0.00  0.00    +0.000 C 
ATOM      4  C   UNL     1       3.650   2.625 -20.282  0.00  0.00    +0.000 C 
ATOM      5  C   UNL     1       3.991   4.079 -20.067  0.00  0.00    +0.000 C 
ATOM      6  C   UNL     1       3.066   5.048 -20.170  0.00  0.00    +0.000 C 
ATOM      7  H   UNL     1       1.182   3.095 -19.221  0.00  0.00    +0.000 HD
ATOM      8  H   UNL     1       2.352   2.589 -22.003  0.00  0.00    +0.000 HD
ATOM      9  H   UNL     1       2.035   1.342 -20.797  0.00  0.00    +0.000 HD
ATOM     10  H   UNL     1       1.027   5.412 -19.789  0.00  0.00    +0.000 HD
ATOM     11  H   UNL     1       1.424   5.149 -21.488  0.00  0.00    +0.000 HD
ATOM     12  H   UNL     1       4.409   2.154 -20.918  0.00  0.00    +0.000 HD
ATOM     13  H   UNL     1       3.684   2.115 -19.311  0.00  0.00    +0.000 HD
ATOM     14  H   UNL     1       3.354   6.087 -20.029  0.00  0.00    +0.000 HD
ENDROOT
BRANCH   5  15
ATOM     15  C   UNL     1       5.422   4.379 -19.731  0.00  0.00    +0.000 C 
ATOM     16  H   UNL     1       5.512   4.658 -18.676  0.00  0.00    +0.000 HD
ATOM     17  H   UNL     1       5.823   5.203 -20.330  0.00  0.00    +0.000 HD
ATOM     18  H   UNL     1       6.048   3.499 -19.913  0.00  0.00    +0.000 HD
ENDBRANCH   5  15
BRANCH   1  19
ATOM     19  C   UNL     1      -0.161   3.056 -20.900  0.00  0.00    +0.000 C 
BRANCH  19  20
ATOM     20  C   UNL     1      -0.187   1.722 -21.646  0.00  0.00    +0.000 C 
ATOM     21  H   UNL     1      -0.327   0.877 -20.963  0.00  0.00    +0.000 HD
ATOM     22  H   UNL     1       0.752   1.565 -22.190  0.00  0.00    +0.000 HD
ATOM     23  H   UNL     1      -0.971   1.696 -22.411  0.00  0.00    +0.000 HD
ENDBRANCH  19  20
BRANCH  19  24
ATOM     24  C   UNL     1      -0.567   4.198 -21.829  0.00  0.00    +0.000 C 
ATOM     25  H   UNL     1      -0.977   3.839 -22.779  0.00  0.00    +0.000 HD
ATOM     26  H   UNL     1      -1.285   4.876 -21.355  0.00  0.00    +0.000 HD
ATOM     27  H   UNL     1       0.311   4.792 -22.111  0.00  0.00    +0.000 HD
ENDBRANCH  19  24
BRANCH  19  28
ATOM     28  O   UNL     1      -1.118   3.003 -19.841  0.00  0.00    +0.000 OA
ATOM     29  H   UNL     1      -1.776   2.322 -20.065  0.00  0.00    +0.000 HD
ENDBRANCH  19  28
ENDBRANCH   1  19
TORSDOF 5
ENDMDL
MODEL 4
REMARK VINA RESULT:    -4.960     18.027     18.878
REMARK INTER + INTRA:          -6.005
REMARK INTER:                  -5.853
REMARK INTRA:                  -0.153
REMARK UNBOUND:                -0.175
REMARK  Name = 17100
REMARK  5 active torsions:
REMARK  status: ('A' for Active; 'I' for Inactive)
REMARK    1  A    between atoms: O_1  and  C_3
REMARK    2  A    between atoms: C_2  and  C_3
REMARK    3  A    between atoms: C_3  and  C_9
REMARK    4  A    between atoms: C_3  and  C_10
REMARK    5  A    between atoms: C_7  and  C_11
REMARK                            x       y       z     vdW  Elec       q    Type
REMARK                         _______ _______ _______ _____ _____    ______ ____
ROOT
ATOM      1  C   UNL     1      17.344  -5.859  -2.550  0.00  0.00    +0.000 C 
ATOM      2  C   UNL     1      17.375  -6.176  -4.050  0.00  0.00    +0.000 C 
ATOM      3  C   UNL     1      18.229  -4.640  -2.246  0.00  0.00    +0.000 C 
ATOM      4  C   UNL     1      18.804  -6.464  -4.524  0.00  0.00    +0.000 C 
ATOM      5  C   UNL     1      19.832  -5.511  -3.969  0.00  0.00    +0.000 C 
ATOM      6  C   UNL     1      19.554  -4.681  -2.948  0.00  0.00    +0.000 C 
ATOM      7  H   UNL     1      17.760  -6.727  -2.018  0.00  0.00    +0.000 HD
ATOM      8  H   UNL     1      16.970  -5.334  -4.626  0.00  0.00    +0.000 HD
ATOM      9  H   UNL     1      16.774  -7.055  -4.299  0.00  0.00    +0.000 HD
ATOM     10  H   UNL     1      18.430  -4.594  -1.170  0.00  0.00    +0.000 HD
ATOM     11  H   UNL     1      17.738  -3.699  -2.523  0.00  0.00    +0.000 HD
ATOM     12  H   UNL     1      18.817  -6.429  -5.620  0.00  0.00    +0.000 HD
ATOM     13  H   UNL     1      19.084  -7.484  -4.232  0.00  0.00    +0.000 HD
ATOM     14  H   UNL     1      20.315  -3.993  -2.589  0.00  0.00    +0.000 HD
ENDROOT
BRANCH   5  15
ATOM     15  C   UNL     1      21.183  -5.544  -4.620  0.00  0.00    +0.000 C 
ATOM     16  H   UNL     1      21.635  -6.535  -4.507  0.00  0.00    +0.000 HD
ATOM     17  H   UNL     1      21.870  -4.811  -4.183  0.00  0.00    +0.000 HD
ATOM     18  H   UNL     1      21.095  -5.321  -5.689  0.00  0.00    +0.000 HD
ENDBRANCH   5  15
BRANCH   1  19
ATOM     19  C   UNL     1      15.915  -5.625  -2.067  0.00  0.00    +0.000 C 
BRANCH  19  20
ATOM     20  C   UNL     1      15.889  -5.310  -0.571  0.00  0.00    +0.000 C 
ATOM     21  H   UNL     1      15.557  -6.170   0.019  0.00  0.00    +0.000 HD
ATOM     22  H   UNL     1      15.209  -4.475  -0.364  0.00  0.00    +0.000 HD
ATOM     23  H   UNL     1      16.867  -4.981  -0.205  0.00  0.00    +0.000 HD
ENDBRANCH  19  20
BRANCH  19  24
ATOM     24  C   UNL     1      15.037  -6.837  -2.374  0.00  0.00    +0.000 C 
ATOM     25  H   UNL     1      14.909  -7.492  -1.505  0.00  0.00    +0.000 HD
ATOM     26  H   UNL     1      14.054  -6.544  -2.757  0.00  0.00    +0.000 HD
ATOM     27  H   UNL     1      15.513  -7.471  -3.133  0.00  0.00    +0.000 HD
ENDBRANCH  19  24
BRANCH  19  28
ATOM     28  O   UNL     1      15.370  -4.511  -2.775  0.00  0.00    +0.000 OA
ATOM     29  H   UNL     1      14.597  -4.189  -2.281  0.00  0.00    +0.000 HD
ENDBRANCH  19  28
ENDBRANCH   1  19
TORSDOF 5
ENDMDL
MODEL 5
REMARK VINA RESULT:    -4.832     16.541     18.792
REMARK INTER + INTRA:          -5.855
REMARK INTER:                  -5.655
REMARK INTRA:                  -0.200
REMARK UNBOUND:                -0.175
REMARK  Name = 17100
REMARK  5 active torsions:
REMARK  status: ('A' for Active; 'I' for Inactive)
REMARK    1  A    between atoms: O_1  and  C_3
REMARK    2  A    between atoms: C_2  and  C_3
REMARK    3  A    between atoms: C_3  and  C_9
REMARK    4  A    between atoms: C_3  and  C_10
REMARK    5  A    between atoms: C_7  and  C_11
REMARK                            x       y       z     vdW  Elec       q    Type
REMARK                         _______ _______ _______ _____ _____    ______ ____
ROOT
ATOM      1  C   UNL     1      -6.269 -14.012   4.557  0.00  0.00    +0.000 C 
ATOM      2  C   UNL     1      -7.632 -13.463   4.992  0.00  0.00    +0.000 C 
ATOM      3  C   UNL     1      -6.339 -15.538   4.391  0.00  0.00    +0.000 C 
ATOM      4  C   UNL     1      -8.084 -14.090   6.316  0.00  0.00    +0.000 C 
ATOM      5  C   UNL     1      -7.849 -15.578   6.394  0.00  0.00    +0.000 C 
ATOM      6  C   UNL     1      -7.070 -16.222   5.508  0.00  0.00    +0.000 C 
ATOM      7  H   UNL     1      -5.549 -13.787   5.357  0.00  0.00    +0.000 HD
ATOM      8  H   UNL     1      -8.388 -13.667   4.224  0.00  0.00    +0.000 HD
ATOM      9  H   UNL     1      -7.612 -12.380   5.144  0.00  0.00    +0.000 HD
ATOM     10  H   UNL     1      -5.323 -15.950   4.363  0.00  0.00    +0.000 HD
ATOM     11  H   UNL     1      -6.829 -15.825   3.452  0.00  0.00    +0.000 HD
ATOM     12  H   UNL     1      -9.150 -13.873   6.454  0.00  0.00    +0.000 HD
ATOM     13  H   UNL     1      -7.548 -13.611   7.145  0.00  0.00    +0.000 HD
ATOM     14  H   UNL     1      -6.941 -17.299   5.585  0.00  0.00    +0.000 HD
ENDROOT
BRANCH   5  15
ATOM     15  C   UNL     1      -8.534 -16.296   7.519  0.00  0.00    +0.000 C 
ATOM     16  H   UNL     1      -9.404 -16.845   7.143  0.00  0.00    +0.000 HD
ATOM     17  H   UNL     1      -8.884 -15.608   8.296  0.00  0.00    +0.000 HD
ATOM     18  H   UNL     1      -7.849 -17.009   7.989  0.00  0.00    +0.000 HD
ENDBRANCH   5  15
BRANCH   1  19
ATOM     19  C   UNL     1      -5.794 -13.348   3.266  0.00  0.00    +0.000 C 
BRANCH  19  20
ATOM     20  C   UNL     1      -6.911 -13.321   2.223  0.00  0.00    +0.000 C 
ATOM     21  H   UNL     1      -6.990 -12.341   1.739  0.00  0.00    +0.000 HD
ATOM     22  H   UNL     1      -7.878 -13.547   2.687  0.00  0.00    +0.000 HD
ATOM     23  H   UNL     1      -6.774 -14.089   1.456  0.00  0.00    +0.000 HD
ENDBRANCH  19  20
BRANCH  19  24
ATOM     24  C   UNL     1      -4.562 -14.063   2.714  0.00  0.00    +0.000 C 
ATOM     25  H   UNL     1      -4.824 -14.880   2.032  0.00  0.00    +0.000 HD
ATOM     26  H   UNL     1      -3.879 -13.371   2.210  0.00  0.00    +0.000 HD
ATOM     27  H   UNL     1      -4.004 -14.546   3.526  0.00  0.00    +0.000 HD
ENDBRANCH  19  24
BRANCH  19  28
ATOM     28  O   UNL     1      -5.413 -12.003   3.560  0.00  0.00    +0.000 OA
ATOM     29  H   UNL     1      -5.254 -11.937   4.517  0.00  0.00    +0.000 HD
ENDBRANCH  19  28
ENDBRANCH   1  19
TORSDOF 5
ENDMDL
MODEL 6
REMARK VINA RESULT:    -4.794     16.608     18.888
REMARK INTER + INTRA:          -5.810
REMARK INTER:                  -5.627
REMARK INTRA:                  -0.183
REMARK UNBOUND:                -0.175
REMARK  Name = 17100
REMARK  5 active torsions:
REMARK  status: ('A' for Active; 'I' for Inactive)
REMARK    1  A    between atoms: O_1  and  C_3
REMARK    2  A    between atoms: C_2  and  C_3
REMARK    3  A    between atoms: C_3  and  C_9
REMARK    4  A    between atoms: C_3  and  C_10
REMARK    5  A    between atoms: C_7  and  C_11
REMARK                            x       y       z     vdW  Elec       q    Type
REMARK                         _______ _______ _______ _____ _____    ______ ____
ROOT
ATOM      1  C   UNL     1      -6.703 -14.520   3.947  0.00  0.00    +0.000 C 
ATOM      2  C   UNL     1      -5.774 -15.240   4.932  0.00  0.00    +0.000 C 
ATOM      3  C   UNL     1      -7.741 -13.685   4.712  0.00  0.00    +0.000 C 
ATOM      4  C   UNL     1      -6.565 -16.160   5.867  0.00  0.00    +0.000 C 
ATOM      5  C   UNL     1      -7.834 -15.541   6.397  0.00  0.00    +0.000 C 
ATOM      6  C   UNL     1      -8.347 -14.413   5.875  0.00  0.00    +0.000 C 
ATOM      7  H   UNL     1      -7.238 -15.290   3.371  0.00  0.00    +0.000 HD
ATOM      8  H   UNL     1      -5.218 -14.511   5.534  0.00  0.00    +0.000 HD
ATOM      9  H   UNL     1      -5.035 -15.865   4.421  0.00  0.00    +0.000 HD
ATOM     10  H   UNL     1      -8.560 -13.411   4.035  0.00  0.00    +0.000 HD
ATOM     11  H   UNL     1      -7.313 -12.751   5.094  0.00  0.00    +0.000 HD
ATOM     12  H   UNL     1      -5.914 -16.447   6.701  0.00  0.00    +0.000 HD
ATOM     13  H   UNL     1      -6.828 -17.082   5.332  0.00  0.00    +0.000 HD
ATOM     14  H   UNL     1      -9.252 -13.985   6.298  0.00  0.00    +0.000 HD
ENDROOT
BRANCH   5  15
ATOM     15  C   UNL     1      -8.491 -16.257   7.540  0.00  0.00    +0.000 C 
ATOM     16  H   UNL     1      -8.406 -15.666   8.458  0.00  0.00    +0.000 HD
ATOM     17  H   UNL     1      -8.037 -17.236   7.730  0.00  0.00    +0.000 HD
ATOM     18  H   UNL     1      -9.553 -16.419   7.327  0.00  0.00    +0.000 HD
ENDBRANCH   5  15
BRANCH   1  19
ATOM     19  C   UNL     1      -5.909 -13.645   2.980  0.00  0.00    +0.000 C 
BRANCH  19  20
ATOM     20  C   UNL     1      -5.507 -12.326   3.641  0.00  0.00    +0.000 C 
ATOM     21  H   UNL     1      -4.419 -12.228   3.721  0.00  0.00    +0.000 HD
ATOM     22  H   UNL     1      -5.928 -12.257   4.651  0.00  0.00    +0.000 HD
ATOM     23  H   UNL     1      -5.905 -11.460   3.103  0.00  0.00    +0.000 HD
ENDBRANCH  19  20
BRANCH  19  24
ATOM     24  C   UNL     1      -6.712 -13.383   1.707  0.00  0.00    +0.000 C 
ATOM     25  H   UNL     1      -6.635 -14.205   0.988  0.00  0.00    +0.000 HD
ATOM     26  H   UNL     1      -7.767 -13.185   1.923  0.00  0.00    +0.000 HD
ATOM     27  H   UNL     1      -6.314 -12.509   1.177  0.00  0.00    +0.000 HD
ENDBRANCH  19  24
BRANCH  19  28
ATOM     28  O   UNL     1      -4.722 -14.344   2.602  0.00  0.00    +0.000 OA
ATOM     29  H   UNL     1      -4.323 -13.874   1.850  0.00  0.00    +0.000 HD
ENDBRANCH  19  28
ENDBRANCH   1  19
TORSDOF 5
ENDMDL
MODEL 7
REMARK VINA RESULT:    -4.624     14.022     14.782
REMARK INTER + INTRA:          -5.610
REMARK INTER:                  -5.420
REMARK INTRA:                  -0.190
REMARK UNBOUND:                -0.175
REMARK  Name = 17100
REMARK  5 active torsions:
REMARK  status: ('A' for Active; 'I' for Inactive)
REMARK    1  A    between atoms: O_1  and  C_3
REMARK    2  A    between atoms: C_2  and  C_3
REMARK    3  A    between atoms: C_3  and  C_9
REMARK    4  A    between atoms: C_3  and  C_10
REMARK    5  A    between atoms: C_7  and  C_11
REMARK                            x       y       z     vdW  Elec       q    Type
REMARK                         _______ _______ _______ _____ _____    ______ ____
ROOT
ATOM      1  C   UNL     1       4.820   4.925 -19.065  0.00  0.00    +0.000 C 
ATOM      2  C   UNL     1       4.259   6.312 -19.401  0.00  0.00    +0.000 C 
ATOM      3  C   UNL     1       4.415   3.913 -20.148  0.00  0.00    +0.000 C 
ATOM      4  C   UNL     1       2.731   6.279 -19.508  0.00  0.00    +0.000 C 
ATOM      5  C   UNL     1       2.201   5.087 -20.265  0.00  0.00    +0.000 C 
ATOM      6  C   UNL     1       2.977   4.030 -20.560  0.00  0.00    +0.000 C 
ATOM      7  H   UNL     1       4.371   4.607 -18.112  0.00  0.00    +0.000 HD
ATOM      8  H   UNL     1       4.677   6.673 -20.349  0.00  0.00    +0.000 HD
ATOM      9  H   UNL     1       4.508   7.054 -18.636  0.00  0.00    +0.000 HD
ATOM     10  H   UNL     1       4.565   2.894 -19.770  0.00  0.00    +0.000 HD
ATOM     11  H   UNL     1       5.027   4.015 -21.052  0.00  0.00    +0.000 HD
ATOM     12  H   UNL     1       2.399   7.206 -19.993  0.00  0.00    +0.000 HD
ATOM     13  H   UNL     1       2.296   6.270 -18.501  0.00  0.00    +0.000 HD
ATOM     14  H   UNL     1       2.565   3.198 -21.125  0.00  0.00    +0.000 HD
ENDROOT
BRANCH   5  15
ATOM     15  C   UNL     1       0.757   5.148 -20.667  0.00  0.00    +0.000 C 
ATOM     16  H   UNL     1       0.622   5.860 -21.488  0.00  0.00    +0.000 HD
ATOM     17  H   UNL     1       0.111   5.466 -19.841  0.00  0.00    +0.000 HD
ATOM     18  H   UNL     1       0.412   4.163 -20.999  0.00  0.00    +0.000 HD
ENDBRANCH   5  15
BRANCH   1  19
ATOM     19  C   UNL     1       6.338   4.969 -18.904  0.00  0.00    +0.000 C 
BRANCH  19  20
ATOM     20  C   UNL     1       7.016   5.340 -20.223  0.00  0.00    +0.000 C 
ATOM     21  H   UNL     1       6.682   4.699 -21.046  0.00  0.00    +0.000 HD
ATOM     22  H   UNL     1       8.104   5.241 -20.138  0.00  0.00    +0.000 HD
ATOM     23  H   UNL     1       6.842   6.387 -20.493  0.00  0.00    +0.000 HD
ENDBRANCH  19  20
BRANCH  19  24
ATOM     24  C   UNL     1       6.863   3.630 -18.390  0.00  0.00    +0.000 C 
ATOM     25  H   UNL     1       6.294   2.779 -18.780  0.00  0.00    +0.000 HD
ATOM     26  H   UNL     1       7.926   3.493 -18.617  0.00  0.00    +0.000 HD
ATOM     27  H   UNL     1       6.748   3.567 -17.301  0.00  0.00    +0.000 HD
ENDBRANCH  19  24
BRANCH  19  28
ATOM     28  O   UNL     1       6.664   5.961 -17.930  0.00  0.00    +0.000 OA
ATOM     29  H   UNL     1       6.700   5.528 -17.060  0.00  0.00    +0.000 HD
ENDBRANCH  19  28
ENDBRANCH   1  19
TORSDOF 5
ENDMDL
MODEL 8
REMARK VINA RESULT:    -4.579     13.710     15.847
REMARK INTER + INTRA:          -5.557
REMARK INTER:                  -5.348
REMARK INTRA:                  -0.209
REMARK UNBOUND:                -0.175
REMARK  Name = 17100
REMARK  5 active torsions:
REMARK  status: ('A' for Active; 'I' for Inactive)
REMARK    1  A    between atoms: O_1  and  C_3
REMARK    2  A    between atoms: C_2  and  C_3
REMARK    3  A    between atoms: C_3  and  C_9
REMARK    4  A    between atoms: C_3  and  C_10
REMARK    5  A    between atoms: C_7  and  C_11
REMARK                            x       y       z     vdW  Elec       q    Type
REMARK                         _______ _______ _______ _____ _____    ______ ____
ROOT
ATOM      1  C   UNL     1       0.422   4.631 -20.829  0.00  0.00    +0.000 C 
ATOM      2  C   UNL     1       1.901   4.975 -21.034  0.00  0.00    +0.000 C 
ATOM      3  C   UNL     1      -0.332   4.709 -22.165  0.00  0.00    +0.000 C 
ATOM      4  C   UNL     1       2.065   6.382 -21.619  0.00  0.00    +0.000 C 
ATOM      5  C   UNL     1       1.093   6.695 -22.729  0.00  0.00    +0.000 C 
ATOM      6  C   UNL     1       0.021   5.922 -22.974  0.00  0.00    +0.000 C 
ATOM      7  H   UNL     1      -0.004   5.384 -20.150  0.00  0.00    +0.000 HD
ATOM      8  H   UNL     1       2.372   4.250 -21.709  0.00  0.00    +0.000 HD
ATOM      9  H   UNL     1       2.465   4.954 -20.096  0.00  0.00    +0.000 HD
ATOM     10  H   UNL     1      -1.411   4.746 -21.974  0.00  0.00    +0.000 HD
ATOM     11  H   UNL     1      -0.145   3.828 -22.792  0.00  0.00    +0.000 HD
ATOM     12  H   UNL     1       3.094   6.486 -21.985  0.00  0.00    +0.000 HD
ATOM     13  H   UNL     1       1.931   7.125 -20.822  0.00  0.00    +0.000 HD
ATOM     14  H   UNL     1      -0.646   6.168 -23.797  0.00  0.00    +0.000 HD
ENDROOT
BRANCH   5  15
ATOM     15  C   UNL     1       1.391   7.920 -23.542  0.00  0.00    +0.000 C 
ATOM     16  H   UNL     1       0.900   7.856 -24.519  0.00  0.00    +0.000 HD
ATOM     17  H   UNL     1       2.465   8.049 -23.716  0.00  0.00    +0.000 HD
ATOM     18  H   UNL     1       1.027   8.816 -23.027  0.00  0.00    +0.000 HD
ENDBRANCH   5  15
BRANCH   1  19
ATOM     19  C   UNL     1       0.260   3.251 -20.195  0.00  0.00    +0.000 C 
BRANCH  19  20
ATOM     20  C   UNL     1       1.614   2.557 -20.046  0.00  0.00    +0.000 C 
ATOM     21  H   UNL     1       2.046   2.720 -19.053  0.00  0.00    +0.000 HD
ATOM     22  H   UNL     1       2.325   2.934 -20.790  0.00  0.00    +0.000 HD
ATOM     23  H   UNL     1       1.546   1.480 -20.233  0.00  0.00    +0.000 HD
ENDBRANCH  19  20
BRANCH  19  24
ATOM     24  C   UNL     1      -0.696   2.389 -21.019  0.00  0.00    +0.000 C 
ATOM     25  H   UNL     1      -0.267   1.413 -21.270  0.00  0.00    +0.000 HD
ATOM     26  H   UNL     1      -1.656   2.246 -20.513  0.00  0.00    +0.000 HD
ATOM     27  H   UNL     1      -0.899   2.862 -21.987  0.00  0.00    +0.000 HD
ENDBRANCH  19  24
BRANCH  19  28
ATOM     28  O   UNL     1      -0.315   3.409 -18.897  0.00  0.00    +0.000 OA
ATOM     29  H   UNL     1      -0.260   4.350 -18.657  0.00  0.00    +0.000 HD
ENDBRANCH  19  28
ENDBRANCH   1  19
TORSDOF 5
ENDMDL
MODEL 9
REMARK VINA RESULT:    -4.569     14.245     15.186
REMARK INTER + INTRA:          -5.545
REMARK INTER:                  -5.362
REMARK INTRA:                  -0.183
REMARK UNBOUND:                -0.175
REMARK  Name = 17100
REMARK  5 active torsions:
REMARK  status: ('A' for Active; 'I' for Inactive)
REMARK    1  A    between atoms: O_1  and  C_3
REMARK    2  A    between atoms: C_2  and  C_3
REMARK    3  A    between atoms: C_3  and  C_9
REMARK    4  A    between atoms: C_3  and  C_10
REMARK    5  A    between atoms: C_7  and  C_11
REMARK                            x       y       z     vdW  Elec       q    Type
REMARK                         _______ _______ _______ _____ _____    ______ ____
ROOT
ATOM      1  C   UNL     1       1.892   3.638 -21.711  0.00  0.00    +0.000 C 
ATOM      2  C   UNL     1       1.254   4.508 -20.622  0.00  0.00    +0.000 C 
ATOM      3  C   UNL     1       3.148   2.942 -21.166  0.00  0.00    +0.000 C 
ATOM      4  C   UNL     1       2.235   5.571 -20.117  0.00  0.00    +0.000 C 
ATOM      5  C   UNL     1       3.633   5.050 -19.894  0.00  0.00    +0.000 C 
ATOM      6  C   UNL     1       4.028   3.853 -20.362  0.00  0.00    +0.000 C 
ATOM      7  H   UNL     1       2.197   4.304 -22.532  0.00  0.00    +0.000 HD
ATOM      8  H   UNL     1       0.934   3.886 -19.776  0.00  0.00    +0.000 HD
ATOM      9  H   UNL     1       0.368   5.039 -20.983  0.00  0.00    +0.000 HD
ATOM     10  H   UNL     1       3.748   2.563 -22.003  0.00  0.00    +0.000 HD
ATOM     11  H   UNL     1       2.898   2.082 -20.534  0.00  0.00    +0.000 HD
ATOM     12  H   UNL     1       1.840   5.990 -19.184  0.00  0.00    +0.000 HD
ATOM     13  H   UNL     1       2.284   6.393 -20.843  0.00  0.00    +0.000 HD
ATOM     14  H   UNL     1       5.037   3.502 -20.163  0.00  0.00    +0.000 HD
ENDROOT
BRANCH   5  15
ATOM     15  C   UNL     1       4.556   5.946 -19.123  0.00  0.00    +0.000 C 
ATOM     16  H   UNL     1       5.036   5.388 -18.312  0.00  0.00    +0.000 HD
ATOM     17  H   UNL     1       4.029   6.797 -18.677  0.00  0.00    +0.000 HD
ATOM     18  H   UNL     1       5.337   6.344 -19.780  0.00  0.00    +0.000 HD
ENDBRANCH   5  15
BRANCH   1  19
ATOM     19  C   UNL     1       0.896   2.615 -22.252  0.00  0.00    +0.000 C 
BRANCH  19  20
ATOM     20  C   UNL     1       0.113   3.186 -23.434  0.00  0.00    +0.000 C 
ATOM     21  H   UNL     1      -0.233   2.398 -24.111  0.00  0.00    +0.000 HD
ATOM     22  H   UNL     1       0.736   3.878 -24.012  0.00  0.00    +0.000 HD
ATOM     23  H   UNL     1      -0.748   3.779 -23.106  0.00  0.00    +0.000 HD
ENDBRANCH  19  20
BRANCH  19  24
ATOM     24  C   UNL     1      -0.056   2.155 -21.150  0.00  0.00    +0.000 C 
ATOM     25  H   UNL     1       0.389   2.234 -20.152  0.00  0.00    +0.000 HD
ATOM     26  H   UNL     1      -1.002   2.706 -21.171  0.00  0.00    +0.000 HD
ATOM     27  H   UNL     1      -0.291   1.090 -21.267  0.00  0.00    +0.000 HD
ENDBRANCH  19  24
BRANCH  19  28
ATOM     28  O   UNL     1       1.620   1.467 -22.699  0.00  0.00    +0.000 OA
ATOM     29  H   UNL     1       0.975   0.797 -22.983  0.00  0.00    +0.000 HD
ENDBRANCH  19  28
ENDBRANCH   1  19
TORSDOF 5
ENDMDL
MODEL 10
REMARK VINA RESULT:    -4.493     16.407     17.857
REMARK INTER + INTRA:          -5.456
REMARK INTER:                  -5.281
REMARK INTRA:                  -0.175
REMARK UNBOUND:                -0.175
REMARK  Name = 17100
REMARK  5 active torsions:
REMARK  status: ('A' for Active; 'I' for Inactive)
REMARK    1  A    between atoms: O_1  and  C_3
REMARK    2  A    between atoms: C_2  and  C_3
REMARK    3  A    between atoms: C_3  and  C_9
REMARK    4  A    between atoms: C_3  and  C_10
REMARK    5  A    between atoms: C_7  and  C_11
REMARK                            x       y       z     vdW  Elec       q    Type
REMARK                         _______ _______ _______ _____ _____    ______ ____
ROOT
ATOM      1  C   UNL     1     -16.004  -5.555  -3.929  0.00  0.00    +0.000 C 
ATOM      2  C   UNL     1     -17.261  -5.615  -4.804  0.00  0.00    +0.000 C 
ATOM      3  C   UNL     1     -16.242  -6.299  -2.605  0.00  0.00    +0.000 C 
ATOM      4  C   UNL     1     -18.463  -4.990  -4.089  0.00  0.00    +0.000 C 
ATOM      5  C   UNL     1     -18.578  -5.383  -2.637  0.00  0.00    +0.000 C 
ATOM      6  C   UNL     1     -17.571  -5.987  -1.983  0.00  0.00    +0.000 C 
ATOM      7  H   UNL     1     -15.809  -4.497  -3.698  0.00  0.00    +0.000 HD
ATOM      8  H   UNL     1     -17.498  -6.656  -5.060  0.00  0.00    +0.000 HD
ATOM      9  H   UNL     1     -17.135  -5.073  -5.746  0.00  0.00    +0.000 HD
ATOM     10  H   UNL     1     -15.468  -6.015  -1.883  0.00  0.00    +0.000 HD
ATOM     11  H   UNL     1     -16.184  -7.386  -2.731  0.00  0.00    +0.000 HD
ATOM     12  H   UNL     1     -19.374  -5.280  -4.627  0.00  0.00    +0.000 HD
ATOM     13  H   UNL     1     -18.391  -3.896  -4.146  0.00  0.00    +0.000 HD
ATOM     14  H   UNL     1     -17.699  -6.275  -0.942  0.00  0.00    +0.000 HD
ENDROOT
BRANCH   5  15
ATOM     15  C   UNL     1     -19.880  -5.059  -1.967  0.00  0.00    +0.000 C 
ATOM     16  H   UNL     1     -19.733  -4.947  -0.887  0.00  0.00    +0.000 HD
ATOM     17  H   UNL     1     -20.631  -5.842  -2.121  0.00  0.00    +0.000 HD
ATOM     18  H   UNL     1     -20.289  -4.123  -2.362  0.00  0.00    +0.000 HD
ENDBRANCH   5  15
BRANCH   1  19
ATOM     19  C   UNL     1     -14.794  -6.129  -4.662  0.00  0.00    +0.000 C 
BRANCH  19  20
ATOM     20  C   UNL     1     -13.755  -5.042  -4.935  0.00  0.00    +0.000 C 
ATOM     21  H   UNL     1     -13.943  -4.142  -4.340  0.00  0.00    +0.000 HD
ATOM     22  H   UNL     1     -13.765  -4.755  -5.993  0.00  0.00    +0.000 HD
ATOM     23  H   UNL     1     -12.735  -5.392  -4.742  0.00  0.00    +0.000 HD
ENDBRANCH  19  20
BRANCH  19  24
ATOM     24  C   UNL     1     -15.223  -6.800  -5.966  0.00  0.00    +0.000 C 
ATOM     25  H   UNL     1     -14.519  -7.574  -6.290  0.00  0.00    +0.000 HD
ATOM     26  H   UNL     1     -16.228  -7.227  -5.895  0.00  0.00    +0.000 HD
ATOM     27  H   UNL     1     -15.232  -6.070  -6.786  0.00  0.00    +0.000 HD
ENDBRANCH  19  24
BRANCH  19  28
ATOM     28  O   UNL     1     -14.196  -7.133  -3.840  0.00  0.00    +0.000 OA
ATOM     29  H   UNL     1     -14.027  -6.743  -2.965  0.00  0.00    +0.000 HD
ENDBRANCH  19  28
ENDBRANCH   1  19
TORSDOF 5
ENDMDL
