MODEL 1
REMARK VINA RESULT:    -4.283      0.000      0.000
REMARK INTER + INTRA:          -4.740
REMARK INTER:                  -4.657
REMARK INTRA:                  -0.084
REMARK UNBOUND:                -0.081
REMARK  Name = 12756
REMARK  2 active torsions:
REMARK  status: ('A' for Active; 'I' for Inactive)
REMARK    1  A    between atoms: C_3  and  C_6
REMARK    2  A    between atoms: C_6  and  C_8
REMARK                            x       y       z     vdW  Elec       q    Type
REMARK                         _______ _______ _______ _____ _____    ______ ____
ROOT
ATOM      1  O   UNL     1      -0.920  -3.710  -7.369  0.00  0.00    +0.000 OA
ATOM      2  O   UNL     1      -0.685  -1.432  -7.513  0.00  0.00    +0.000 OA
ATOM      3  C   UNL     1      -0.287  -4.838  -7.990  0.00  0.00    +0.000 C 
ATOM      4  C   UNL     1       1.094  -4.343  -8.352  0.00  0.00    +0.000 C 
ATOM      5  C   UNL     1       0.834  -2.897  -8.703  0.00  0.00    +0.000 C 
ATOM      6  C   UNL     1      -0.315  -2.560  -7.801  0.00  0.00    +0.000 C 
ATOM      7  H   UNL     1      -0.860  -5.088  -8.892  0.00  0.00    +0.000 HD
ATOM      8  H   UNL     1       1.554  -4.909  -9.168  0.00  0.00    +0.000 HD
ATOM      9  H   UNL     1       1.767  -4.390  -7.487  0.00  0.00    +0.000 HD
ATOM     10  H   UNL     1       1.702  -2.269  -8.489  0.00  0.00    +0.000 HD
ATOM     11  H   UNL     1       0.518  -2.781  -9.743  0.00  0.00    +0.000 HD
ENDROOT
BRANCH   3  12
ATOM     12  C   UNL     1      -0.271  -6.012  -7.029  0.00  0.00    +0.000 C 
ATOM     13  H   UNL     1      -1.058  -6.726  -7.300  0.00  0.00    +0.000 HD
ATOM     14  H   UNL     1       0.690  -6.538  -7.089  0.00  0.00    +0.000 HD
BRANCH  12  15
ATOM     15  C   UNL     1      -0.478  -5.566  -5.592  0.00  0.00    +0.000 C 
ATOM     16  H   UNL     1      -0.894  -6.371  -4.979  0.00  0.00    +0.000 HD
ATOM     17  H   UNL     1       0.466  -5.242  -5.140  0.00  0.00    +0.000 HD
ATOM     18  H   UNL     1      -1.176  -4.723  -5.555  0.00  0.00    +0.000 HD
ENDBRANCH  12  15
ENDBRANCH   3  12
TORSDOF 2
ENDMDL
MODEL 2
REMARK VINA RESULT:    -4.203      1.581      3.403
REMARK INTER + INTRA:          -4.653
REMARK INTER:                  -4.552
REMARK INTRA:                  -0.102
REMARK UNBOUND:                -0.081
REMARK  Name = 12756
REMARK  2 active torsions:
REMARK  status: ('A' for Active; 'I' for Inactive)
REMARK    1  A    between atoms: C_3  and  C_6
REMARK    2  A    between atoms: C_6  and  C_8
REMARK                            x       y       z     vdW  Elec       q    Type
REMARK                         _______ _______ _______ _____ _____    ______ ____
ROOT
ATOM      1  O   UNL     1       1.275  -4.158  -6.701  0.00  0.00    +0.000 OA
ATOM      2  O   UNL     1       0.779  -5.615  -4.999  0.00  0.00    +0.000 OA
ATOM      3  C   UNL     1       0.994  -4.103  -8.107  0.00  0.00    +0.000 C 
ATOM      4  C   UNL     1      -0.292  -4.881  -8.264  0.00  0.00    +0.000 C 
ATOM      5  C   UNL     1      -0.147  -5.955  -7.213  0.00  0.00    +0.000 C 
ATOM      6  C   UNL     1       0.659  -5.254  -6.160  0.00  0.00    +0.000 C 
ATOM      7  H   UNL     1       1.818  -4.602  -8.632  0.00  0.00    +0.000 HD
ATOM      8  H   UNL     1      -0.432  -5.281  -9.273  0.00  0.00    +0.000 HD
ATOM      9  H   UNL     1      -1.161  -4.255  -8.025  0.00  0.00    +0.000 HD
ATOM     10  H   UNL     1      -1.117  -6.271  -6.823  0.00  0.00    +0.000 HD
ATOM     11  H   UNL     1       0.420  -6.814  -7.583  0.00  0.00    +0.000 HD
ENDROOT
BRANCH   3  12
ATOM     12  C   UNL     1       0.879  -2.657  -8.553  0.00  0.00    +0.000 C 
ATOM     13  H   UNL     1       1.777  -2.103  -8.255  0.00  0.00    +0.000 HD
ATOM     14  H   UNL     1       0.802  -2.603  -9.646  0.00  0.00    +0.000 HD
BRANCH  12  15
ATOM     15  C   UNL     1      -0.344  -1.980  -7.958  0.00  0.00    +0.000 C 
ATOM     16  H   UNL     1      -1.194  -2.667  -7.902  0.00  0.00    +0.000 HD
ATOM     17  H   UNL     1      -0.136  -1.607  -6.950  0.00  0.00    +0.000 HD
ATOM     18  H   UNL     1      -0.642  -1.129  -8.578  0.00  0.00    +0.000 HD
ENDBRANCH  12  15
ENDBRANCH   3  12
TORSDOF 2
ENDMDL
MODEL 3
REMARK VINA RESULT:    -4.171     18.045     18.658
REMARK INTER + INTRA:          -4.618
REMARK INTER:                  -4.559
REMARK INTRA:                  -0.059
REMARK UNBOUND:                -0.081
REMARK  Name = 12756
REMARK  2 active torsions:
REMARK  status: ('A' for Active; 'I' for Inactive)
REMARK    1  A    between atoms: C_3  and  C_6
REMARK    2  A    between atoms: C_6  and  C_8
REMARK                            x       y       z     vdW  Elec       q    Type
REMARK                         _______ _______ _______ _____ _____    ______ ____
ROOT
ATOM      1  O   UNL     1      18.639  -5.056  -2.250  0.00  0.00    +0.000 OA
ATOM      2  O   UNL     1      18.171  -3.320  -0.825  0.00  0.00    +0.000 OA
ATOM      3  C   UNL     1      17.857  -6.022  -2.967  0.00  0.00    +0.000 C 
ATOM      4  C   UNL     1      16.521  -5.345  -3.174  0.00  0.00    +0.000 C 
ATOM      5  C   UNL     1      16.375  -4.531  -1.911  0.00  0.00    +0.000 C 
ATOM      6  C   UNL     1      17.802  -4.199  -1.587  0.00  0.00    +0.000 C 
ATOM      7  H   UNL     1      17.750  -6.907  -2.327  0.00  0.00    +0.000 HD
ATOM      8  H   UNL     1      15.701  -6.052  -3.330  0.00  0.00    +0.000 HD
ATOM      9  H   UNL     1      16.554  -4.670  -4.038  0.00  0.00    +0.000 HD
ATOM     10  H   UNL     1      15.788  -3.626  -2.081  0.00  0.00    +0.000 HD
ATOM     11  H   UNL     1      15.951  -5.120  -1.093  0.00  0.00    +0.000 HD
ENDROOT
BRANCH   3  12
ATOM     12  C   UNL     1      18.553  -6.387  -4.264  0.00  0.00    +0.000 C 
ATOM     13  H   UNL     1      19.131  -5.530  -4.631  0.00  0.00    +0.000 HD
ATOM     14  H   UNL     1      19.253  -7.215  -4.100  0.00  0.00    +0.000 HD
BRANCH  12  15
ATOM     15  C   UNL     1      17.561  -6.811  -5.335  0.00  0.00    +0.000 C 
ATOM     16  H   UNL     1      18.072  -7.206  -6.219  0.00  0.00    +0.000 HD
ATOM     17  H   UNL     1      16.881  -7.581  -4.958  0.00  0.00    +0.000 HD
ATOM     18  H   UNL     1      16.959  -5.954  -5.652  0.00  0.00    +0.000 HD
ENDBRANCH  12  15
ENDBRANCH   3  12
TORSDOF 2
ENDMDL
MODEL 4
REMARK VINA RESULT:    -4.104     17.917     18.429
REMARK INTER + INTRA:          -4.545
REMARK INTER:                  -4.476
REMARK INTRA:                  -0.069
REMARK UNBOUND:                -0.081
REMARK  Name = 12756
REMARK  2 active torsions:
REMARK  status: ('A' for Active; 'I' for Inactive)
REMARK    1  A    between atoms: C_3  and  C_6
REMARK    2  A    between atoms: C_6  and  C_8
REMARK                            x       y       z     vdW  Elec       q    Type
REMARK                         _______ _______ _______ _____ _____    ______ ____
ROOT
ATOM      1  O   UNL     1      17.692  -3.824  -2.485  0.00  0.00    +0.000 OA
ATOM      2  O   UNL     1      19.878  -3.537  -3.122  0.00  0.00    +0.000 OA
ATOM      3  C   UNL     1      16.643  -4.739  -2.832  0.00  0.00    +0.000 C 
ATOM      4  C   UNL     1      17.367  -5.991  -3.273  0.00  0.00    +0.000 C 
ATOM      5  C   UNL     1      18.602  -5.430  -3.936  0.00  0.00    +0.000 C 
ATOM      6  C   UNL     1      18.836  -4.175  -3.149  0.00  0.00    +0.000 C 
ATOM      7  H   UNL     1      16.080  -4.301  -3.666  0.00  0.00    +0.000 HD
ATOM      8  H   UNL     1      16.769  -6.622  -3.936  0.00  0.00    +0.000 HD
ATOM      9  H   UNL     1      17.665  -6.596  -2.408  0.00  0.00    +0.000 HD
ATOM     10  H   UNL     1      19.450  -6.113  -3.853  0.00  0.00    +0.000 HD
ATOM     11  H   UNL     1      18.418  -5.166  -4.982  0.00  0.00    +0.000 HD
ENDROOT
BRANCH   3  12
ATOM     12  C   UNL     1      15.736  -4.960  -1.637  0.00  0.00    +0.000 C 
ATOM     13  H   UNL     1      16.204  -4.553  -0.733  0.00  0.00    +0.000 HD
ATOM     14  H   UNL     1      14.783  -4.435  -1.782  0.00  0.00    +0.000 HD
BRANCH  12  15
ATOM     15  C   UNL     1      15.437  -6.434  -1.421  0.00  0.00    +0.000 C 
ATOM     16  H   UNL     1      14.520  -6.575  -0.840  0.00  0.00    +0.000 HD
ATOM     17  H   UNL     1      15.322  -6.956  -2.376  0.00  0.00    +0.000 HD
ATOM     18  H   UNL     1      16.257  -6.908  -0.873  0.00  0.00    +0.000 HD
ENDBRANCH  12  15
ENDBRANCH   3  12
TORSDOF 2
ENDMDL
MODEL 5
REMARK VINA RESULT:    -4.031     24.796     25.631
REMARK INTER + INTRA:          -4.465
REMARK INTER:                  -4.420
REMARK INTRA:                  -0.046
REMARK UNBOUND:                -0.081
REMARK  Name = 12756
REMARK  2 active torsions:
REMARK  status: ('A' for Active; 'I' for Inactive)
REMARK    1  A    between atoms: C_3  and  C_6
REMARK    2  A    between atoms: C_6  and  C_8
REMARK                            x       y       z     vdW  Elec       q    Type
REMARK                         _______ _______ _______ _____ _____    ______ ____
ROOT
ATOM      1  O   UNL     1      11.648  18.163 -12.025  0.00  0.00    +0.000 OA
ATOM      2  O   UNL     1       9.789  19.500 -12.171  0.00  0.00    +0.000 OA
ATOM      3  C   UNL     1      12.807  18.120 -11.180  0.00  0.00    +0.000 C 
ATOM      4  C   UNL     1      12.350  18.752  -9.884  0.00  0.00    +0.000 C 
ATOM      5  C   UNL     1      11.377  19.802 -10.365  0.00  0.00    +0.000 C 
ATOM      6  C   UNL     1      10.816  19.164 -11.601  0.00  0.00    +0.000 C 
ATOM      7  H   UNL     1      13.589  18.727 -11.654  0.00  0.00    +0.000 HD
ATOM      8  H   UNL     1      13.174  19.165  -9.294  0.00  0.00    +0.000 HD
ATOM      9  H   UNL     1      11.818  18.024  -9.260  0.00  0.00    +0.000 HD
ATOM     10  H   UNL     1      10.594  19.993  -9.629  0.00  0.00    +0.000 HD
ATOM     11  H   UNL     1      11.884  20.731 -10.641  0.00  0.00    +0.000 HD
ENDROOT
BRANCH   3  12
ATOM     12  C   UNL     1      13.273  16.686 -11.017  0.00  0.00    +0.000 C 
ATOM     13  H   UNL     1      14.239  16.665 -10.499  0.00  0.00    +0.000 HD
ATOM     14  H   UNL     1      12.556  16.122 -10.407  0.00  0.00    +0.000 HD
BRANCH  12  15
ATOM     15  C   UNL     1      13.410  15.983 -12.357  0.00  0.00    +0.000 C 
ATOM     16  H   UNL     1      14.336  15.402 -12.410  0.00  0.00    +0.000 HD
ATOM     17  H   UNL     1      12.569  15.306 -12.535  0.00  0.00    +0.000 HD
ATOM     18  H   UNL     1      13.430  16.718 -13.168  0.00  0.00    +0.000 HD
ENDBRANCH  12  15
ENDBRANCH   3  12
TORSDOF 2
ENDMDL
MODEL 6
REMARK VINA RESULT:    -3.829     15.837     16.890
REMARK INTER + INTRA:          -4.246
REMARK INTER:                  -4.181
REMARK INTRA:                  -0.065
REMARK UNBOUND:                -0.081
REMARK  Name = 12756
REMARK  2 active torsions:
REMARK  status: ('A' for Active; 'I' for Inactive)
REMARK    1  A    between atoms: C_3  and  C_6
REMARK    2  A    between atoms: C_6  and  C_8
REMARK                            x       y       z     vdW  Elec       q    Type
REMARK                         _______ _______ _______ _____ _____    ______ ____
ROOT
ATOM      1  O   UNL     1      -5.947 -13.877   4.801  0.00  0.00    +0.000 OA
ATOM      2  O   UNL     1      -4.283 -15.126   3.835  0.00  0.00    +0.000 OA
ATOM      3  C   UNL     1      -7.022 -13.062   4.311  0.00  0.00    +0.000 C 
ATOM      4  C   UNL     1      -7.340 -13.639   2.950  0.00  0.00    +0.000 C 
ATOM      5  C   UNL     1      -5.980 -14.076   2.461  0.00  0.00    +0.000 C 
ATOM      6  C   UNL     1      -5.293 -14.446   3.742  0.00  0.00    +0.000 C 
ATOM      7  H   UNL     1      -6.648 -12.034   4.220  0.00  0.00    +0.000 HD
ATOM      8  H   UNL     1      -7.829 -12.922   2.283  0.00  0.00    +0.000 HD
ATOM      9  H   UNL     1      -7.992 -14.517   3.039  0.00  0.00    +0.000 HD
ATOM     10  H   UNL     1      -6.050 -14.934   1.789  0.00  0.00    +0.000 HD
ATOM     11  H   UNL     1      -5.434 -13.255   1.987  0.00  0.00    +0.000 HD
ENDROOT
BRANCH   3  12
ATOM     12  C   UNL     1      -8.191 -13.118   5.275  0.00  0.00    +0.000 C 
ATOM     13  H   UNL     1      -8.677 -12.136   5.330  0.00  0.00    +0.000 HD
ATOM     14  H   UNL     1      -8.939 -13.839   4.923  0.00  0.00    +0.000 HD
BRANCH  12  15
ATOM     15  C   UNL     1      -7.752 -13.534   6.669  0.00  0.00    +0.000 C 
ATOM     16  H   UNL     1      -6.713 -13.249   6.862  0.00  0.00    +0.000 HD
ATOM     17  H   UNL     1      -8.384 -13.073   7.435  0.00  0.00    +0.000 HD
ATOM     18  H   UNL     1      -7.827 -14.621   6.779  0.00  0.00    +0.000 HD
ENDBRANCH  12  15
ENDBRANCH   3  12
TORSDOF 2
ENDMDL
MODEL 7
REMARK VINA RESULT:    -3.761     14.738     16.047
REMARK INTER + INTRA:          -4.172
REMARK INTER:                  -4.146
REMARK INTRA:                  -0.026
REMARK UNBOUND:                -0.081
REMARK  Name = 12756
REMARK  2 active torsions:
REMARK  status: ('A' for Active; 'I' for Inactive)
REMARK    1  A    between atoms: C_3  and  C_6
REMARK    2  A    between atoms: C_6  and  C_8
REMARK                            x       y       z     vdW  Elec       q    Type
REMARK                         _______ _______ _______ _____ _____    ______ ____
ROOT
ATOM      1  O   UNL     1      -7.773 -13.388   3.274  0.00  0.00    +0.000 OA
ATOM      2  O   UNL     1      -8.008 -13.142   5.543  0.00  0.00    +0.000 OA
ATOM      3  C   UNL     1      -6.671 -13.357   2.356  0.00  0.00    +0.000 C 
ATOM      4  C   UNL     1      -5.478 -13.772   3.187  0.00  0.00    +0.000 C 
ATOM      5  C   UNL     1      -5.804 -13.174   4.535  0.00  0.00    +0.000 C 
ATOM      6  C   UNL     1      -7.302 -13.239   4.550  0.00  0.00    +0.000 C 
ATOM      7  H   UNL     1      -6.558 -12.325   2.002  0.00  0.00    +0.000 HD
ATOM      8  H   UNL     1      -4.526 -13.421   2.778  0.00  0.00    +0.000 HD
ATOM      9  H   UNL     1      -5.424 -14.864   3.279  0.00  0.00    +0.000 HD
ATOM     10  H   UNL     1      -5.375 -13.762   5.350  0.00  0.00    +0.000 HD
ATOM     11  H   UNL     1      -5.490 -12.129   4.604  0.00  0.00    +0.000 HD
ENDROOT
BRANCH   3  12
ATOM     12  C   UNL     1      -6.944 -14.290   1.191  0.00  0.00    +0.000 C 
ATOM     13  H   UNL     1      -6.098 -14.974   1.055  0.00  0.00    +0.000 HD
ATOM     14  H   UNL     1      -7.834 -14.898   1.394  0.00  0.00    +0.000 HD
BRANCH  12  15
ATOM     15  C   UNL     1      -7.177 -13.525  -0.100  0.00  0.00    +0.000 C 
ATOM     16  H   UNL     1      -8.098 -12.935  -0.055  0.00  0.00    +0.000 HD
ATOM     17  H   UNL     1      -6.344 -12.847  -0.313  0.00  0.00    +0.000 HD
ATOM     18  H   UNL     1      -7.267 -14.222  -0.940  0.00  0.00    +0.000 HD
ENDBRANCH  12  15
ENDBRANCH   3  12
TORSDOF 2
ENDMDL
MODEL 8
REMARK VINA RESULT:    -3.729     15.032     15.813
REMARK INTER + INTRA:          -4.137
REMARK INTER:                  -4.085
REMARK INTRA:                  -0.052
REMARK UNBOUND:                -0.081
REMARK  Name = 12756
REMARK  2 active torsions:
REMARK  status: ('A' for Active; 'I' for Inactive)
REMARK    1  A    between atoms: C_3  and  C_6
REMARK    2  A    between atoms: C_6  and  C_8
REMARK                            x       y       z     vdW  Elec       q    Type
REMARK                         _______ _______ _______ _____ _____    ______ ____
ROOT
ATOM      1  O   UNL     1       1.586   3.746 -21.487  0.00  0.00    +0.000 OA
ATOM      2  O   UNL     1       2.113   1.894 -22.735  0.00  0.00    +0.000 OA
ATOM      3  C   UNL     1       0.430   4.187 -20.760  0.00  0.00    +0.000 C 
ATOM      4  C   UNL     1      -0.279   2.910 -20.371  0.00  0.00    +0.000 C 
ATOM      5  C   UNL     1       0.001   2.014 -21.554  0.00  0.00    +0.000 C 
ATOM      6  C   UNL     1       1.348   2.499 -22.000  0.00  0.00    +0.000 C 
ATOM      7  H   UNL     1      -0.188   4.782 -21.444  0.00  0.00    +0.000 HD
ATOM      8  H   UNL     1      -1.347   3.052 -20.180  0.00  0.00    +0.000 HD
ATOM      9  H   UNL     1       0.170   2.471 -19.471  0.00  0.00    +0.000 HD
ATOM     10  H   UNL     1       0.035   0.962 -21.264  0.00  0.00    +0.000 HD
ATOM     11  H   UNL     1      -0.720   2.170 -22.362  0.00  0.00    +0.000 HD
ENDROOT
BRANCH   3  12
ATOM     12  C   UNL     1       0.859   5.022 -19.570  0.00  0.00    +0.000 C 
ATOM     13  H   UNL     1       0.010   5.614 -19.204  0.00  0.00    +0.000 HD
ATOM     14  H   UNL     1       1.188   4.373 -18.749  0.00  0.00    +0.000 HD
BRANCH  12  15
ATOM     15  C   UNL     1       2.003   5.958 -19.921  0.00  0.00    +0.000 C 
ATOM     16  H   UNL     1       1.856   6.418 -20.903  0.00  0.00    +0.000 HD
ATOM     17  H   UNL     1       2.101   6.756 -19.178  0.00  0.00    +0.000 HD
ATOM     18  H   UNL     1       2.947   5.405 -19.949  0.00  0.00    +0.000 HD
ENDBRANCH  12  15
ENDBRANCH   3  12
TORSDOF 2
ENDMDL
MODEL 9
REMARK VINA RESULT:    -3.661     18.807     19.372
REMARK INTER + INTRA:          -4.063
REMARK INTER:                  -4.036
REMARK INTRA:                  -0.027
REMARK UNBOUND:                -0.081
REMARK  Name = 12756
REMARK  2 active torsions:
REMARK  status: ('A' for Active; 'I' for Inactive)
REMARK    1  A    between atoms: C_3  and  C_6
REMARK    2  A    between atoms: C_6  and  C_8
REMARK                            x       y       z     vdW  Elec       q    Type
REMARK                         _______ _______ _______ _____ _____    ______ ____
ROOT
ATOM      1  O   UNL     1      14.627   5.926  -2.355  0.00  0.00    +0.000 OA
ATOM      2  O   UNL     1      14.336   7.712  -3.765  0.00  0.00    +0.000 OA
ATOM      3  C   UNL     1      15.715   5.414  -1.572  0.00  0.00    +0.000 C 
ATOM      4  C   UNL     1      16.569   6.627  -1.279  0.00  0.00    +0.000 C 
ATOM      5  C   UNL     1      16.409   7.444  -2.538  0.00  0.00    +0.000 C 
ATOM      6  C   UNL     1      15.017   7.086  -2.967  0.00  0.00    +0.000 C 
ATOM      7  H   UNL     1      16.263   4.693  -2.191  0.00  0.00    +0.000 HD
ATOM      8  H   UNL     1      17.610   6.376  -1.056  0.00  0.00    +0.000 HD
ATOM      9  H   UNL     1      16.168   7.192  -0.428  0.00  0.00    +0.000 HD
ATOM     10  H   UNL     1      16.498   8.514  -2.339  0.00  0.00    +0.000 HD
ATOM     11  H   UNL     1      17.113   7.135  -3.316  0.00  0.00    +0.000 HD
ENDROOT
BRANCH   3  12
ATOM     12  C   UNL     1      15.179   4.742  -0.323  0.00  0.00    +0.000 C 
ATOM     13  H   UNL     1      15.486   5.306   0.566  0.00  0.00    +0.000 HD
ATOM     14  H   UNL     1      14.082   4.724  -0.343  0.00  0.00    +0.000 HD
BRANCH  12  15
ATOM     15  C   UNL     1      15.673   3.310  -0.198  0.00  0.00    +0.000 C 
ATOM     16  H   UNL     1      14.852   2.623   0.032  0.00  0.00    +0.000 HD
ATOM     17  H   UNL     1      16.151   2.976  -1.125  0.00  0.00    +0.000 HD
ATOM     18  H   UNL     1      16.409   3.234   0.608  0.00  0.00    +0.000 HD
ENDBRANCH  12  15
ENDBRANCH   3  12
TORSDOF 2
ENDMDL
MODEL 10
REMARK VINA RESULT:    -3.644     13.264     14.125
REMARK INTER + INTRA:          -4.044
REMARK INTER:                  -3.963
REMARK INTRA:                  -0.081
REMARK UNBOUND:                -0.081
REMARK  Name = 12756
REMARK  2 active torsions:
REMARK  status: ('A' for Active; 'I' for Inactive)
REMARK    1  A    between atoms: C_3  and  C_6
REMARK    2  A    between atoms: C_6  and  C_8
REMARK                            x       y       z     vdW  Elec       q    Type
REMARK                         _______ _______ _______ _____ _____    ______ ____
ROOT
ATOM      1  O   UNL     1     -14.647  -4.918  -4.853  0.00  0.00    +0.000 OA
ATOM      2  O   UNL     1     -15.081  -6.813  -3.634  0.00  0.00    +0.000 OA
ATOM      3  C   UNL     1     -13.487  -4.110  -5.098  0.00  0.00    +0.000 C 
ATOM      4  C   UNL     1     -12.324  -5.060  -4.926  0.00  0.00    +0.000 C 
ATOM      5  C   UNL     1     -12.816  -5.974  -3.829  0.00  0.00    +0.000 C 
ATOM      6  C   UNL     1     -14.295  -5.990  -4.077  0.00  0.00    +0.000 C 
ATOM      7  H   UNL     1     -13.462  -3.322  -4.335  0.00  0.00    +0.000 HD
ATOM      8  H   UNL     1     -11.387  -4.553  -4.677  0.00  0.00    +0.000 HD
ATOM      9  H   UNL     1     -12.159  -5.646  -5.839  0.00  0.00    +0.000 HD
ATOM     10  H   UNL     1     -12.390  -6.976  -3.918  0.00  0.00    +0.000 HD
ATOM     11  H   UNL     1     -12.625  -5.558  -2.836  0.00  0.00    +0.000 HD
ENDROOT
BRANCH   3  12
ATOM     12  C   UNL     1     -13.566  -3.503  -6.486  0.00  0.00    +0.000 C 
ATOM     13  H   UNL     1     -14.537  -3.737  -6.940  0.00  0.00    +0.000 HD
ATOM     14  H   UNL     1     -13.482  -2.411  -6.428  0.00  0.00    +0.000 HD
BRANCH  12  15
ATOM     15  C   UNL     1     -12.457  -4.016  -7.389  0.00  0.00    +0.000 C 
ATOM     16  H   UNL     1     -12.262  -5.079  -7.218  0.00  0.00    +0.000 HD
ATOM     17  H   UNL     1     -12.713  -3.879  -8.444  0.00  0.00    +0.000 HD
ATOM     18  H   UNL     1     -11.529  -3.470  -7.193  0.00  0.00    +0.000 HD
ENDBRANCH  12  15
ENDBRANCH   3  12
TORSDOF 2
ENDMDL
