REMARK  Name = 8103
REMARK  6 active torsions:
REMARK  status: ('A' for Active; 'I' for Inactive)
REMARK    1  A    between atoms: O_1  and  C_6
REMARK    2  A    between atoms: C_2  and  C_3
REMARK    3  A    between atoms: C_2  and  C_4
REMARK    4  A    between atoms: C_3  and  C_5
REMARK    5  A    between atoms: C_4  and  C_6
REMARK    6  A    between atoms: C_5  and  C_7
REMARK                            x       y       z     vdW  Elec       q    Type
REMARK                         _______ _______ _______ _____ _____    ______ ____
ROOT
ATOM      1  C   UNL     1       0.029  -0.473   0.003  0.00  0.00    +0.000 C 
ENDROOT
BRANCH   1   2
ATOM      2  C   UNL     1      -1.260   0.354   0.016  0.00  0.00    +0.000 C 
BRANCH   2   3
ATOM      3  C   UNL     1      -2.529  -0.499   0.026  0.00  0.00    +0.000 C 
ATOM      4  C   UNL     1      -3.779   0.366  -0.035  0.00  0.00    +0.000 C 
ENDBRANCH   2   3
ENDBRANCH   1   2
BRANCH   1   5
ATOM      5  C   UNL     1       1.297   0.378   0.018  0.00  0.00    +0.000 C 
BRANCH   5   6
ATOM      6  C   UNL     1       2.550  -0.485  -0.029  0.00  0.00    +0.000 C 
BRANCH   6   7
ATOM      7  O   UNL     1       3.692   0.360   0.002  0.00  0.00    +0.000 OA
ATOM      8  H   UNL     1       3.668   0.856   0.837  0.00  0.00    +0.000 HD
ENDBRANCH   6   7
ENDBRANCH   5   6
ENDBRANCH   1   5
TORSDOF 5
