REMARK  Name = 75427
REMARK  8 active torsions:
REMARK  status: ('A' for Active; 'I' for Inactive)
REMARK    1  A    between atoms: C_2  and  C_3
REMARK    2  A    between atoms: C_2  and  C_5
REMARK    3  A    between atoms: C_2  and  C_6
REMARK    4  A    between atoms: C_3  and  C_4
REMARK    5  A    between atoms: C_4  and  C_7
REMARK    6  A    between atoms: C_5  and  C_9
REMARK    7  A    between atoms: C_8  and  C_10
REMARK    8  A    between atoms: C_8  and  C_11
REMARK                            x       y       z     vdW  Elec       q    Type
REMARK                         _______ _______ _______ _____ _____    ______ ____
ROOT
ATOM      1  C   UNL     1      -0.056  -0.631  -0.070  0.00  0.00    +0.000 C 
ATOM      2  H   UNL     1      -0.044  -1.656  -0.463  0.00  0.00    +0.000 HD
ATOM      3  H   UNL     1       0.152   0.030  -0.923  0.00  0.00    +0.000 HD
ENDROOT
BRANCH   1   4
ATOM      4  C   UNL     1       1.055  -0.483   0.975  0.00  0.00    +0.000 C 
ATOM      5  H   UNL     1       1.056   0.507   1.437  0.00  0.00    +0.000 HD
ATOM      6  H   UNL     1       0.881  -1.190   1.796  0.00  0.00    +0.000 HD
BRANCH   4   7
ATOM      7  C   UNL     1       2.403  -0.774   0.377  0.00  0.00    +0.000 C 
ATOM      8  C   UNL     1       3.253   0.097  -0.198  0.00  0.00    +0.000 C 
ATOM      9  H   UNL     1       2.703  -1.821   0.418  0.00  0.00    +0.000 HD
BRANCH   8  10
ATOM     10  C   UNL     1       4.592  -0.259  -0.779  0.00  0.00    +0.000 C 
ATOM     11  H   UNL     1       4.811  -1.326  -0.662  0.00  0.00    +0.000 HD
ATOM     12  H   UNL     1       4.620  -0.026  -1.848  0.00  0.00    +0.000 HD
ATOM     13  H   UNL     1       5.387   0.302  -0.276  0.00  0.00    +0.000 HD
ENDBRANCH   8  10
BRANCH   8  14
ATOM     14  C   UNL     1       2.892   1.554  -0.312  0.00  0.00    +0.000 C 
ATOM     15  H   UNL     1       3.043   1.894  -1.343  0.00  0.00    +0.000 HD
ATOM     16  H   UNL     1       3.538   2.151   0.340  0.00  0.00    +0.000 HD
ATOM     17  H   UNL     1       1.855   1.787  -0.063  0.00  0.00    +0.000 HD
ENDBRANCH   8  14
ENDBRANCH   4   7
ENDBRANCH   1   4
BRANCH   1  18
ATOM     18  C   UNL     1      -1.465  -0.321   0.478  0.00  0.00    +0.000 C 
ATOM     19  H   UNL     1      -1.688  -1.013   1.300  0.00  0.00    +0.000 HD
BRANCH  18  20
ATOM     20  C   UNL     1      -1.555   1.108   1.028  0.00  0.00    +0.000 C 
ATOM     21  H   UNL     1      -2.572   1.351   1.350  0.00  0.00    +0.000 HD
ATOM     22  H   UNL     1      -0.917   1.241   1.906  0.00  0.00    +0.000 HD
ATOM     23  H   UNL     1      -1.257   1.842   0.272  0.00  0.00    +0.000 HD
ENDBRANCH  18  20
BRANCH  18  24
ATOM     24  C   UNL     1      -2.504  -0.536  -0.636  0.00  0.00    +0.000 C 
ATOM     25  H   UNL     1      -2.449  -1.565  -1.010  0.00  0.00    +0.000 HD
ATOM     26  H   UNL     1      -2.300   0.130  -1.483  0.00  0.00    +0.000 HD
BRANCH  24  28
ATOM     27  O   UNL     1      -4.682   0.549  -0.663  0.00  0.00    +0.000 OA
ATOM     28  C   UNL     1      -3.934  -0.304  -0.199  0.00  0.00    +0.000 C 
ATOM     29  H   UNL     1      -4.291  -0.981   0.597  0.00  0.00    +0.000 HD
ENDBRANCH  24  28
ENDBRANCH  18  24
ENDBRANCH   1  18
TORSDOF 8
