REMARK  Name = 443157
REMARK  8 active torsions:
REMARK  status: ('A' for Active; 'I' for Inactive)
REMARK    1  A    between atoms: C_2  and  C_3
REMARK    2  A    between atoms: C_2  and  C_5
REMARK    3  A    between atoms: C_2  and  C_6
REMARK    4  A    between atoms: C_3  and  C_4
REMARK    5  A    between atoms: C_4  and  C_7
REMARK    6  A    between atoms: C_5  and  C_9
REMARK    7  A    between atoms: C_8  and  C_10
REMARK    8  A    between atoms: C_8  and  C_11
REMARK                            x       y       z     vdW  Elec       q    Type
REMARK                         _______ _______ _______ _____ _____    ______ ____
ROOT
ATOM      1  C   UNL     1       0.044  -0.088   0.336  0.00  0.00    +0.000 C 
ATOM      2  H   UNL     1       0.119  -0.409   1.384  0.00  0.00    +0.000 HD
ATOM      3  H   UNL     1      -0.251   0.969   0.356  0.00  0.00    +0.000 HD
ENDROOT
BRANCH   1   4
ATOM      4  C   UNL     1      -1.046  -0.902  -0.368  0.00  0.00    +0.000 C 
ATOM      5  H   UNL     1      -1.101  -0.642  -1.430  0.00  0.00    +0.000 HD
ATOM      6  H   UNL     1      -0.805  -1.971  -0.338  0.00  0.00    +0.000 HD
BRANCH   4   7
ATOM      7  C   UNL     1      -2.374  -0.734   0.316  0.00  0.00    +0.000 C 
ATOM      8  C   UNL     1      -3.323   0.185   0.054  0.00  0.00    +0.000 C 
ATOM      9  H   UNL     1      -2.566  -1.443   1.120  0.00  0.00    +0.000 HD
BRANCH   8  10
ATOM     10  C   UNL     1      -4.635   0.300   0.777  0.00  0.00    +0.000 C 
ATOM     11  H   UNL     1      -4.741  -0.473   1.545  0.00  0.00    +0.000 HD
ATOM     12  H   UNL     1      -4.716   1.274   1.270  0.00  0.00    +0.000 HD
ATOM     13  H   UNL     1      -5.468   0.192   0.075  0.00  0.00    +0.000 HD
ENDBRANCH   8  10
BRANCH   8  14
ATOM     14  C   UNL     1      -3.113   1.214  -1.024  0.00  0.00    +0.000 C 
ATOM     15  H   UNL     1      -3.310   2.215  -0.625  0.00  0.00    +0.000 HD
ATOM     16  H   UNL     1      -3.810   1.035  -1.851  0.00  0.00    +0.000 HD
ATOM     17  H   UNL     1      -2.103   1.241  -1.438  0.00  0.00    +0.000 HD
ENDBRANCH   8  14
ENDBRANCH   4   7
ENDBRANCH   1   4
BRANCH   1  18
ATOM     18  C   UNL     1       1.430  -0.201  -0.335  0.00  0.00    +0.000 C 
ATOM     19  H   UNL     1       1.349   0.132  -1.378  0.00  0.00    +0.000 HD
BRANCH  18  20
ATOM     20  C   UNL     1       1.940  -1.647  -0.339  0.00  0.00    +0.000 C 
ATOM     21  H   UNL     1       1.295  -2.297  -0.938  0.00  0.00    +0.000 HD
ATOM     22  H   UNL     1       2.942  -1.717  -0.777  0.00  0.00    +0.000 HD
ATOM     23  H   UNL     1       1.986  -2.054   0.677  0.00  0.00    +0.000 HD
ENDBRANCH  18  20
BRANCH  18  24
ATOM     24  C   UNL     1       2.424   0.719   0.395  0.00  0.00    +0.000 C 
ATOM     25  H   UNL     1       2.514   0.425   1.448  0.00  0.00    +0.000 HD
ATOM     26  H   UNL     1       2.064   1.754   0.373  0.00  0.00    +0.000 HD
BRANCH  24  28
ATOM     27  O   UNL     1       4.839   0.428   0.394  0.00  0.00    +0.000 OA
ATOM     28  C   UNL     1       3.812   0.727  -0.205  0.00  0.00    +0.000 C 
ATOM     29  H   UNL     1       3.860   1.050  -1.260  0.00  0.00    +0.000 HD
ENDBRANCH  24  28
ENDBRANCH  18  24
ENDBRANCH   1  18
TORSDOF 8
