REMARK  Name = 8103
REMARK  6 active torsions:
REMARK  status: ('A' for Active; 'I' for Inactive)
REMARK    1  A    between atoms: O_1  and  C_6
REMARK    2  A    between atoms: C_2  and  C_3
REMARK    3  A    between atoms: C_2  and  C_4
REMARK    4  A    between atoms: C_3  and  C_5
REMARK    5  A    between atoms: C_4  and  C_6
REMARK    6  A    between atoms: C_5  and  C_7
REMARK                            x       y       z     vdW  Elec       q    Type
REMARK                         _______ _______ _______ _____ _____    ______ ____
ROOT
ATOM      1  C   UNL     1       0.029  -0.473   0.003  0.00  0.00    +0.000 C 
ATOM      2  H   UNL     1       0.032  -1.113  -0.888  0.00  0.00    +0.000 HD
ATOM      3  H   UNL     1       0.034  -1.142   0.872  0.00  0.00    +0.000 HD
ENDROOT
BRANCH   1   4
ATOM      4  C   UNL     1      -1.260   0.354   0.016  0.00  0.00    +0.000 C 
ATOM      5  H   UNL     1      -1.259   1.008   0.896  0.00  0.00    +0.000 HD
ATOM      6  H   UNL     1      -1.270   1.008  -0.865  0.00  0.00    +0.000 HD
BRANCH   4   7
ATOM      7  C   UNL     1      -2.529  -0.499   0.026  0.00  0.00    +0.000 C 
ATOM      8  H   UNL     1      -2.524  -1.183  -0.831  0.00  0.00    +0.000 HD
ATOM      9  H   UNL     1      -2.556  -1.114   0.933  0.00  0.00    +0.000 HD
BRANCH   7  10
ATOM     10  C   UNL     1      -3.779   0.366  -0.035  0.00  0.00    +0.000 C 
ATOM     11  H   UNL     1      -4.675  -0.262  -0.024  0.00  0.00    +0.000 HD
ATOM     12  H   UNL     1      -3.829   1.044   0.823  0.00  0.00    +0.000 HD
ATOM     13  H   UNL     1      -3.796   0.967  -0.950  0.00  0.00    +0.000 HD
ENDBRANCH   7  10
ENDBRANCH   4   7
ENDBRANCH   1   4
BRANCH   1  14
ATOM     14  C   UNL     1       1.297   0.378   0.018  0.00  0.00    +0.000 C 
ATOM     15  H   UNL     1       1.316   1.008   0.916  0.00  0.00    +0.000 HD
ATOM     16  H   UNL     1       1.300   1.070  -0.834  0.00  0.00    +0.000 HD
BRANCH  14  17
ATOM     17  C   UNL     1       2.550  -0.485  -0.029  0.00  0.00    +0.000 C 
ATOM     18  H   UNL     1       2.600  -1.170   0.823  0.00  0.00    +0.000 HD
ATOM     19  H   UNL     1       2.587  -1.075  -0.951  0.00  0.00    +0.000 HD
BRANCH  17  20
ATOM     20  O   UNL     1       3.692   0.360   0.002  0.00  0.00    +0.000 OA
ATOM     21  H   UNL     1       3.668   0.856   0.837  0.00  0.00    +0.000 HD
ENDBRANCH  17  20
ENDBRANCH  14  17
ENDBRANCH   1  14
TORSDOF 6
