REMARK  Name = 957
REMARK  8 active torsions:
REMARK  status: ('A' for Active; 'I' for Inactive)
REMARK    1  A    between atoms: O_1  and  C_8
REMARK    2  A    between atoms: C_2  and  C_3
REMARK    3  A    between atoms: C_2  and  C_4
REMARK    4  A    between atoms: C_3  and  C_5
REMARK    5  A    between atoms: C_4  and  C_6
REMARK    6  A    between atoms: C_5  and  C_7
REMARK    7  A    between atoms: C_6  and  C_8
REMARK    8  A    between atoms: C_7  and  C_9
REMARK                            x       y       z     vdW  Elec       q    Type
REMARK                         _______ _______ _______ _____ _____    ______ ____
ROOT
ATOM      1  C   UNL     1       0.027  -0.360   0.074  0.00  0.00    +0.000 C 
ATOM      2  H   UNL     1       0.050  -0.973   0.984  0.00  0.00    +0.000 HD
ATOM      3  H   UNL     1       0.018  -1.055  -0.775  0.00  0.00    +0.000 HD
ENDROOT
BRANCH   1   4
ATOM      4  C   UNL     1      -1.265   0.462   0.058  0.00  0.00    +0.000 C 
ATOM      5  H   UNL     1      -1.278   1.128   0.931  0.00  0.00    +0.000 HD
ATOM      6  H   UNL     1      -1.263   1.106  -0.830  0.00  0.00    +0.000 HD
BRANCH   4   7
ATOM      7  C   UNL     1      -2.532  -0.395   0.053  0.00  0.00    +0.000 C 
ATOM      8  H   UNL     1      -2.566  -1.006   0.963  0.00  0.00    +0.000 HD
ATOM      9  H   UNL     1      -2.502  -1.085  -0.799  0.00  0.00    +0.000 HD
BRANCH   7  10
ATOM     10  C   UNL     1      -3.787   0.474  -0.036  0.00  0.00    +0.000 C 
ATOM     11  H   UNL     1      -3.835   1.148   0.827  0.00  0.00    +0.000 HD
ATOM     12  H   UNL     1      -3.745   1.100  -0.935  0.00  0.00    +0.000 HD
BRANCH  10  13
ATOM     13  C   UNL     1      -5.049  -0.373  -0.080  0.00  0.00    +0.000 C 
ATOM     14  H   UNL     1      -5.139  -0.990   0.820  0.00  0.00    +0.000 HD
ATOM     15  H   UNL     1      -5.048  -1.035  -0.952  0.00  0.00    +0.000 HD
ATOM     16  H   UNL     1      -5.934   0.268  -0.141  0.00  0.00    +0.000 HD
ENDBRANCH  10  13
ENDBRANCH   7  10
ENDBRANCH   4   7
ENDBRANCH   1   4
BRANCH   1  17
ATOM     17  C   UNL     1       1.294   0.496   0.004  0.00  0.00    +0.000 C 
ATOM     18  H   UNL     1       1.320   1.178   0.862  0.00  0.00    +0.000 HD
ATOM     19  H   UNL     1       1.271   1.114  -0.901  0.00  0.00    +0.000 HD
BRANCH  17  20
ATOM     20  C   UNL     1       2.550  -0.375  -0.001  0.00  0.00    +0.000 C 
ATOM     21  H   UNL     1       2.538  -1.048  -0.867  0.00  0.00    +0.000 HD
ATOM     22  H   UNL     1       2.567  -1.024   0.884  0.00  0.00    +0.000 HD
BRANCH  20  23
ATOM     23  C   UNL     1       3.817   0.468  -0.028  0.00  0.00    +0.000 C 
ATOM     24  H   UNL     1       3.855   1.110  -0.914  0.00  0.00    +0.000 HD
ATOM     25  H   UNL     1       3.888   1.101   0.862  0.00  0.00    +0.000 HD
BRANCH  23  26
ATOM     26  O   UNL     1       4.944  -0.398  -0.046  0.00  0.00    +0.000 OA
ATOM     27  H   UNL     1       4.890  -0.933  -0.856  0.00  0.00    +0.000 HD
ENDBRANCH  23  26
ENDBRANCH  20  23
ENDBRANCH  17  20
ENDBRANCH   1  17
TORSDOF 8
