REMARK  Name = 6276
REMARK  5 active torsions:
REMARK  status: ('A' for Active; 'I' for Inactive)
REMARK    1  A    between atoms: O_1  and  C_5
REMARK    2  A    between atoms: C_2  and  C_3
REMARK    3  A    between atoms: C_2  and  C_4
REMARK    4  A    between atoms: C_3  and  C_5
REMARK    5  A    between atoms: C_4  and  C_6
REMARK                            x       y       z     vdW  Elec       q    Type
REMARK                         _______ _______ _______ _____ _____    ______ ____
ROOT
ATOM      1  C   UNL     1      -0.635  -0.397   0.026  0.00  0.00    +0.000 C 
ATOM      2  H   UNL     1      -0.679  -1.034   0.917  0.00  0.00    +0.000 HD
ATOM      3  H   UNL     1      -0.670  -1.060  -0.848  0.00  0.00    +0.000 HD
ENDROOT
BRANCH   1   4
ATOM      4  C   UNL     1       0.676   0.386   0.019  0.00  0.00    +0.000 C 
ATOM      5  H   UNL     1       0.733   1.041   0.897  0.00  0.00    +0.000 HD
ATOM      6  H   UNL     1       0.713   1.051  -0.853  0.00  0.00    +0.000 HD
BRANCH   4   7
ATOM      7  C   UNL     1       1.884  -0.540  -0.001  0.00  0.00    +0.000 C 
ATOM      8  H   UNL     1       1.881  -1.188  -0.884  0.00  0.00    +0.000 HD
ATOM      9  H   UNL     1       1.909  -1.172   0.892  0.00  0.00    +0.000 HD
BRANCH   7  10
ATOM     10  O   UNL     1       3.066   0.247  -0.021  0.00  0.00    +0.000 OA
ATOM     11  H   UNL     1       3.051   0.780  -0.834  0.00  0.00    +0.000 HD
ENDBRANCH   7  10
ENDBRANCH   4   7
ENDBRANCH   1   4
BRANCH   1  12
ATOM     12  C   UNL     1      -1.842   0.540   0.003  0.00  0.00    +0.000 C 
ATOM     13  H   UNL     1      -1.826   1.189   0.886  0.00  0.00    +0.000 HD
ATOM     14  H   UNL     1      -1.793   1.190  -0.878  0.00  0.00    +0.000 HD
BRANCH  12  15
ATOM     15  C   UNL     1      -3.149  -0.236  -0.025  0.00  0.00    +0.000 C 
ATOM     16  H   UNL     1      -3.211  -0.870  -0.915  0.00  0.00    +0.000 HD
ATOM     17  H   UNL     1      -3.245  -0.875   0.859  0.00  0.00    +0.000 HD
ATOM     18  H   UNL     1      -3.999   0.454  -0.039  0.00  0.00    +0.000 HD
ENDBRANCH  12  15
ENDBRANCH   1  12
TORSDOF 5
