REMARK  Name = 7720
REMARK  8 active torsions:
REMARK  status: ('A' for Active; 'I' for Inactive)
REMARK    1  A    between atoms: O_1  and  C_6
REMARK    2  A    between atoms: C_2  and  C_3
REMARK    3  A    between atoms: C_2  and  C_5
REMARK    4  A    between atoms: C_2  and  C_6
REMARK    5  A    between atoms: C_3  and  C_4
REMARK    6  A    between atoms: C_4  and  C_7
REMARK    7  A    between atoms: C_5  and  C_8
REMARK    8  A    between atoms: C_7  and  C_9
REMARK                            x       y       z     vdW  Elec       q    Type
REMARK                         _______ _______ _______ _____ _____    ______ ____
ROOT
ATOM      1  C   UNL     1      -0.970  -0.327   0.317  0.00  0.00    +0.000 C 
ATOM      2  H   UNL     1      -0.909  -0.836   1.290  0.00  0.00    +0.000 HD
ENDROOT
BRANCH   1   3
ATOM      3  C   UNL     1       0.351  -0.600  -0.433  0.00  0.00    +0.000 C 
ATOM      4  H   UNL     1       0.442  -1.679  -0.613  0.00  0.00    +0.000 HD
ATOM      5  H   UNL     1       0.326  -0.127  -1.422  0.00  0.00    +0.000 HD
BRANCH   3   6
ATOM      6  C   UNL     1       1.597  -0.135   0.328  0.00  0.00    +0.000 C 
ATOM      7  H   UNL     1       1.637  -0.639   1.302  0.00  0.00    +0.000 HD
ATOM      8  H   UNL     1       1.534   0.940   0.526  0.00  0.00    +0.000 HD
BRANCH   6   9
ATOM      9  C   UNL     1       2.900  -0.395  -0.433  0.00  0.00    +0.000 C 
ATOM     10  H   UNL     1       2.998  -1.470  -0.626  0.00  0.00    +0.000 HD
ATOM     11  H   UNL     1       2.856   0.102  -1.409  0.00  0.00    +0.000 HD
BRANCH   9  12
ATOM     12  C   UNL     1       4.138   0.088   0.306  0.00  0.00    +0.000 C 
ATOM     13  H   UNL     1       5.038  -0.124  -0.280  0.00  0.00    +0.000 HD
ATOM     14  H   UNL     1       4.092   1.167   0.482  0.00  0.00    +0.000 HD
ATOM     15  H   UNL     1       4.235  -0.414   1.274  0.00  0.00    +0.000 HD
ENDBRANCH   9  12
ENDBRANCH   6   9
ENDBRANCH   3   6
ENDBRANCH   1   3
BRANCH   1  16
ATOM     16  C   UNL     1      -1.220   1.164   0.635  0.00  0.00    +0.000 C 
ATOM     17  H   UNL     1      -0.429   1.543   1.292  0.00  0.00    +0.000 HD
ATOM     18  H   UNL     1      -2.146   1.254   1.216  0.00  0.00    +0.000 HD
BRANCH  16  19
ATOM     19  C   UNL     1      -1.332   2.075  -0.580  0.00  0.00    +0.000 C 
ATOM     20  H   UNL     1      -0.414   2.067  -1.175  0.00  0.00    +0.000 HD
ATOM     21  H   UNL     1      -1.504   3.106  -0.255  0.00  0.00    +0.000 HD
ATOM     22  H   UNL     1      -2.168   1.791  -1.224  0.00  0.00    +0.000 HD
ENDBRANCH  16  19
ENDBRANCH   1  16
BRANCH   1  23
ATOM     23  C   UNL     1      -2.136  -0.965  -0.456  0.00  0.00    +0.000 C 
ATOM     24  H   UNL     1      -1.933  -2.020  -0.667  0.00  0.00    +0.000 HD
ATOM     25  H   UNL     1      -2.315  -0.468  -1.413  0.00  0.00    +0.000 HD
BRANCH  23  26
ATOM     26  O   UNL     1      -3.328  -0.905   0.315  0.00  0.00    +0.000 OA
ATOM     27  H   UNL     1      -3.164  -1.380   1.147  0.00  0.00    +0.000 HD
ENDBRANCH  23  26
ENDBRANCH   1  23
TORSDOF 8
