REMARK  Name = 8051
REMARK  6 active torsions:
REMARK  status: ('A' for Active; 'I' for Inactive)
REMARK    1  A    between atoms: C_2  and  C_3
REMARK    2  A    between atoms: C_2  and  C_4
REMARK    3  A    between atoms: C_3  and  C_5
REMARK    4  A    between atoms: C_4  and  C_6
REMARK    5  A    between atoms: C_5  and  C_7
REMARK    6  A    between atoms: C_7  and  C_8
REMARK                            x       y       z     vdW  Elec       q    Type
REMARK                         _______ _______ _______ _____ _____    ______ ____
ROOT
ATOM      1  C   UNL     1       0.298  -0.279  -0.045  0.00  0.00    +0.000 C 
ATOM      2  H   UNL     1       0.253  -0.938  -0.921  0.00  0.00    +0.000 HD
ATOM      3  H   UNL     1       0.241  -0.929   0.838  0.00  0.00    +0.000 HD
ENDROOT
BRANCH   1   4
ATOM      4  C   UNL     1       1.635   0.468  -0.035  0.00  0.00    +0.000 C 
ATOM      5  H   UNL     1       1.709   1.100  -0.928  0.00  0.00    +0.000 HD
ATOM      6  H   UNL     1       1.675   1.132   0.837  0.00  0.00    +0.000 HD
BRANCH   4   7
ATOM      7  C   UNL     1       2.813  -0.506   0.007  0.00  0.00    +0.000 C 
ATOM      8  H   UNL     1       2.730  -1.154   0.888  0.00  0.00    +0.000 HD
ATOM      9  H   UNL     1       2.792  -1.154  -0.876  0.00  0.00    +0.000 HD
BRANCH   7  10
ATOM     10  C   UNL     1       4.142   0.230   0.057  0.00  0.00    +0.000 C 
ATOM     11  H   UNL     1       4.208   0.862   0.949  0.00  0.00    +0.000 HD
ATOM     12  H   UNL     1       4.970  -0.485   0.085  0.00  0.00    +0.000 HD
ATOM     13  H   UNL     1       4.272   0.865  -0.825  0.00  0.00    +0.000 HD
ENDBRANCH   7  10
ENDBRANCH   4   7
ENDBRANCH   1   4
BRANCH   1  14
ATOM     14  C   UNL     1      -0.899   0.666  -0.057  0.00  0.00    +0.000 C 
ATOM     15  H   UNL     1      -0.886   1.274  -0.968  0.00  0.00    +0.000 HD
ATOM     16  H   UNL     1      -0.851   1.336   0.809  0.00  0.00    +0.000 HD
BRANCH  14  18
ATOM     17  O   UNL     1      -2.282  -1.292   0.011  0.00  0.00    +0.000 OA
ATOM     18  C   UNL     1      -2.228  -0.062  -0.000  0.00  0.00    +0.000 C 
BRANCH  18  19
ATOM     19  C   UNL     1      -3.478   0.775   0.061  0.00  0.00    +0.000 C 
ATOM     20  H   UNL     1      -3.473   1.374   0.975  0.00  0.00    +0.000 HD
ATOM     21  H   UNL     1      -3.526   1.426  -0.816  0.00  0.00    +0.000 HD
ATOM     22  H   UNL     1      -4.358   0.126   0.066  0.00  0.00    +0.000 HD
ENDBRANCH  18  19
ENDBRANCH  14  18
ENDBRANCH   1  14
TORSDOF 6
