REMARK  Name = 32594
REMARK  6 active torsions:
REMARK  status: ('A' for Active; 'I' for Inactive)
REMARK    1  A    between atoms: O_1  and  C_9
REMARK    2  A    between atoms: O_1  and  C_12
REMARK    3  A    between atoms: C_4  and  C_5
REMARK    4  A    between atoms: C_4  and  C_6
REMARK    5  A    between atoms: C_4  and  C_7
REMARK    6  A    between atoms: C_5  and  C_8
REMARK                            x       y       z     vdW  Elec       q    Type
REMARK                         _______ _______ _______ _____ _____    ______ ____
ROOT
ATOM      1  C   UNL     1       1.383   0.063  -1.136  0.00  0.00    +0.000 C 
ATOM      2  H   UNL     1       1.757  -0.690  -1.843  0.00  0.00    +0.000 HD
ATOM      3  H   UNL     1       1.187   0.955  -1.745  0.00  0.00    +0.000 HD
ENDROOT
BRANCH   1   6
ATOM      4  N   UNL     1      -0.006  -1.767  -0.380  0.00  0.00    +0.000 NA
ATOM      5  N   UNL     1      -2.050   0.003   0.366  0.00  0.00    +0.000 NA
ATOM      6  C   UNL     1       0.095  -0.440  -0.532  0.00  0.00    +0.000 A 
ATOM      7  C   UNL     1      -0.893   0.435  -0.173  0.00  0.00    +0.000 A 
ATOM      8  C   UNL     1      -1.163  -2.200   0.159  0.00  0.00    +0.000 A 
ATOM      9  C   UNL     1      -2.167  -1.331   0.526  0.00  0.00    +0.000 A 
ATOM     10  H   UNL     1      -1.257  -3.271   0.288  0.00  0.00    +0.000 HD
ATOM     11  H   UNL     1      -3.096  -1.679   0.960  0.00  0.00    +0.000 HD
BRANCH   7  12
ATOM     12  O   UNL     1      -0.752   1.784  -0.344  0.00  0.00    +0.000 OA
BRANCH  12  13
ATOM     13  C   UNL     1      -1.844   2.602   0.065  0.00  0.00    +0.000 C 
ATOM     14  H   UNL     1      -2.028   2.502   1.140  0.00  0.00    +0.000 HD
ATOM     15  H   UNL     1      -2.747   2.367  -0.509  0.00  0.00    +0.000 HD
ATOM     16  H   UNL     1      -1.577   3.644  -0.136  0.00  0.00    +0.000 HD
ENDBRANCH  12  13
ENDBRANCH   7  12
ENDBRANCH   1   6
BRANCH   1  17
ATOM     17  C   UNL     1       2.477   0.377  -0.097  0.00  0.00    +0.000 C 
ATOM     18  H   UNL     1       3.340   0.798  -0.628  0.00  0.00    +0.000 HD
BRANCH  17  19
ATOM     19  C   UNL     1       2.002   1.387   0.950  0.00  0.00    +0.000 C 
ATOM     20  H   UNL     1       1.209   0.993   1.594  0.00  0.00    +0.000 HD
ATOM     21  H   UNL     1       1.657   2.311   0.477  0.00  0.00    +0.000 HD
ATOM     22  H   UNL     1       2.836   1.658   1.608  0.00  0.00    +0.000 HD
ENDBRANCH  17  19
BRANCH  17  23
ATOM     23  C   UNL     1       2.919  -0.914   0.596  0.00  0.00    +0.000 C 
ATOM     24  H   UNL     1       3.792  -0.721   1.229  0.00  0.00    +0.000 HD
ATOM     25  H   UNL     1       2.139  -1.331   1.241  0.00  0.00    +0.000 HD
ATOM     26  H   UNL     1       3.208  -1.677  -0.136  0.00  0.00    +0.000 HD
ENDBRANCH  17  23
ENDBRANCH   1  17
TORSDOF 6
