REMARK  Name = 7976
REMARK  1 active torsions:
REMARK  status: ('A' for Active; 'I' for Inactive)
REMARK    1  A    between atoms: C_3  and  C_4
REMARK                            x       y       z     vdW  Elec       q    Type
REMARK                         _______ _______ _______ _____ _____    ______ ____
ROOT
ATOM      1  N   UNL     1      -0.362  -1.192   0.000  0.00  0.00    +0.000 NA
ATOM      2  N   UNL     1       1.168   1.159   0.000  0.00  0.00    +0.000 NA
ATOM      3  C   UNL     1      -0.931   0.030  -0.000  0.00  0.00    +0.000 A 
ATOM      4  C   UNL     1      -0.179   1.185  -0.000  0.00  0.00    +0.000 A 
ATOM      5  C   UNL     1       0.986  -1.217  -0.000  0.00  0.00    +0.000 A 
ATOM      6  C   UNL     1       1.737  -0.063   0.000  0.00  0.00    +0.000 A 
ATOM      7  H   UNL     1      -0.629   2.171  -0.000  0.00  0.00    +0.000 HD
ATOM      8  H   UNL     1       1.444  -2.199   0.000  0.00  0.00    +0.000 HD
ATOM      9  H   UNL     1       2.820  -0.085   0.000  0.00  0.00    +0.000 HD
ENDROOT
BRANCH   3  10
ATOM     10  C   UNL     1      -2.418   0.097   0.000  0.00  0.00    +0.000 C 
ATOM     11  H   UNL     1      -2.776   0.622   0.892  0.00  0.00    +0.000 HD
ATOM     12  H   UNL     1      -2.776   0.623  -0.891  0.00  0.00    +0.000 HD
ATOM     13  H   UNL     1      -2.857  -0.906  -0.000  0.00  0.00    +0.000 HD
ENDBRANCH   3  10
TORSDOF 1
