REMARK  Name = 8093
REMARK  7 active torsions:
REMARK  status: ('A' for Active; 'I' for Inactive)
REMARK    1  A    between atoms: C_2  and  C_3
REMARK    2  A    between atoms: C_2  and  C_4
REMARK    3  A    between atoms: C_3  and  C_5
REMARK    4  A    between atoms: C_4  and  C_6
REMARK    5  A    between atoms: C_5  and  C_7
REMARK    6  A    between atoms: C_6  and  C_8
REMARK    7  A    between atoms: C_8  and  C_9
REMARK                            x       y       z     vdW  Elec       q    Type
REMARK                         _______ _______ _______ _____ _____    ______ ____
ROOT
ATOM      1  C   UNL     1      -1.015  -0.599  -0.017  0.00  0.00    +0.000 C 
ATOM      2  H   UNL     1      -1.050  -1.294  -0.864  0.00  0.00    +0.000 HD
ATOM      3  H   UNL     1      -1.034  -1.202   0.899  0.00  0.00    +0.000 HD
ENDROOT
BRANCH   1   4
ATOM      4  C   UNL     1      -2.240   0.319  -0.051  0.00  0.00    +0.000 C 
ATOM      5  H   UNL     1      -2.233   0.908  -0.977  0.00  0.00    +0.000 HD
ATOM      6  H   UNL     1      -2.189   1.029   0.784  0.00  0.00    +0.000 HD
BRANCH   4   7
ATOM      7  C   UNL     1      -3.538  -0.483   0.039  0.00  0.00    +0.000 C 
ATOM      8  H   UNL     1      -3.541  -1.085   0.955  0.00  0.00    +0.000 HD
ATOM      9  H   UNL     1      -3.606  -1.177  -0.806  0.00  0.00    +0.000 HD
BRANCH   7  10
ATOM     10  C   UNL     1      -4.756   0.427   0.038  0.00  0.00    +0.000 C 
ATOM     11  H   UNL     1      -4.800   1.023  -0.879  0.00  0.00    +0.000 HD
ATOM     12  H   UNL     1      -4.735   1.112   0.892  0.00  0.00    +0.000 HD
ATOM     13  H   UNL     1      -5.673  -0.167   0.102  0.00  0.00    +0.000 HD
ENDBRANCH   7  10
ENDBRANCH   4   7
ENDBRANCH   1   4
BRANCH   1  14
ATOM     14  C   UNL     1       0.285   0.209  -0.068  0.00  0.00    +0.000 C 
ATOM     15  H   UNL     1       0.308   0.809  -0.986  0.00  0.00    +0.000 HD
ATOM     16  H   UNL     1       0.301   0.919   0.769  0.00  0.00    +0.000 HD
BRANCH  14  17
ATOM     17  C   UNL     1       1.525  -0.676  -0.006  0.00  0.00    +0.000 C 
ATOM     18  H   UNL     1       1.501  -1.290   0.901  0.00  0.00    +0.000 HD
ATOM     19  H   UNL     1       1.548  -1.343  -0.875  0.00  0.00    +0.000 HD
BRANCH  17  21
ATOM     20  O   UNL     1       2.812   1.347   0.026  0.00  0.00    +0.000 OA
ATOM     21  C   UNL     1       2.818   0.115   0.011  0.00  0.00    +0.000 C 
BRANCH  21  22
ATOM     22  C   UNL     1       4.109  -0.659   0.027  0.00  0.00    +0.000 C 
ATOM     23  H   UNL     1       4.955   0.033   0.022  0.00  0.00    +0.000 HD
ATOM     24  H   UNL     1       4.156  -1.272   0.930  0.00  0.00    +0.000 HD
ATOM     25  H   UNL     1       4.166  -1.292  -0.862  0.00  0.00    +0.000 HD
ENDBRANCH  21  22
ENDBRANCH  17  21
ENDBRANCH  14  17
ENDBRANCH   1  14
TORSDOF 7
