REMARK  Name = 7895
REMARK  4 active torsions:
REMARK  status: ('A' for Active; 'I' for Inactive)
REMARK    1  A    between atoms: C_2  and  C_3
REMARK    2  A    between atoms: C_2  and  C_4
REMARK    3  A    between atoms: C_3  and  C_5
REMARK    4  A    between atoms: C_5  and  C_6
REMARK                            x       y       z     vdW  Elec       q    Type
REMARK                         _______ _______ _______ _____ _____    ______ ____
ROOT
ATOM      1  C   UNL     1      -0.301   0.602  -0.022  0.00  0.00    +0.000 C 
ATOM      2  H   UNL     1      -0.366   1.218  -0.926  0.00  0.00    +0.000 HD
ATOM      3  H   UNL     1      -0.370   1.258   0.853  0.00  0.00    +0.000 HD
ENDROOT
BRANCH   1   4
ATOM      4  C   UNL     1      -1.440  -0.413  -0.001  0.00  0.00    +0.000 C 
ATOM      5  H   UNL     1      -1.373  -1.068  -0.878  0.00  0.00    +0.000 HD
ATOM      6  H   UNL     1      -1.352  -1.056   0.883  0.00  0.00    +0.000 HD
BRANCH   4   7
ATOM      7  C   UNL     1      -2.797   0.272   0.012  0.00  0.00    +0.000 C 
ATOM      8  H   UNL     1      -2.929   0.897  -0.877  0.00  0.00    +0.000 HD
ATOM      9  H   UNL     1      -2.908   0.906   0.898  0.00  0.00    +0.000 HD
ATOM     10  H   UNL     1      -3.598  -0.473   0.026  0.00  0.00    +0.000 HD
ENDBRANCH   4   7
ENDBRANCH   1   4
BRANCH   1  12
ATOM     11  O   UNL     1       1.220  -1.278   0.001  0.00  0.00    +0.000 OA
ATOM     12  C   UNL     1       1.067  -0.057  -0.003  0.00  0.00    +0.000 C 
BRANCH  12  13
ATOM     13  C   UNL     1       2.252   0.874   0.012  0.00  0.00    +0.000 C 
ATOM     14  H   UNL     1       2.217   1.496   0.910  0.00  0.00    +0.000 HD
ATOM     15  H   UNL     1       2.236   1.500  -0.883  0.00  0.00    +0.000 HD
ATOM     16  H   UNL     1       3.178   0.292   0.021  0.00  0.00    +0.000 HD
ENDBRANCH  12  13
ENDBRANCH   1  12
TORSDOF 4
