REMARK  Name = 520098
REMARK  6 active torsions:
REMARK  status: ('A' for Active; 'I' for Inactive)
REMARK    1  A    between atoms: O_1  and  C_9
REMARK    2  A    between atoms: O_1  and  C_12
REMARK    3  A    between atoms: C_4  and  C_5
REMARK    4  A    between atoms: C_4  and  C_6
REMARK    5  A    between atoms: C_4  and  C_7
REMARK    6  A    between atoms: C_5  and  C_8
REMARK                            x       y       z     vdW  Elec       q    Type
REMARK                         _______ _______ _______ _____ _____    ______ ____
ROOT
ATOM      1  C   UNL     1      -1.555   0.354  -0.544  0.00  0.00    +0.000 C 
ATOM      2  H   UNL     1      -1.411   1.437  -0.644  0.00  0.00    +0.000 HD
ENDROOT
BRANCH   1   5
ATOM      3  N   UNL     1      -0.275  -1.642  -0.073  0.00  0.00    +0.000 NA
ATOM      4  N   UNL     1       2.085  -0.149   0.193  0.00  0.00    +0.000 NA
ATOM      5  C   UNL     1      -0.231  -0.316  -0.221  0.00  0.00    +0.000 A 
ATOM      6  C   UNL     1       0.902   0.430  -0.096  0.00  0.00    +0.000 A 
ATOM      7  C   UNL     1       0.908  -2.221   0.215  0.00  0.00    +0.000 A 
ATOM      8  C   UNL     1       2.067  -1.488   0.346  0.00  0.00    +0.000 A 
ATOM      9  H   UNL     1       0.894  -3.297   0.339  0.00  0.00    +0.000 HD
ATOM     10  H   UNL     1       3.016  -1.954   0.578  0.00  0.00    +0.000 HD
BRANCH   6  11
ATOM     11  O   UNL     1       0.897   1.788  -0.255  0.00  0.00    +0.000 OA
BRANCH  11  12
ATOM     12  C   UNL     1       2.144   2.459  -0.100  0.00  0.00    +0.000 C 
ATOM     13  H   UNL     1       1.972   3.527  -0.257  0.00  0.00    +0.000 HD
ATOM     14  H   UNL     1       2.867   2.119  -0.849  0.00  0.00    +0.000 HD
ATOM     15  H   UNL     1       2.538   2.325   0.912  0.00  0.00    +0.000 HD
ENDBRANCH  11  12
ENDBRANCH   6  11
ENDBRANCH   1   5
BRANCH   1  16
ATOM     16  C   UNL     1      -2.083  -0.127  -1.901  0.00  0.00    +0.000 C 
ATOM     17  H   UNL     1      -2.317  -1.198  -1.888  0.00  0.00    +0.000 HD
ATOM     18  H   UNL     1      -2.997   0.411  -2.176  0.00  0.00    +0.000 HD
ATOM     19  H   UNL     1      -1.344   0.043  -2.692  0.00  0.00    +0.000 HD
ENDBRANCH   1  16
BRANCH   1  20
ATOM     20  C   UNL     1      -2.623   0.148   0.549  0.00  0.00    +0.000 C 
ATOM     21  H   UNL     1      -2.824  -0.921   0.695  0.00  0.00    +0.000 HD
ATOM     22  H   UNL     1      -3.566   0.604   0.223  0.00  0.00    +0.000 HD
BRANCH  20  23
ATOM     23  C   UNL     1      -2.236   0.765   1.887  0.00  0.00    +0.000 C 
ATOM     24  H   UNL     1      -3.056   0.653   2.603  0.00  0.00    +0.000 HD
ATOM     25  H   UNL     1      -1.353   0.279   2.314  0.00  0.00    +0.000 HD
ATOM     26  H   UNL     1      -2.024   1.834   1.780  0.00  0.00    +0.000 HD
ENDBRANCH  20  23
ENDBRANCH   1  20
TORSDOF 6
