REMARK  Name = 31260
REMARK  5 active torsions:
REMARK  status: ('A' for Active; 'I' for Inactive)
REMARK    1  A    between atoms: O_1  and  C_6
REMARK    2  A    between atoms: C_2  and  C_3
REMARK    3  A    between atoms: C_2  and  C_4
REMARK    4  A    between atoms: C_2  and  C_5
REMARK    5  A    between atoms: C_3  and  C_6
REMARK                            x       y       z     vdW  Elec       q    Type
REMARK                         _______ _______ _______ _____ _____    ______ ____
ROOT
ATOM      1  C   UNL     1       1.140   0.008   0.452  0.00  0.00    +0.000 C 
ATOM      2  H   UNL     1       1.680   0.007   1.407  0.00  0.00    +0.000 HD
ENDROOT
BRANCH   1   3
ATOM      3  C   UNL     1       1.484  -1.278  -0.303  0.00  0.00    +0.000 C 
ATOM      4  H   UNL     1       2.571  -1.391  -0.377  0.00  0.00    +0.000 HD
ATOM      5  H   UNL     1       1.092  -1.281  -1.325  0.00  0.00    +0.000 HD
ATOM      6  H   UNL     1       1.097  -2.159   0.220  0.00  0.00    +0.000 HD
ENDBRANCH   1   3
BRANCH   1   7
ATOM      7  C   UNL     1       1.599   1.221  -0.359  0.00  0.00    +0.000 C 
ATOM      8  H   UNL     1       1.173   1.231  -1.367  0.00  0.00    +0.000 HD
ATOM      9  H   UNL     1       2.689   1.218  -0.464  0.00  0.00    +0.000 HD
ATOM     10  H   UNL     1       1.315   2.152   0.142  0.00  0.00    +0.000 HD
ENDBRANCH   1   7
BRANCH   1  11
ATOM     11  C   UNL     1      -0.365   0.046   0.761  0.00  0.00    +0.000 C 
ATOM     12  H   UNL     1      -0.601   0.960   1.321  0.00  0.00    +0.000 HD
ATOM     13  H   UNL     1      -0.625  -0.781   1.435  0.00  0.00    +0.000 HD
BRANCH  11  14
ATOM     14  C   UNL     1      -1.248  -0.030  -0.478  0.00  0.00    +0.000 C 
ATOM     15  H   UNL     1      -1.066   0.797  -1.170  0.00  0.00    +0.000 HD
ATOM     16  H   UNL     1      -1.118  -0.972  -1.016  0.00  0.00    +0.000 HD
BRANCH  14  17
ATOM     17  O   UNL     1      -2.610   0.033  -0.072  0.00  0.00    +0.000 OA
ATOM     18  H   UNL     1      -2.745   0.887   0.373  0.00  0.00    +0.000 HD
ENDBRANCH  14  17
ENDBRANCH  11  14
ENDBRANCH   1  11
TORSDOF 5
