REMARK  Name = 61235
REMARK  8 active torsions:
REMARK  status: ('A' for Active; 'I' for Inactive)
REMARK    1  A    between atoms: C_2  and  C_3
REMARK    2  A    between atoms: C_2  and  C_4
REMARK    3  A    between atoms: C_3  and  C_5
REMARK    4  A    between atoms: C_4  and  C_6
REMARK    5  A    between atoms: C_5  and  C_7
REMARK    6  A    between atoms: C_6  and  C_8
REMARK    7  A    between atoms: C_7  and  C_9
REMARK    8  A    between atoms: C_9  and  C_10
REMARK                            x       y       z     vdW  Elec       q    Type
REMARK                         _______ _______ _______ _____ _____    ______ ____
ROOT
ATOM      1  C   UNL     1      -0.259  -0.220  -0.081  0.00  0.00    +0.000 C 
ATOM      2  H   UNL     1      -0.240  -0.858  -0.973  0.00  0.00    +0.000 HD
ATOM      3  H   UNL     1      -0.231  -0.893   0.785  0.00  0.00    +0.000 HD
ENDROOT
BRANCH   1   4
ATOM      4  C   UNL     1      -1.559   0.590  -0.054  0.00  0.00    +0.000 C 
ATOM      5  H   UNL     1      -1.602   1.245  -0.932  0.00  0.00    +0.000 HD
ATOM      6  H   UNL     1      -1.569   1.235   0.833  0.00  0.00    +0.000 HD
BRANCH   4   7
ATOM      7  C   UNL     1      -2.783  -0.328  -0.034  0.00  0.00    +0.000 C 
ATOM      8  H   UNL     1      -2.788  -0.956  -0.933  0.00  0.00    +0.000 HD
ATOM      9  H   UNL     1      -2.722  -1.002   0.830  0.00  0.00    +0.000 HD
BRANCH   7  10
ATOM     10  C   UNL     1      -4.080   0.477   0.039  0.00  0.00    +0.000 C 
ATOM     11  H   UNL     1      -4.072   1.117   0.929  0.00  0.00    +0.000 HD
ATOM     12  H   UNL     1      -4.159   1.135  -0.834  0.00  0.00    +0.000 HD
BRANCH  10  13
ATOM     13  C   UNL     1      -5.298  -0.432   0.093  0.00  0.00    +0.000 C 
ATOM     14  H   UNL     1      -6.214   0.165   0.143  0.00  0.00    +0.000 HD
ATOM     15  H   UNL     1      -5.354  -1.066  -0.798  0.00  0.00    +0.000 HD
ATOM     16  H   UNL     1      -5.266  -1.080   0.975  0.00  0.00    +0.000 HD
ENDBRANCH  10  13
ENDBRANCH   7  10
ENDBRANCH   4   7
ENDBRANCH   1   4
BRANCH   1  17
ATOM     17  C   UNL     1       0.982   0.671  -0.067  0.00  0.00    +0.000 C 
ATOM     18  H   UNL     1       0.996   1.300  -0.965  0.00  0.00    +0.000 HD
ATOM     19  H   UNL     1       0.953   1.325   0.812  0.00  0.00    +0.000 HD
BRANCH  17  21
ATOM     20  O   UNL     1       2.333  -1.329  -0.019  0.00  0.00    +0.000 OA
ATOM     21  C   UNL     1       2.293  -0.100  -0.020  0.00  0.00    +0.000 C 
BRANCH  21  22
ATOM     22  C   UNL     1       3.550   0.750   0.066  0.00  0.00    +0.000 C 
ATOM     23  H   UNL     1       3.496   1.350   0.980  0.00  0.00    +0.000 HD
ATOM     24  H   UNL     1       3.564   1.426  -0.796  0.00  0.00    +0.000 HD
BRANCH  22  25
ATOM     25  C   UNL     1       4.821  -0.080   0.078  0.00  0.00    +0.000 C 
ATOM     26  H   UNL     1       4.840  -0.757   0.938  0.00  0.00    +0.000 HD
ATOM     27  H   UNL     1       5.700   0.569   0.133  0.00  0.00    +0.000 HD
ATOM     28  H   UNL     1       4.901  -0.689  -0.829  0.00  0.00    +0.000 HD
ENDBRANCH  22  25
ENDBRANCH  21  22
ENDBRANCH  17  21
ENDBRANCH   1  17
TORSDOF 8
