REMARK  Name = 246728
REMARK  7 active torsions:
REMARK  status: ('A' for Active; 'I' for Inactive)
REMARK    1  A    between atoms: C_2  and  C_3
REMARK    2  A    between atoms: C_2  and  C_4
REMARK    3  A    between atoms: C_3  and  C_5
REMARK    4  A    between atoms: C_4  and  C_6
REMARK    5  A    between atoms: C_5  and  C_8
REMARK    6  A    between atoms: C_6  and  C_7
REMARK    7  A    between atoms: C_7  and  C_9
REMARK                            x       y       z     vdW  Elec       q    Type
REMARK                         _______ _______ _______ _____ _____    ______ ____
ROOT
ATOM      1  C   UNL     1       0.839  -0.300   0.030  0.00  0.00    +0.000 C 
ATOM      2  H   UNL     1       0.815  -0.953   0.911  0.00  0.00    +0.000 HD
ATOM      3  H   UNL     1       0.768  -0.957  -0.847  0.00  0.00    +0.000 HD
ENDROOT
BRANCH   1   4
ATOM      4  C   UNL     1       2.167   0.462  -0.013  0.00  0.00    +0.000 C 
ATOM      5  H   UNL     1       2.199   1.095  -0.908  0.00  0.00    +0.000 HD
ATOM      6  H   UNL     1       2.234   1.127   0.857  0.00  0.00    +0.000 HD
BRANCH   4   7
ATOM      7  C   UNL     1       3.357  -0.499  -0.017  0.00  0.00    +0.000 C 
ATOM      8  H   UNL     1       3.304  -1.153  -0.896  0.00  0.00    +0.000 HD
ATOM      9  H   UNL     1       3.320  -1.143   0.869  0.00  0.00    +0.000 HD
BRANCH   7  10
ATOM     10  C   UNL     1       4.678   0.253  -0.031  0.00  0.00    +0.000 C 
ATOM     11  H   UNL     1       5.515  -0.453  -0.035  0.00  0.00    +0.000 HD
ATOM     12  H   UNL     1       4.761   0.884  -0.922  0.00  0.00    +0.000 HD
ATOM     13  H   UNL     1       4.777   0.891   0.853  0.00  0.00    +0.000 HD
ENDBRANCH   7  10
ENDBRANCH   4   7
ENDBRANCH   1   4
BRANCH   1  14
ATOM     14  C   UNL     1      -0.369   0.636   0.063  0.00  0.00    +0.000 C 
ATOM     15  H   UNL     1      -0.338   1.246   0.973  0.00  0.00    +0.000 HD
ATOM     16  H   UNL     1      -0.334   1.306  -0.803  0.00  0.00    +0.000 HD
BRANCH  14  18
ATOM     17  O   UNL     1      -1.796  -1.312   0.011  0.00  0.00    +0.000 OA
ATOM     18  C   UNL     1      -1.709  -0.085   0.032  0.00  0.00    +0.000 C 
BRANCH  18  19
ATOM     19  C   UNL     1      -2.934   0.814  -0.008  0.00  0.00    +0.000 C 
ATOM     20  H   UNL     1      -2.925   1.443   0.888  0.00  0.00    +0.000 HD
ATOM     21  H   UNL     1      -2.857   1.458  -0.890  0.00  0.00    +0.000 HD
BRANCH  19  22
ATOM     22  C   UNL     1      -4.234   0.032  -0.066  0.00  0.00    +0.000 C 
ATOM     23  H   UNL     1      -4.342  -0.618   0.809  0.00  0.00    +0.000 HD
ATOM     24  H   UNL     1      -4.273  -0.601  -0.960  0.00  0.00    +0.000 HD
ATOM     25  H   UNL     1      -5.089   0.714  -0.093  0.00  0.00    +0.000 HD
ENDBRANCH  19  22
ENDBRANCH  18  19
ENDBRANCH  14  18
ENDBRANCH   1  14
TORSDOF 7
