REMARK  Name = 11527
REMARK  8 active torsions:
REMARK  status: ('A' for Active; 'I' for Inactive)
REMARK    1  A    between atoms: O_1  and  C_4
REMARK    2  A    between atoms: C_2  and  C_3
REMARK    3  A    between atoms: C_2  and  C_4
REMARK    4  A    between atoms: C_3  and  C_5
REMARK    5  A    between atoms: C_4  and  C_6
REMARK    6  A    between atoms: C_5  and  C_7
REMARK    7  A    between atoms: C_6  and  C_8
REMARK    8  A    between atoms: C_7  and  C_9
REMARK                            x       y       z     vdW  Elec       q    Type
REMARK                         _______ _______ _______ _____ _____    ______ ____
ROOT
ATOM      1  C   UNL     1       0.362  -0.821   0.141  0.00  0.00    +0.000 C 
ATOM      2  H   UNL     1       0.348  -0.974   1.228  0.00  0.00    +0.000 HD
ATOM      3  H   UNL     1       0.139  -1.804  -0.293  0.00  0.00    +0.000 HD
ENDROOT
BRANCH   1   4
ATOM      4  C   UNL     1      -0.738   0.170  -0.260  0.00  0.00    +0.000 C 
ATOM      5  H   UNL     1      -0.706   0.338  -1.343  0.00  0.00    +0.000 HD
ATOM      6  H   UNL     1      -0.572   1.137   0.228  0.00  0.00    +0.000 HD
BRANCH   4   7
ATOM      7  C   UNL     1      -2.121  -0.353   0.140  0.00  0.00    +0.000 C 
ATOM      8  H   UNL     1      -2.137  -0.547   1.220  0.00  0.00    +0.000 HD
ATOM      9  H   UNL     1      -2.300  -1.315  -0.357  0.00  0.00    +0.000 HD
BRANCH   7  10
ATOM     10  C   UNL     1      -3.258   0.610  -0.210  0.00  0.00    +0.000 C 
ATOM     11  H   UNL     1      -3.095   1.565   0.302  0.00  0.00    +0.000 HD
ATOM     12  H   UNL     1      -3.238   0.818  -1.286  0.00  0.00    +0.000 HD
BRANCH  10  13
ATOM     13  C   UNL     1      -4.635   0.082   0.161  0.00  0.00    +0.000 C 
ATOM     14  H   UNL     1      -5.407   0.809  -0.111  0.00  0.00    +0.000 HD
ATOM     15  H   UNL     1      -4.705  -0.104   1.237  0.00  0.00    +0.000 HD
ATOM     16  H   UNL     1      -4.849  -0.854  -0.364  0.00  0.00    +0.000 HD
ENDBRANCH  10  13
ENDBRANCH   7  10
ENDBRANCH   4   7
ENDBRANCH   1   4
BRANCH   1  17
ATOM     17  C   UNL     1       1.776  -0.406  -0.291  0.00  0.00    +0.000 C 
ATOM     18  H   UNL     1       1.794  -0.282  -1.381  0.00  0.00    +0.000 HD
BRANCH  17  19
ATOM     19  C   UNL     1       2.251   0.895   0.364  0.00  0.00    +0.000 C 
ATOM     20  H   UNL     1       2.245   0.784   1.455  0.00  0.00    +0.000 HD
ATOM     21  H   UNL     1       1.580   1.722   0.110  0.00  0.00    +0.000 HD
BRANCH  19  22
ATOM     22  C   UNL     1       3.663   1.271  -0.068  0.00  0.00    +0.000 C 
ATOM     23  H   UNL     1       3.724   1.380  -1.156  0.00  0.00    +0.000 HD
ATOM     24  H   UNL     1       3.953   2.224   0.384  0.00  0.00    +0.000 HD
ATOM     25  H   UNL     1       4.393   0.518   0.245  0.00  0.00    +0.000 HD
ENDBRANCH  19  22
ENDBRANCH  17  19
BRANCH  17  26
ATOM     26  O   UNL     1       2.699  -1.447   0.023  0.00  0.00    +0.000 OA
ATOM     27  H   UNL     1       2.402  -2.251  -0.436  0.00  0.00    +0.000 HD
ENDBRANCH  17  26
ENDBRANCH   1  17
TORSDOF 8
