REMARK  Name = 177
REMARK  1 active torsions:
REMARK  status: ('A' for Active; 'I' for Inactive)
REMARK    1  A    between atoms: C_2  and  C_3
REMARK                            x       y       z     vdW  Elec       q    Type
REMARK                         _______ _______ _______ _____ _____    ______ ____
ROOT
ATOM      1  C   UNL     1      -1.257   0.181   0.000  0.00  0.00    +0.000 C 
ATOM      2  H   UNL     1      -1.794  -0.149   0.892  0.00  0.00    +0.000 HD
ATOM      3  H   UNL     1      -1.187   1.272   0.002  0.00  0.00    +0.000 HD
ATOM      4  H   UNL     1      -1.793  -0.147  -0.894  0.00  0.00    +0.000 HD
ENDROOT
BRANCH   1   6
ATOM      5  O   UNL     1       1.144   0.241   0.000  0.00  0.00    +0.000 OA
ATOM      6  C   UNL     1       0.113  -0.423   0.000  0.00  0.00    +0.000 C 
ATOM      7  H   UNL     1       0.148  -1.525  -0.001  0.00  0.00    +0.000 HD
ENDBRANCH   1   6
TORSDOF 1
