REMARK  Name = 7410
REMARK  2 active torsions:
REMARK  status: ('A' for Active; 'I' for Inactive)
REMARK    1  A    between atoms: C_2  and  C_5
REMARK    2  A    between atoms: C_5  and  C_9
REMARK                            x       y       z     vdW  Elec       q    Type
REMARK                         _______ _______ _______ _____ _____    ______ ____
ROOT
ATOM      1  C   UNL     1       0.286  -0.044  -0.000  0.00  0.00    +0.000 A 
ATOM      2  C   UNL     1      -0.363   1.191  -0.000  0.00  0.00    +0.000 A 
ATOM      3  C   UNL     1      -0.459  -1.223  -0.000  0.00  0.00    +0.000 A 
ATOM      4  C   UNL     1      -1.757   1.246   0.000  0.00  0.00    +0.000 A 
ATOM      5  C   UNL     1      -1.853  -1.168   0.000  0.00  0.00    +0.000 A 
ATOM      6  C   UNL     1      -2.502   0.067   0.000  0.00  0.00    +0.000 A 
ATOM      7  H   UNL     1       0.173   2.134  -0.000  0.00  0.00    +0.000 HD
ATOM      8  H   UNL     1       0.025  -2.196  -0.000  0.00  0.00    +0.000 HD
ATOM      9  H   UNL     1      -2.263   2.207   0.000  0.00  0.00    +0.000 HD
ATOM     10  H   UNL     1      -2.433  -2.086   0.000  0.00  0.00    +0.000 HD
ATOM     11  H   UNL     1      -3.587   0.110   0.000  0.00  0.00    +0.000 HD
ENDROOT
BRANCH   1  13
ATOM     12  O   UNL     1       2.382  -1.163   0.000  0.00  0.00    +0.000 OA
ATOM     13  C   UNL     1       1.738  -0.102  -0.000  0.00  0.00    +0.000 C 
BRANCH  13  14
ATOM     14  C   UNL     1       2.528   1.196   0.000  0.00  0.00    +0.000 C 
ATOM     15  H   UNL     1       2.313   1.774  -0.902  0.00  0.00    +0.000 HD
ATOM     16  H   UNL     1       3.599   0.965  -0.000  0.00  0.00    +0.000 HD
ATOM     17  H   UNL     1       2.313   1.774   0.903  0.00  0.00    +0.000 HD
ENDBRANCH  13  14
ENDBRANCH   1  13
TORSDOF 2
