REMARK  Name = 261491
REMARK  4 active torsions:
REMARK  status: ('A' for Active; 'I' for Inactive)
REMARK    1  A    between atoms: C_2  and  C_7
REMARK    2  A    between atoms: C_5  and  C_9
REMARK    3  A    between atoms: C_7  and  C_10
REMARK    4  A    between atoms: C_7  and  C_11
REMARK                            x       y       z     vdW  Elec       q    Type
REMARK                         _______ _______ _______ _____ _____    ______ ____
ROOT
ATOM      1  O   UNL     1      -2.355   1.667   0.000  0.00  0.00    +0.000 OA
ATOM      2  C   UNL     1       0.707  -0.109  -0.429  0.00  0.00    +0.000 C 
ATOM      3  C   UNL     1      -0.286  -1.227  -0.353  0.00  0.00    +0.000 C 
ATOM      4  C   UNL     1       0.469  -0.980  -1.633  0.00  0.00    +0.000 C 
ATOM      5  C   UNL     1      -1.673  -0.668  -0.157  0.00  0.00    +0.000 C 
ATOM      6  C   UNL     1       0.007   1.208  -0.279  0.00  0.00    +0.000 C 
ATOM      7  C   UNL     1      -1.459   0.843  -0.131  0.00  0.00    +0.000 C 
ATOM      8  H   UNL     1      -0.067  -2.131   0.196  0.00  0.00    +0.000 HD
ATOM      9  H   UNL     1      -0.066  -0.561  -2.477  0.00  0.00    +0.000 HD
ATOM     10  H   UNL     1       1.224  -1.704  -1.916  0.00  0.00    +0.000 HD
ATOM     11  H   UNL     1      -2.305  -0.923  -1.014  0.00  0.00    +0.000 HD
ATOM     12  H   UNL     1       0.137   1.820  -1.176  0.00  0.00    +0.000 HD
ATOM     13  H   UNL     1       0.304   1.778   0.603  0.00  0.00    +0.000 HD
ENDROOT
BRANCH   5  14
ATOM     14  C   UNL     1      -2.302  -1.134   1.145  0.00  0.00    +0.000 C 
ATOM     15  H   UNL     1      -1.691  -0.848   2.009  0.00  0.00    +0.000 HD
ATOM     16  H   UNL     1      -3.294  -0.690   1.280  0.00  0.00    +0.000 HD
ATOM     17  H   UNL     1      -2.410  -2.223   1.158  0.00  0.00    +0.000 HD
ENDBRANCH   5  14
BRANCH   2  18
ATOM     18  C   UNL     1       2.009  -0.254   0.277  0.00  0.00    +0.000 C 
ATOM     19  H   UNL     1       2.421  -1.256   0.095  0.00  0.00    +0.000 HD
BRANCH  18  20
ATOM     20  C   UNL     1       3.040   0.761  -0.234  0.00  0.00    +0.000 C 
ATOM     21  H   UNL     1       2.736   1.792  -0.027  0.00  0.00    +0.000 HD
ATOM     22  H   UNL     1       4.013   0.596   0.241  0.00  0.00    +0.000 HD
ATOM     23  H   UNL     1       3.173   0.665  -1.317  0.00  0.00    +0.000 HD
ENDBRANCH  18  20
BRANCH  18  24
ATOM     24  C   UNL     1       1.843  -0.107   1.795  0.00  0.00    +0.000 C 
ATOM     25  H   UNL     1       1.575   0.910   2.095  0.00  0.00    +0.000 HD
ATOM     26  H   UNL     1       2.783  -0.355   2.302  0.00  0.00    +0.000 HD
ATOM     27  H   UNL     1       1.073  -0.784   2.177  0.00  0.00    +0.000 HD
ENDBRANCH  18  24
ENDBRANCH   2  18
TORSDOF 4
