REMARK  Name = 7519
REMARK  2 active torsions:
REMARK  status: ('A' for Active; 'I' for Inactive)
REMARK    1  A    between atoms: O_1  and  C_2
REMARK    2  A    between atoms: O_1  and  C_8
REMARK                            x       y       z     vdW  Elec       q    Type
REMARK                         _______ _______ _______ _____ _____    ______ ____
ROOT
ATOM      1  C   UNL     1       0.570  -0.301  -0.000  0.00  0.00    +0.000 A 
ATOM      2  C   UNL     1       0.176   1.037  -0.000  0.00  0.00    +0.000 A 
ATOM      3  C   UNL     1      -0.392  -1.311  -0.000  0.00  0.00    +0.000 A 
ATOM      4  C   UNL     1      -1.180   1.365   0.000  0.00  0.00    +0.000 A 
ATOM      5  C   UNL     1      -1.748  -0.984   0.000  0.00  0.00    +0.000 A 
ATOM      6  C   UNL     1      -2.142   0.354   0.000  0.00  0.00    +0.000 A 
ATOM      7  H   UNL     1       0.870   1.871  -0.000  0.00  0.00    +0.000 HD
ATOM      8  H   UNL     1      -0.091  -2.356   0.000  0.00  0.00    +0.000 HD
ATOM      9  H   UNL     1      -1.488   2.406   0.000  0.00  0.00    +0.000 HD
ATOM     10  H   UNL     1      -2.497  -1.770   0.000  0.00  0.00    +0.000 HD
ATOM     11  H   UNL     1      -3.197   0.610   0.000  0.00  0.00    +0.000 HD
ENDROOT
BRANCH   1  12
ATOM     12  O   UNL     1       1.893  -0.621   0.000  0.00  0.00    +0.000 OA
BRANCH  12  13
ATOM     13  C   UNL     1       2.823   0.461   0.000  0.00  0.00    +0.000 C 
ATOM     14  H   UNL     1       2.737   1.065   0.910  0.00  0.00    +0.000 HD
ATOM     15  H   UNL     1       2.737   1.065  -0.909  0.00  0.00    +0.000 HD
ATOM     16  H   UNL     1       3.827   0.024   0.001  0.00  0.00    +0.000 HD
ENDBRANCH  12  13
ENDBRANCH   1  12
TORSDOF 2
