REMARK  Name = 638014
REMARK  6 active torsions:
REMARK  status: ('A' for Active; 'I' for Inactive)
REMARK    1  A    between atoms: C_2  and  C_8
REMARK    2  A    between atoms: C_2  and  C_9
REMARK    3  A    between atoms: C_5  and  C_10
REMARK    4  A    between atoms: C_7  and  C_11
REMARK    5  A    between atoms: C_12  and  C_13
REMARK    6  A    between atoms: C_13  and  C_14
REMARK                            x       y       z     vdW  Elec       q    Type
REMARK                         _______ _______ _______ _____ _____    ______ ____
ROOT
ATOM      1  C   UNL     1      -1.505  -1.116  -0.016  0.00  0.00    +0.000 C 
ATOM      2  C   UNL     1      -2.972  -0.631   0.151  0.00  0.00    +0.000 C 
ATOM      3  C   UNL     1      -3.223   0.692  -0.549  0.00  0.00    +0.000 C 
ATOM      4  C   UNL     1      -0.497   0.036   0.202  0.00  0.00    +0.000 C 
ATOM      5  C   UNL     1      -2.318   1.768   0.030  0.00  0.00    +0.000 C 
ATOM      6  C   UNL     1      -0.882   1.337   0.247  0.00  0.00    +0.000 C 
ATOM      7  H   UNL     1      -3.207  -0.511   1.218  0.00  0.00    +0.000 HD
ATOM      8  H   UNL     1      -3.671  -1.385  -0.233  0.00  0.00    +0.000 HD
ATOM      9  H   UNL     1      -4.271   0.988  -0.426  0.00  0.00    +0.000 HD
ATOM     10  H   UNL     1      -3.052   0.595  -1.628  0.00  0.00    +0.000 HD
ATOM     11  H   UNL     1      -2.725   2.101   0.993  0.00  0.00    +0.000 HD
ATOM     12  H   UNL     1      -2.346   2.634  -0.644  0.00  0.00    +0.000 HD
ENDROOT
BRANCH   1  13
ATOM     13  C   UNL     1      -1.327  -1.697  -1.438  0.00  0.00    +0.000 C 
ATOM     14  H   UNL     1      -1.418  -0.924  -2.209  0.00  0.00    +0.000 HD
ATOM     15  H   UNL     1      -0.342  -2.163  -1.560  0.00  0.00    +0.000 HD
ATOM     16  H   UNL     1      -2.077  -2.468  -1.647  0.00  0.00    +0.000 HD
ENDBRANCH   1  13
BRANCH   1  17
ATOM     17  C   UNL     1      -1.314  -2.259   1.010  0.00  0.00    +0.000 C 
ATOM     18  H   UNL     1      -2.135  -2.985   0.944  0.00  0.00    +0.000 HD
ATOM     19  H   UNL     1      -0.390  -2.822   0.839  0.00  0.00    +0.000 HD
ATOM     20  H   UNL     1      -1.294  -1.875   2.037  0.00  0.00    +0.000 HD
ENDBRANCH   1  17
BRANCH   4  21
ATOM     21  C   UNL     1       0.896  -0.362   0.330  0.00  0.00    +0.000 C 
ATOM     22  C   UNL     1       1.885   0.316  -0.243  0.00  0.00    +0.000 C 
ATOM     23  H   UNL     1       1.111  -1.226   0.949  0.00  0.00    +0.000 HD
ATOM     24  H   UNL     1       1.731   1.164  -0.899  0.00  0.00    +0.000 HD
BRANCH  22  26
ATOM     25  O   UNL     1       3.581  -1.133   0.595  0.00  0.00    +0.000 OA
ATOM     26  C   UNL     1       3.292  -0.143  -0.074  0.00  0.00    +0.000 C 
BRANCH  26  27
ATOM     27  C   UNL     1       4.360   0.675  -0.751  0.00  0.00    +0.000 C 
ATOM     28  H   UNL     1       5.070   0.002  -1.240  0.00  0.00    +0.000 HD
ATOM     29  H   UNL     1       3.937   1.330  -1.517  0.00  0.00    +0.000 HD
ATOM     30  H   UNL     1       4.876   1.283  -0.004  0.00  0.00    +0.000 HD
ENDBRANCH  26  27
ENDBRANCH  22  26
ENDBRANCH   4  21
BRANCH   6  31
ATOM     31  C   UNL     1       0.025   2.518   0.507  0.00  0.00    +0.000 C 
ATOM     32  H   UNL     1       0.329   2.987  -0.433  0.00  0.00    +0.000 HD
ATOM     33  H   UNL     1       0.906   2.270   1.105  0.00  0.00    +0.000 HD
ATOM     34  H   UNL     1      -0.510   3.274   1.095  0.00  0.00    +0.000 HD
ENDBRANCH   6  31
TORSDOF 6
