REMARK  Name = 249286
REMARK  4 active torsions:
REMARK  status: ('A' for Active; 'I' for Inactive)
REMARK    1  A    between atoms: C_2  and  C_7
REMARK    2  A    between atoms: C_5  and  C_9
REMARK    3  A    between atoms: C_7  and  C_10
REMARK    4  A    between atoms: C_7  and  C_11
REMARK                            x       y       z     vdW  Elec       q    Type
REMARK                         _______ _______ _______ _____ _____    ______ ____
ROOT
ATOM      1  O   UNL     1      -2.164  -1.710  -0.266  0.00  0.00    +0.000 OA
ATOM      2  C   UNL     1       0.686   0.102   0.634  0.00  0.00    +0.000 C 
ATOM      3  C   UNL     1      -0.430   1.203   0.542  0.00  0.00    +0.000 C 
ATOM      4  C   UNL     1       0.970   1.542   0.877  0.00  0.00    +0.000 C 
ATOM      5  C   UNL     1      -1.289   0.582  -0.520  0.00  0.00    +0.000 C 
ATOM      6  C   UNL     1      -0.180  -1.055   1.014  0.00  0.00    +0.000 C 
ATOM      7  C   UNL     1      -1.338  -0.860   0.026  0.00  0.00    +0.000 C 
ATOM      8  H   UNL     1      -1.068   1.401   1.408  0.00  0.00    +0.000 HD
ATOM      9  H   UNL     1       1.188   1.806   1.913  0.00  0.00    +0.000 HD
ATOM     10  H   UNL     1       1.322   2.351   0.252  0.00  0.00    +0.000 HD
ATOM     11  H   UNL     1      -0.817   0.604  -1.507  0.00  0.00    +0.000 HD
ATOM     12  H   UNL     1      -0.563  -0.946   2.035  0.00  0.00    +0.000 HD
ATOM     13  H   UNL     1       0.228  -2.058   0.909  0.00  0.00    +0.000 HD
ENDROOT
BRANCH   5  14
ATOM     14  C   UNL     1      -2.671   1.201  -0.602  0.00  0.00    +0.000 C 
ATOM     15  H   UNL     1      -3.272   0.705  -1.372  0.00  0.00    +0.000 HD
ATOM     16  H   UNL     1      -3.214   1.109   0.345  0.00  0.00    +0.000 HD
ATOM     17  H   UNL     1      -2.605   2.266  -0.849  0.00  0.00    +0.000 HD
ENDBRANCH   5  14
BRANCH   2  18
ATOM     18  C   UNL     1       1.556  -0.316  -0.536  0.00  0.00    +0.000 C 
ATOM     19  H   UNL     1       0.954  -0.616  -1.402  0.00  0.00    +0.000 HD
BRANCH  18  20
ATOM     20  C   UNL     1       2.445   0.841  -0.997  0.00  0.00    +0.000 C 
ATOM     21  H   UNL     1       3.115   1.227  -0.220  0.00  0.00    +0.000 HD
ATOM     22  H   UNL     1       3.116   0.473  -1.786  0.00  0.00    +0.000 HD
ATOM     23  H   UNL     1       1.883   1.642  -1.491  0.00  0.00    +0.000 HD
ENDBRANCH  18  20
BRANCH  18  24
ATOM     24  C   UNL     1       2.414  -1.530  -0.172  0.00  0.00    +0.000 C 
ATOM     25  H   UNL     1       2.860  -1.424   0.823  0.00  0.00    +0.000 HD
ATOM     26  H   UNL     1       3.233  -1.658  -0.890  0.00  0.00    +0.000 HD
ATOM     27  H   UNL     1       1.851  -2.467  -0.201  0.00  0.00    +0.000 HD
ENDBRANCH  18  24
ENDBRANCH   2  18
TORSDOF 4
