REMARK  Name = 264
REMARK  4 active torsions:
REMARK  status: ('A' for Active; 'I' for Inactive)
REMARK    1  A    between atoms: O_1  and  C_6
REMARK    2  A    between atoms: C_3  and  C_4
REMARK    3  A    between atoms: C_3  and  C_5
REMARK    4  A    between atoms: C_4  and  C_6
REMARK                            x       y       z     vdW  Elec       q    Type
REMARK                         _______ _______ _______ _____ _____    ______ ____
ROOT
ATOM      1  C   UNL     1      -1.396   0.414  -0.036  0.00  0.00    +0.000 C 
ATOM      2  H   UNL     1      -1.303   1.004  -0.956  0.00  0.00    +0.000 HD
ATOM      3  H   UNL     1      -1.305   1.120   0.798  0.00  0.00    +0.000 HD
ENDROOT
BRANCH   1   4
ATOM      4  C   UNL     1      -2.780  -0.219   0.007  0.00  0.00    +0.000 C 
ATOM      5  H   UNL     1      -2.922  -0.783   0.934  0.00  0.00    +0.000 HD
ATOM      6  H   UNL     1      -2.923  -0.902  -0.836  0.00  0.00    +0.000 HD
ATOM      7  H   UNL     1      -3.553   0.554  -0.045  0.00  0.00    +0.000 HD
ENDBRANCH   1   4
BRANCH   1   8
ATOM      8  C   UNL     1      -0.274  -0.615   0.033  0.00  0.00    +0.000 C 
ATOM      9  H   UNL     1      -0.352  -1.193   0.960  0.00  0.00    +0.000 HD
ATOM     10  H   UNL     1      -0.347  -1.298  -0.820  0.00  0.00    +0.000 HD
BRANCH   8  12
ATOM     11  O   UNL     1       1.263   1.248   0.016  0.00  0.00    +0.000 OA
ATOM     12  C   UNL     1       1.086   0.036   0.001  0.00  0.00    +0.000 C 
BRANCH  12  13
ATOM     13  O   UNL     1       2.101  -0.863  -0.020  0.00  0.00    +0.000 OA
ATOM     14  H   UNL     1       2.979  -0.425  -0.029  0.00  0.00    +0.000 HD
ENDBRANCH  12  13
ENDBRANCH   8  12
ENDBRANCH   1   8
TORSDOF 4
