REMARK  Name = 31272
REMARK  6 active torsions:
REMARK  status: ('A' for Active; 'I' for Inactive)
REMARK    1  A    between atoms: O_1  and  C_5
REMARK    2  A    between atoms: O_1  and  C_7
REMARK    3  A    between atoms: C_3  and  C_4
REMARK    4  A    between atoms: C_3  and  C_5
REMARK    5  A    between atoms: C_4  and  C_6
REMARK    6  A    between atoms: C_7  and  C_8
REMARK                            x       y       z     vdW  Elec       q    Type
REMARK                         _______ _______ _______ _____ _____    ______ ____
ROOT
ATOM      1  C   UNL     1       1.516   0.413   0.020  0.00  0.00    +0.000 C 
ATOM      2  H   UNL     1       1.533   1.065   0.902  0.00  0.00    +0.000 HD
ATOM      3  H   UNL     1       1.531   1.083  -0.849  0.00  0.00    +0.000 HD
ENDROOT
BRANCH   1   4
ATOM      4  C   UNL     1       2.745  -0.493   0.009  0.00  0.00    +0.000 C 
ATOM      5  H   UNL     1       2.714  -1.153  -0.867  0.00  0.00    +0.000 HD
ATOM      6  H   UNL     1       2.743  -1.133   0.898  0.00  0.00    +0.000 HD
BRANCH   4   7
ATOM      7  C   UNL     1       4.032   0.315  -0.025  0.00  0.00    +0.000 C 
ATOM      8  H   UNL     1       4.080   0.941  -0.921  0.00  0.00    +0.000 HD
ATOM      9  H   UNL     1       4.110   0.965   0.853  0.00  0.00    +0.000 HD
ATOM     10  H   UNL     1       4.899  -0.354  -0.031  0.00  0.00    +0.000 HD
ENDBRANCH   4   7
ENDBRANCH   1   4
BRANCH   1  11
ATOM     11  C   UNL     1       0.225  -0.392   0.010  0.00  0.00    +0.000 C 
ATOM     12  H   UNL     1       0.183  -1.023  -0.886  0.00  0.00    +0.000 HD
ATOM     13  H   UNL     1       0.173  -1.029   0.900  0.00  0.00    +0.000 HD
BRANCH  11  14
ATOM     14  O   UNL     1      -0.876   0.506   0.005  0.00  0.00    +0.000 OA
BRANCH  14  16
ATOM     15  O   UNL     1      -2.352  -1.271  -0.009  0.00  0.00    +0.000 OA
ATOM     16  C   UNL     1      -2.116  -0.070  -0.004  0.00  0.00    +0.000 C 
BRANCH  16  17
ATOM     17  C   UNL     1      -3.174   0.992  -0.006  0.00  0.00    +0.000 C 
ATOM     18  H   UNL     1      -3.075   1.611  -0.902  0.00  0.00    +0.000 HD
ATOM     19  H   UNL     1      -3.087   1.603   0.896  0.00  0.00    +0.000 HD
ATOM     20  H   UNL     1      -4.161   0.521  -0.015  0.00  0.00    +0.000 HD
ENDBRANCH  16  17
ENDBRANCH  14  16
ENDBRANCH  11  14
ENDBRANCH   1  11
TORSDOF 6
