REMARK  Name = 637511
REMARK  2 active torsions:
REMARK  status: ('A' for Active; 'I' for Inactive)
REMARK    1  A    between atoms: C_2  and  C_7
REMARK    2  A    between atoms: C_9  and  C_10
REMARK                            x       y       z     vdW  Elec       q    Type
REMARK                         _______ _______ _______ _____ _____    ______ ____
ROOT
ATOM      1  C   UNL     1      -0.436  -0.282   0.093  0.00  0.00    +0.000 A 
ATOM      2  C   UNL     1      -0.826   1.057   0.113  0.00  0.00    +0.000 A 
ATOM      3  C   UNL     1      -1.397  -1.286  -0.022  0.00  0.00    +0.000 A 
ATOM      4  C   UNL     1      -2.177   1.392   0.019  0.00  0.00    +0.000 A 
ATOM      5  C   UNL     1      -2.748  -0.952  -0.117  0.00  0.00    +0.000 A 
ATOM      6  C   UNL     1      -3.138   0.387  -0.097  0.00  0.00    +0.000 A 
ATOM      7  H   UNL     1      -0.115   1.871   0.220  0.00  0.00    +0.000 HD
ATOM      8  H   UNL     1      -1.112  -2.336  -0.042  0.00  0.00    +0.000 HD
ATOM      9  H   UNL     1      -2.482   2.434   0.039  0.00  0.00    +0.000 HD
ATOM     10  H   UNL     1      -3.496  -1.734  -0.207  0.00  0.00    +0.000 HD
ATOM     11  H   UNL     1      -4.190   0.647  -0.170  0.00  0.00    +0.000 HD
ENDROOT
BRANCH   1  12
ATOM     12  C   UNL     1       0.973  -0.631   0.191  0.00  0.00    +0.000 C 
ATOM     13  C   UNL     1       2.004   0.200  -0.073  0.00  0.00    +0.000 C 
ATOM     14  H   UNL     1       1.182  -1.655   0.492  0.00  0.00    +0.000 HD
ATOM     15  H   UNL     1       1.889   1.225  -0.400  0.00  0.00    +0.000 HD
BRANCH  13  17
ATOM     16  O   UNL     1       4.358   0.414  -0.167  0.00  0.00    +0.000 OA
ATOM     17  C   UNL     1       3.388  -0.299   0.061  0.00  0.00    +0.000 C 
ATOM     18  H   UNL     1       3.501  -1.348   0.379  0.00  0.00    +0.000 HD
ENDBRANCH  13  17
ENDBRANCH   1  12
TORSDOF 2
