REMARK  Name = 1551246
REMARK  7 active torsions:
REMARK  status: ('A' for Active; 'I' for Inactive)
REMARK    1  A    between atoms: C_2  and  C_3
REMARK    2  A    between atoms: C_2  and  C_4
REMARK    3  A    between atoms: C_3  and  C_5
REMARK    4  A    between atoms: C_4  and  C_7
REMARK    5  A    between atoms: C_6  and  C_8
REMARK    6  A    between atoms: C_6  and  C_9
REMARK    7  A    between atoms: C_10  and  C_11
REMARK                            x       y       z     vdW  Elec       q    Type
REMARK                         _______ _______ _______ _____ _____    ______ ____
ROOT
ATOM      1  C   UNL     1      -1.182   1.582   0.306  0.00  0.00    +0.000 C 
ATOM      2  H   UNL     1      -0.873   2.153   1.191  0.00  0.00    +0.000 HD
ATOM      3  H   UNL     1      -2.012   2.156  -0.122  0.00  0.00    +0.000 HD
ENDROOT
BRANCH   1   4
ATOM      4  C   UNL     1      -0.033   1.504  -0.708  0.00  0.00    +0.000 C 
ATOM      5  H   UNL     1       0.253   2.522  -1.000  0.00  0.00    +0.000 HD
ATOM      6  H   UNL     1      -0.384   1.016  -1.625  0.00  0.00    +0.000 HD
BRANCH   4   7
ATOM      7  C   UNL     1       1.198   0.788  -0.184  0.00  0.00    +0.000 C 
ATOM      8  C   UNL     1       1.717  -0.332  -0.722  0.00  0.00    +0.000 C 
ATOM      9  H   UNL     1       1.228  -0.783  -1.581  0.00  0.00    +0.000 HD
BRANCH   7  10
ATOM     10  C   UNL     1       1.868   1.437   0.999  0.00  0.00    +0.000 C 
ATOM     11  H   UNL     1       2.879   1.074   1.205  0.00  0.00    +0.000 HD
ATOM     12  H   UNL     1       1.960   2.516   0.830  0.00  0.00    +0.000 HD
ATOM     13  H   UNL     1       1.273   1.284   1.905  0.00  0.00    +0.000 HD
ENDBRANCH   7  10
BRANCH   8  15
ATOM     14  N   UNL     1       3.850  -1.503   0.140  0.00  0.00    +0.000 NA
ATOM     15  C   UNL     1       2.890  -0.976  -0.243  0.00  0.00    +0.000 C 
ENDBRANCH   8  15
ENDBRANCH   4   7
ENDBRANCH   1   4
BRANCH   1  16
ATOM     16  C   UNL     1      -1.648   0.224   0.754  0.00  0.00    +0.000 C 
ATOM     17  C   UNL     1      -2.531  -0.593   0.150  0.00  0.00    +0.000 C 
ATOM     18  H   UNL     1      -1.200  -0.124   1.683  0.00  0.00    +0.000 HD
BRANCH  17  19
ATOM     19  C   UNL     1      -2.953  -1.944   0.655  0.00  0.00    +0.000 C 
ATOM     20  H   UNL     1      -4.033  -1.966   0.829  0.00  0.00    +0.000 HD
ATOM     21  H   UNL     1      -2.698  -2.721  -0.073  0.00  0.00    +0.000 HD
ATOM     22  H   UNL     1      -2.456  -2.193   1.598  0.00  0.00    +0.000 HD
ENDBRANCH  17  19
BRANCH  17  23
ATOM     23  C   UNL     1      -3.177  -0.188  -1.148  0.00  0.00    +0.000 C 
ATOM     24  H   UNL     1      -2.977  -0.945  -1.914  0.00  0.00    +0.000 HD
ATOM     25  H   UNL     1      -2.835   0.767  -1.552  0.00  0.00    +0.000 HD
ATOM     26  H   UNL     1      -4.262  -0.116  -1.017  0.00  0.00    +0.000 HD
ENDBRANCH  17  23
ENDBRANCH   1  16
TORSDOF 7
