REMARK  Name = 7967
REMARK  0 active torsions:
REMARK  status: ('A' for Active; 'I' for Inactive)
REMARK                            x       y       z     vdW  Elec       q    Type
REMARK                         _______ _______ _______ _____ _____    ______ ____
ROOT
ATOM      1  O   UNL     1       2.245   0.000   0.297  0.00  0.00    +0.000 OA
ATOM      2  C   UNL     1      -1.835   0.000  -0.114  0.00  0.00    +0.000 C 
ATOM      3  C   UNL     1      -1.064  -1.258   0.279  0.00  0.00    +0.000 C 
ATOM      4  C   UNL     1      -1.063   1.258   0.280  0.00  0.00    +0.000 C 
ATOM      5  C   UNL     1       0.325  -1.286  -0.344  0.00  0.00    +0.000 C 
ATOM      6  C   UNL     1       0.325   1.286  -0.344  0.00  0.00    +0.000 C 
ATOM      7  C   UNL     1       1.066   0.000  -0.054  0.00  0.00    +0.000 C 
ATOM      8  H   UNL     1      -2.019   0.000  -1.195  0.00  0.00    +0.000 HD
ATOM      9  H   UNL     1      -2.813   0.000   0.380  0.00  0.00    +0.000 HD
ATOM     10  H   UNL     1      -1.624  -2.147  -0.030  0.00  0.00    +0.000 HD
ATOM     11  H   UNL     1      -0.975  -1.298   1.372  0.00  0.00    +0.000 HD
ATOM     12  H   UNL     1      -0.974   1.297   1.372  0.00  0.00    +0.000 HD
ATOM     13  H   UNL     1      -1.624   2.148  -0.029  0.00  0.00    +0.000 HD
ATOM     14  H   UNL     1       0.264  -1.405  -1.431  0.00  0.00    +0.000 HD
ATOM     15  H   UNL     1       0.897  -2.129   0.060  0.00  0.00    +0.000 HD
ATOM     16  H   UNL     1       0.897   2.128   0.059  0.00  0.00    +0.000 HD
ATOM     17  H   UNL     1       0.263   1.404  -1.431  0.00  0.00    +0.000 HD
ENDROOT
TORSDOF 0
