REMARK  Name = 2969
REMARK  10 active torsions:
REMARK  status: ('A' for Active; 'I' for Inactive)
REMARK    1  A    between atoms: O_1  and  C_12
REMARK    2  A    between atoms: C_3  and  C_4
REMARK    3  A    between atoms: C_3  and  C_5
REMARK    4  A    between atoms: C_4  and  C_6
REMARK    5  A    between atoms: C_5  and  C_7
REMARK    6  A    between atoms: C_6  and  C_8
REMARK    7  A    between atoms: C_7  and  C_9
REMARK    8  A    between atoms: C_8  and  C_10
REMARK    9  A    between atoms: C_9  and  C_11
REMARK   10  A    between atoms: C_10  and  C_12
REMARK                            x       y       z     vdW  Elec       q    Type
REMARK                         _______ _______ _______ _____ _____    ______ ____
ROOT
ATOM      1  C   UNL     1       1.731   0.438   0.070  0.00  0.00    +0.000 C 
ATOM      2  H   UNL     1       1.762   1.018   1.001  0.00  0.00    +0.000 HD
ATOM      3  H   UNL     1       1.760   1.167  -0.749  0.00  0.00    +0.000 HD
ENDROOT
BRANCH   1   4
ATOM      4  C   UNL     1       0.394  -0.308   0.004  0.00  0.00    +0.000 C 
ATOM      5  H   UNL     1       0.350  -1.012   0.844  0.00  0.00    +0.000 HD
ATOM      6  H   UNL     1       0.378  -0.917  -0.909  0.00  0.00    +0.000 HD
BRANCH   4   7
ATOM      7  C   UNL     1      -0.861   0.570   0.028  0.00  0.00    +0.000 C 
ATOM      8  H   UNL     1      -0.831   1.216   0.913  0.00  0.00    +0.000 HD
ATOM      9  H   UNL     1      -0.848   1.230  -0.848  0.00  0.00    +0.000 HD
BRANCH   7  10
ATOM     10  C   UNL     1      -2.165  -0.236   0.040  0.00  0.00    +0.000 C 
ATOM     11  H   UNL     1      -2.203  -0.857   0.944  0.00  0.00    +0.000 HD
ATOM     12  H   UNL     1      -2.174  -0.926  -0.812  0.00  0.00    +0.000 HD
BRANCH  10  13
ATOM     13  C   UNL     1      -3.403   0.660  -0.021  0.00  0.00    +0.000 C 
ATOM     14  H   UNL     1      -3.411   1.331   0.846  0.00  0.00    +0.000 HD
ATOM     15  H   UNL     1      -3.373   1.264  -0.935  0.00  0.00    +0.000 HD
BRANCH  13  17
ATOM     16  O   UNL     1      -4.804  -1.333   0.022  0.00  0.00    +0.000 OA
ATOM     17  C   UNL     1      -4.702  -0.115  -0.021  0.00  0.00    +0.000 C 
BRANCH  17  18
ATOM     18  O   UNL     1      -5.776   0.718  -0.052  0.00  0.00    +0.000 OA
ATOM     19  H   UNL     1      -6.623   0.222  -0.043  0.00  0.00    +0.000 HD
ENDBRANCH  17  18
ENDBRANCH  13  17
ENDBRANCH  10  13
ENDBRANCH   7  10
ENDBRANCH   4   7
ENDBRANCH   1   4
BRANCH   1  20
ATOM     20  C   UNL     1       2.986  -0.437  -0.010  0.00  0.00    +0.000 C 
ATOM     21  H   UNL     1       2.945  -1.034  -0.929  0.00  0.00    +0.000 HD
ATOM     22  H   UNL     1       2.978  -1.145   0.828  0.00  0.00    +0.000 HD
BRANCH  20  23
ATOM     23  C   UNL     1       4.288   0.366   0.013  0.00  0.00    +0.000 C 
ATOM     24  H   UNL     1       4.303   1.067  -0.830  0.00  0.00    +0.000 HD
ATOM     25  H   UNL     1       4.333   0.963   0.931  0.00  0.00    +0.000 HD
BRANCH  23  26
ATOM     26  C   UNL     1       5.507  -0.555  -0.063  0.00  0.00    +0.000 C 
ATOM     27  H   UNL     1       5.486  -1.269   0.769  0.00  0.00    +0.000 HD
ATOM     28  H   UNL     1       5.476  -1.138  -0.991  0.00  0.00    +0.000 HD
BRANCH  26  29
ATOM     29  C   UNL     1       6.805   0.233  -0.009  0.00  0.00    +0.000 C 
ATOM     30  H   UNL     1       6.872   0.936  -0.845  0.00  0.00    +0.000 HD
ATOM     31  H   UNL     1       7.663  -0.445  -0.066  0.00  0.00    +0.000 HD
ATOM     32  H   UNL     1       6.882   0.800   0.924  0.00  0.00    +0.000 HD
ENDBRANCH  26  29
ENDBRANCH  23  26
ENDBRANCH  20  23
ENDBRANCH   1  20
TORSDOF 10
