REMARK  Name = 8175
REMARK  9 active torsions:
REMARK  status: ('A' for Active; 'I' for Inactive)
REMARK    1  A    between atoms: C_2  and  C_3
REMARK    2  A    between atoms: C_2  and  C_4
REMARK    3  A    between atoms: C_3  and  C_5
REMARK    4  A    between atoms: C_4  and  C_6
REMARK    5  A    between atoms: C_5  and  C_7
REMARK    6  A    between atoms: C_6  and  C_8
REMARK    7  A    between atoms: C_7  and  C_9
REMARK    8  A    between atoms: C_8  and  C_10
REMARK    9  A    between atoms: C_9  and  C_11
REMARK                            x       y       z     vdW  Elec       q    Type
REMARK                         _______ _______ _______ _____ _____    ______ ____
ROOT
ATOM      1  C   UNL     1      -1.187  -0.502   0.035  0.00  0.00    +0.000 C 
ATOM      2  H   UNL     1      -1.241  -1.119   0.939  0.00  0.00    +0.000 HD
ATOM      3  H   UNL     1      -1.214  -1.182  -0.825  0.00  0.00    +0.000 HD
ENDROOT
BRANCH   1   4
ATOM      4  C   UNL     1       0.126   0.287   0.026  0.00  0.00    +0.000 C 
ATOM      5  H   UNL     1       0.163   0.955   0.895  0.00  0.00    +0.000 HD
ATOM      6  H   UNL     1       0.170   0.918  -0.870  0.00  0.00    +0.000 HD
BRANCH   4   7
ATOM      7  C   UNL     1       1.335  -0.651   0.048  0.00  0.00    +0.000 C 
ATOM      8  H   UNL     1       1.292  -1.278   0.947  0.00  0.00    +0.000 HD
ATOM      9  H   UNL     1       1.281  -1.328  -0.814  0.00  0.00    +0.000 HD
BRANCH   7  10
ATOM     10  C   UNL     1       2.676   0.087   0.017  0.00  0.00    +0.000 C 
ATOM     11  H   UNL     1       2.701   0.753  -0.855  0.00  0.00    +0.000 HD
ATOM     12  H   UNL     1       2.751   0.733   0.900  0.00  0.00    +0.000 HD
BRANCH  10  13
ATOM     13  C   UNL     1       3.881  -0.849  -0.033  0.00  0.00    +0.000 C 
ATOM     14  H   UNL     1       3.886  -1.513   0.837  0.00  0.00    +0.000 HD
ATOM     15  H   UNL     1       3.844  -1.468  -0.936  0.00  0.00    +0.000 HD
BRANCH  13  17
ATOM     16  O   UNL     1       5.307   1.117   0.019  0.00  0.00    +0.000 OA
ATOM     17  C   UNL     1       5.194  -0.102  -0.046  0.00  0.00    +0.000 C 
ATOM     18  H   UNL     1       6.091  -0.743  -0.112  0.00  0.00    +0.000 HD
ENDBRANCH  13  17
ENDBRANCH  10  13
ENDBRANCH   7  10
ENDBRANCH   4   7
ENDBRANCH   1   4
BRANCH   1  19
ATOM     19  C   UNL     1      -2.396   0.435  -0.020  0.00  0.00    +0.000 C 
ATOM     20  H   UNL     1      -2.325   1.071  -0.911  0.00  0.00    +0.000 HD
ATOM     21  H   UNL     1      -2.370   1.104   0.849  0.00  0.00    +0.000 HD
BRANCH  19  22
ATOM     22  C   UNL     1      -3.737  -0.304  -0.044  0.00  0.00    +0.000 C 
ATOM     23  H   UNL     1      -3.783  -0.939  -0.937  0.00  0.00    +0.000 HD
ATOM     24  H   UNL     1      -3.788  -0.974   0.823  0.00  0.00    +0.000 HD
BRANCH  22  25
ATOM     25  C   UNL     1      -4.947   0.632  -0.025  0.00  0.00    +0.000 C 
ATOM     26  H   UNL     1      -4.936   1.270  -0.916  0.00  0.00    +0.000 HD
ATOM     27  H   UNL     1      -4.892   1.292   0.849  0.00  0.00    +0.000 HD
BRANCH  25  28
ATOM     28  C   UNL     1      -6.251  -0.150   0.023  0.00  0.00    +0.000 C 
ATOM     29  H   UNL     1      -7.104   0.537   0.034  0.00  0.00    +0.000 HD
ATOM     30  H   UNL     1      -6.350  -0.801  -0.851  0.00  0.00    +0.000 HD
ATOM     31  H   UNL     1      -6.304  -0.771   0.923  0.00  0.00    +0.000 HD
ENDBRANCH  25  28
ENDBRANCH  22  25
ENDBRANCH  19  22
ENDBRANCH   1  19
TORSDOF 9
