REMARK  Name = 650
REMARK  3 active torsions:
REMARK  status: ('A' for Active; 'I' for Inactive)
REMARK    1  A    between atoms: C_3  and  C_4
REMARK    2  A    between atoms: C_3  and  C_5
REMARK    3  A    between atoms: C_4  and  C_6
REMARK                            x       y       z     vdW  Elec       q    Type
REMARK                         _______ _______ _______ _____ _____    ______ ____
ROOT
ATOM      1  O   UNL     1       1.328   1.161   0.000  0.00  0.00    +0.000 OA
ATOM      2  C   UNL     1       0.757   0.078  -0.000  0.00  0.00    +0.000 C 
ENDROOT
BRANCH   2   3
ATOM      3  C   UNL     1       1.475  -1.238   0.000  0.00  0.00    +0.000 C 
ATOM      4  H   UNL     1       1.222  -1.804   0.900  0.00  0.00    +0.000 HD
ATOM      5  H   UNL     1       2.554  -1.060  -0.000  0.00  0.00    +0.000 HD
ATOM      6  H   UNL     1       1.222  -1.805  -0.898  0.00  0.00    +0.000 HD
ENDBRANCH   2   3
BRANCH   2   8
ATOM      7  O   UNL     1      -1.328   1.161   0.000  0.00  0.00    +0.000 OA
ATOM      8  C   UNL     1      -0.757   0.078  -0.000  0.00  0.00    +0.000 C 
BRANCH   8   9
ATOM      9  C   UNL     1      -1.475  -1.238   0.000  0.00  0.00    +0.000 C 
ATOM     10  H   UNL     1      -1.222  -1.804   0.900  0.00  0.00    +0.000 HD
ATOM     11  H   UNL     1      -2.554  -1.060  -0.000  0.00  0.00    +0.000 HD
ATOM     12  H   UNL     1      -1.221  -1.805  -0.898  0.00  0.00    +0.000 HD
ENDBRANCH   8   9
ENDBRANCH   2   8
TORSDOF 3
