REMARK  Name = 31249
REMARK  9 active torsions:
REMARK  status: ('A' for Active; 'I' for Inactive)
REMARK    1  A    between atoms: O_1  and  C_7
REMARK    2  A    between atoms: O_1  and  C_9
REMARK    3  A    between atoms: O_2  and  C_8
REMARK    4  A    between atoms: O_2  and  C_10
REMARK    5  A    between atoms: C_5  and  C_6
REMARK    6  A    between atoms: C_5  and  C_7
REMARK    7  A    between atoms: C_6  and  C_8
REMARK    8  A    between atoms: C_9  and  C_11
REMARK    9  A    between atoms: C_10  and  C_12
REMARK                            x       y       z     vdW  Elec       q    Type
REMARK                         _______ _______ _______ _____ _____    ______ ____
ROOT
ATOM      1  C   UNL     1      -0.642   0.411  -0.061  0.00  0.00    +0.000 C 
ATOM      2  H   UNL     1      -0.668   1.023  -0.971  0.00  0.00    +0.000 HD
ATOM      3  H   UNL     1      -0.668   1.080   0.807  0.00  0.00    +0.000 HD
ENDROOT
BRANCH   1   4
ATOM      4  C   UNL     1       0.642  -0.413  -0.032  0.00  0.00    +0.000 C 
ATOM      5  H   UNL     1       0.654  -1.044   0.865  0.00  0.00    +0.000 HD
ATOM      6  H   UNL     1       0.683  -1.064  -0.913  0.00  0.00    +0.000 HD
BRANCH   4   8
ATOM      7  O   UNL     1       1.906   1.668  -0.049  0.00  0.00    +0.000 OA
ATOM      8  C   UNL     1       1.889   0.446  -0.020  0.00  0.00    +0.000 C 
BRANCH   8   9
ATOM      9  O   UNL     1       2.985  -0.369   0.020  0.00  0.00    +0.000 OA
BRANCH   9  10
ATOM     10  C   UNL     1       4.250   0.301   0.027  0.00  0.00    +0.000 C 
ATOM     11  H   UNL     1       4.347   0.907  -0.880  0.00  0.00    +0.000 HD
ATOM     12  H   UNL     1       4.315   0.950   0.907  0.00  0.00    +0.000 HD
BRANCH  10  13
ATOM     13  C   UNL     1       5.355  -0.733   0.072  0.00  0.00    +0.000 C 
ATOM     14  H   UNL     1       6.338  -0.254   0.079  0.00  0.00    +0.000 HD
ATOM     15  H   UNL     1       5.261  -1.359   0.965  0.00  0.00    +0.000 HD
ATOM     16  H   UNL     1       5.293  -1.402  -0.793  0.00  0.00    +0.000 HD
ENDBRANCH  10  13
ENDBRANCH   9  10
ENDBRANCH   8   9
ENDBRANCH   4   8
ENDBRANCH   1   4
BRANCH   1  18
ATOM     17  O   UNL     1      -1.907  -1.669  -0.052  0.00  0.00    +0.000 OA
ATOM     18  C   UNL     1      -1.889  -0.446  -0.032  0.00  0.00    +0.000 C 
BRANCH  18  19
ATOM     19  O   UNL     1      -2.985   0.370   0.011  0.00  0.00    +0.000 OA
BRANCH  19  20
ATOM     20  C   UNL     1      -4.250  -0.299   0.034  0.00  0.00    +0.000 C 
ATOM     21  H   UNL     1      -4.355  -0.912  -0.868  0.00  0.00    +0.000 HD
ATOM     22  H   UNL     1      -4.307  -0.942   0.920  0.00  0.00    +0.000 HD
BRANCH  20  23
ATOM     23  C   UNL     1      -5.354   0.736   0.081  0.00  0.00    +0.000 C 
ATOM     24  H   UNL     1      -6.337   0.258   0.100  0.00  0.00    +0.000 HD
ATOM     25  H   UNL     1      -5.251   1.369   0.969  0.00  0.00    +0.000 HD
ATOM     26  H   UNL     1      -5.299   1.397  -0.789  0.00  0.00    +0.000 HD
ENDBRANCH  20  23
ENDBRANCH  19  20
ENDBRANCH  18  19
ENDBRANCH   1  18
TORSDOF 9
