REMARK  Name = 12232
REMARK  3 active torsions:
REMARK  status: ('A' for Active; 'I' for Inactive)
REMARK    1  A    between atoms: S_1  and  S_2
REMARK    2  A    between atoms: S_1  and  C_3
REMARK    3  A    between atoms: S_2  and  C_4
REMARK                            x       y       z     vdW  Elec       q    Type
REMARK                         _______ _______ _______ _____ _____    ______ ____
ROOT
ATOM      1  S   UNL     1      -0.854  -0.626   0.572  0.00  0.00    +0.000 S 
ENDROOT
BRANCH   1   2
ATOM      2  C   UNL     1      -1.857   0.626  -0.263  0.00  0.00    +0.000 C 
ATOM      3  H   UNL     1      -1.358   1.599  -0.240  0.00  0.00    +0.000 HD
ATOM      4  H   UNL     1      -2.815   0.720   0.256  0.00  0.00    +0.000 HD
ATOM      5  H   UNL     1      -2.055   0.334  -1.298  0.00  0.00    +0.000 HD
ENDBRANCH   1   2
BRANCH   1   6
ATOM      6  S   UNL     1       0.854  -0.626  -0.572  0.00  0.00    +0.000 S 
BRANCH   6   7
ATOM      7  C   UNL     1       1.857   0.626   0.263  0.00  0.00    +0.000 C 
ATOM      8  H   UNL     1       1.359   1.599   0.240  0.00  0.00    +0.000 HD
ATOM      9  H   UNL     1       2.815   0.720  -0.256  0.00  0.00    +0.000 HD
ATOM     10  H   UNL     1       2.055   0.334   1.298  0.00  0.00    +0.000 HD
ENDBRANCH   6   7
ENDBRANCH   1   6
TORSDOF 3
