REMARK  Name = 3893
REMARK  12 active torsions:
REMARK  status: ('A' for Active; 'I' for Inactive)
REMARK    1  A    between atoms: O_1  and  C_14
REMARK    2  A    between atoms: C_3  and  C_4
REMARK    3  A    between atoms: C_3  and  C_5
REMARK    4  A    between atoms: C_4  and  C_6
REMARK    5  A    between atoms: C_5  and  C_7
REMARK    6  A    between atoms: C_6  and  C_8
REMARK    7  A    between atoms: C_7  and  C_9
REMARK    8  A    between atoms: C_8  and  C_10
REMARK    9  A    between atoms: C_9  and  C_11
REMARK   10  A    between atoms: C_10  and  C_12
REMARK   11  A    between atoms: C_11  and  C_13
REMARK   12  A    between atoms: C_12  and  C_14
REMARK                            x       y       z     vdW  Elec       q    Type
REMARK                         _______ _______ _______ _____ _____    ______ ____
ROOT
ATOM      1  C   UNL     1       1.699  -0.398  -0.060  0.00  0.00    +0.000 C 
ATOM      2  H   UNL     1       1.679  -1.010  -0.970  0.00  0.00    +0.000 HD
ATOM      3  H   UNL     1       1.675  -1.086   0.794  0.00  0.00    +0.000 HD
ENDROOT
BRANCH   1   4
ATOM      4  C   UNL     1       0.462   0.503  -0.022  0.00  0.00    +0.000 C 
ATOM      5  H   UNL     1       0.497   1.129   0.879  0.00  0.00    +0.000 HD
ATOM      6  H   UNL     1       0.486   1.184  -0.881  0.00  0.00    +0.000 HD
BRANCH   4   7
ATOM      7  C   UNL     1      -0.858  -0.274  -0.036  0.00  0.00    +0.000 C 
ATOM      8  H   UNL     1      -0.888  -0.943   0.833  0.00  0.00    +0.000 HD
ATOM      9  H   UNL     1      -0.887  -0.911  -0.928  0.00  0.00    +0.000 HD
BRANCH   7  10
ATOM     10  C   UNL     1      -2.094   0.629  -0.022  0.00  0.00    +0.000 C 
ATOM     11  H   UNL     1      -2.071   1.300  -0.889  0.00  0.00    +0.000 HD
ATOM     12  H   UNL     1      -2.078   1.257   0.876  0.00  0.00    +0.000 HD
BRANCH  10  13
ATOM     13  C   UNL     1      -3.383  -0.200  -0.049  0.00  0.00    +0.000 C 
ATOM     14  H   UNL     1      -3.386  -0.891   0.804  0.00  0.00    +0.000 HD
ATOM     15  H   UNL     1      -3.402  -0.821  -0.953  0.00  0.00    +0.000 HD
BRANCH  13  16
ATOM     16  C   UNL     1      -4.637   0.669  -0.002  0.00  0.00    +0.000 C 
ATOM     17  H   UNL     1      -4.619   1.298   0.896  0.00  0.00    +0.000 HD
ATOM     18  H   UNL     1      -4.670   1.315  -0.886  0.00  0.00    +0.000 HD
BRANCH  16  20
ATOM     19  O   UNL     1      -5.928  -1.371   0.065  0.00  0.00    +0.000 OA
ATOM     20  C   UNL     1      -5.904  -0.147   0.032  0.00  0.00    +0.000 C 
BRANCH  20  21
ATOM     21  O   UNL     1      -7.021   0.622   0.028  0.00  0.00    +0.000 OA
ATOM     22  H   UNL     1      -7.839   0.080   0.053  0.00  0.00    +0.000 HD
ENDBRANCH  20  21
ENDBRANCH  16  20
ENDBRANCH  13  16
ENDBRANCH  10  13
ENDBRANCH   7  10
ENDBRANCH   4   7
ENDBRANCH   1   4
BRANCH   1  23
ATOM     23  C   UNL     1       2.988   0.427  -0.021  0.00  0.00    +0.000 C 
ATOM     24  H   UNL     1       2.996   1.055   0.878  0.00  0.00    +0.000 HD
ATOM     25  H   UNL     1       3.023   1.100  -0.886  0.00  0.00    +0.000 HD
BRANCH  23  26
ATOM     26  C   UNL     1       4.223  -0.475  -0.022  0.00  0.00    +0.000 C 
ATOM     27  H   UNL     1       4.173  -1.166   0.828  0.00  0.00    +0.000 HD
ATOM     28  H   UNL     1       4.219  -1.090  -0.930  0.00  0.00    +0.000 HD
BRANCH  26  29
ATOM     29  C   UNL     1       5.543   0.299   0.048  0.00  0.00    +0.000 C 
ATOM     30  H   UNL     1       5.563   1.035  -0.766  0.00  0.00    +0.000 HD
ATOM     31  H   UNL     1       5.561   0.873   0.983  0.00  0.00    +0.000 HD
BRANCH  29  32
ATOM     32  C   UNL     1       6.816  -0.548  -0.034  0.00  0.00    +0.000 C 
ATOM     33  H   UNL     1       6.796  -1.305   0.759  0.00  0.00    +0.000 HD
ATOM     34  H   UNL     1       6.829  -1.089  -0.988  0.00  0.00    +0.000 HD
BRANCH  32  35
ATOM     35  C   UNL     1       8.095   0.263   0.093  0.00  0.00    +0.000 C 
ATOM     36  H   UNL     1       8.166   1.008  -0.705  0.00  0.00    +0.000 HD
ATOM     37  H   UNL     1       8.133   0.785   1.055  0.00  0.00    +0.000 HD
ATOM     38  H   UNL     1       8.970  -0.392   0.027  0.00  0.00    +0.000 HD
ENDBRANCH  32  35
ENDBRANCH  29  32
ENDBRANCH  26  29
ENDBRANCH  23  26
ENDBRANCH   1  23
TORSDOF 12
