REMARK  Name = 8467
REMARK  5 active torsions:
REMARK  status: ('A' for Active; 'I' for Inactive)
REMARK    1  A    between atoms: O_1  and  C_4
REMARK    2  A    between atoms: O_1  and  C_8
REMARK    3  A    between atoms: O_2  and  C_6
REMARK    4  A    between atoms: C_7  and  C_12
REMARK    5  A    between atoms: C_8  and  C_11
REMARK                            x       y       z     vdW  Elec       q    Type
REMARK                         _______ _______ _______ _____ _____    ______ ____
ROOT
ATOM      1  C   UNL     1       0.628  -0.106   0.286  0.00  0.00    +0.000 A 
ATOM      2  C   UNL     1      -0.534   0.664   0.235  0.00  0.00    +0.000 A 
ATOM      3  C   UNL     1       0.565  -1.480   0.055  0.00  0.00    +0.000 A 
ATOM      4  C   UNL     1      -1.759   0.060  -0.048  0.00  0.00    +0.000 A 
ATOM      5  C   UNL     1      -0.660  -2.084  -0.228  0.00  0.00    +0.000 A 
ATOM      6  C   UNL     1      -1.822  -1.315  -0.279  0.00  0.00    +0.000 A 
ATOM      7  H   UNL     1      -0.478   1.733   0.426  0.00  0.00    +0.000 HD
ATOM      8  H   UNL     1      -0.723  -3.154  -0.411  0.00  0.00    +0.000 HD
ATOM      9  H   UNL     1      -2.769  -1.800  -0.501  0.00  0.00    +0.000 HD
ENDROOT
BRANCH   4  11
ATOM     10  O   UNL     1      -2.981   2.081   0.093  0.00  0.00    +0.000 OA
ATOM     11  C   UNL     1      -2.970   0.862  -0.102  0.00  0.00    +0.000 C 
ATOM     12  H   UNL     1      -3.908   0.328  -0.332  0.00  0.00    +0.000 HD
ENDBRANCH   4  11
BRANCH   3  13
ATOM     13  O   UNL     1       1.693  -2.242   0.102  0.00  0.00    +0.000 OA
ATOM     14  H   UNL     1       1.458  -3.168  -0.083  0.00  0.00    +0.000 HD
ENDBRANCH   3  13
BRANCH   1  15
ATOM     15  O   UNL     1       1.819   0.495   0.563  0.00  0.00    +0.000 OA
BRANCH  15  16
ATOM     16  C   UNL     1       2.254   1.516  -0.333  0.00  0.00    +0.000 C 
ATOM     17  H   UNL     1       1.889   1.328  -1.350  0.00  0.00    +0.000 HD
ATOM     18  H   UNL     1       1.863   2.481   0.010  0.00  0.00    +0.000 HD
BRANCH  16  19
ATOM     19  C   UNL     1       3.767   1.549  -0.346  0.00  0.00    +0.000 C 
ATOM     20  H   UNL     1       4.136   2.331  -1.016  0.00  0.00    +0.000 HD
ATOM     21  H   UNL     1       4.157   1.734   0.661  0.00  0.00    +0.000 HD
ATOM     22  H   UNL     1       4.170   0.585  -0.671  0.00  0.00    +0.000 HD
ENDBRANCH  16  19
ENDBRANCH  15  16
ENDBRANCH   1  15
TORSDOF 5
