REMARK  Name = 62572
REMARK  7 active torsions:
REMARK  status: ('A' for Active; 'I' for Inactive)
REMARK    1  A    between atoms: O_1  and  C_7
REMARK    2  A    between atoms: O_1  and  C_8
REMARK    3  A    between atoms: O_2  and  C_4
REMARK    4  A    between atoms: C_4  and  C_5
REMARK    5  A    between atoms: C_4  and  C_6
REMARK    6  A    between atoms: C_5  and  C_7
REMARK    7  A    between atoms: C_8  and  C_9
REMARK                            x       y       z     vdW  Elec       q    Type
REMARK                         _______ _______ _______ _____ _____    ______ ____
ROOT
ATOM      1  C   UNL     1       0.875  -0.635   0.462  0.00  0.00    +0.000 C 
ATOM      2  H   UNL     1       0.723  -1.462  -0.244  0.00  0.00    +0.000 HD
ATOM      3  H   UNL     1       0.914  -1.043   1.477  0.00  0.00    +0.000 HD
ENDROOT
BRANCH   1   5
ATOM      4  O   UNL     1      -0.312   1.490   0.538  0.00  0.00    +0.000 OA
ATOM      5  C   UNL     1      -0.328   0.279   0.365  0.00  0.00    +0.000 C 
BRANCH   5   6
ATOM      6  O   UNL     1      -1.428  -0.471   0.057  0.00  0.00    +0.000 OA
BRANCH   6   7
ATOM      7  C   UNL     1      -2.655   0.256  -0.067  0.00  0.00    +0.000 C 
ATOM      8  H   UNL     1      -2.878   0.759   0.881  0.00  0.00    +0.000 HD
ATOM      9  H   UNL     1      -2.557   1.004  -0.861  0.00  0.00    +0.000 HD
BRANCH   7  10
ATOM     10  C   UNL     1      -3.768  -0.711  -0.407  0.00  0.00    +0.000 C 
ATOM     11  H   UNL     1      -4.723  -0.188  -0.510  0.00  0.00    +0.000 HD
ATOM     12  H   UNL     1      -3.550  -1.235  -1.344  0.00  0.00    +0.000 HD
ATOM     13  H   UNL     1      -3.866  -1.476   0.370  0.00  0.00    +0.000 HD
ENDBRANCH   7  10
ENDBRANCH   6   7
ENDBRANCH   5   6
ENDBRANCH   1   5
BRANCH   1  14
ATOM     14  C   UNL     1       2.180   0.079   0.107  0.00  0.00    +0.000 C 
ATOM     15  H   UNL     1       2.361   0.922   0.783  0.00  0.00    +0.000 HD
BRANCH  14  16
ATOM     16  C   UNL     1       3.363  -0.880   0.162  0.00  0.00    +0.000 C 
ATOM     17  H   UNL     1       4.286  -0.360  -0.118  0.00  0.00    +0.000 HD
ATOM     18  H   UNL     1       3.237  -1.702  -0.551  0.00  0.00    +0.000 HD
ATOM     19  H   UNL     1       3.489  -1.299   1.165  0.00  0.00    +0.000 HD
ENDBRANCH  14  16
BRANCH  14  20
ATOM     20  O   UNL     1       2.073   0.593  -1.218  0.00  0.00    +0.000 OA
ATOM     21  H   UNL     1       1.418   1.311  -1.208  0.00  0.00    +0.000 HD
ENDBRANCH  14  20
ENDBRANCH   1  14
TORSDOF 7
