REMARK  Name = 7342
REMARK  6 active torsions:
REMARK  status: ('A' for Active; 'I' for Inactive)
REMARK    1  A    between atoms: O_1  and  C_6
REMARK    2  A    between atoms: O_1  and  C_7
REMARK    3  A    between atoms: C_3  and  C_4
REMARK    4  A    between atoms: C_3  and  C_5
REMARK    5  A    between atoms: C_3  and  C_6
REMARK    6  A    between atoms: C_7  and  C_8
REMARK                            x       y       z     vdW  Elec       q    Type
REMARK                         _______ _______ _______ _____ _____    ______ ____
ROOT
ATOM      1  C   UNL     1       1.433   0.426  -0.358  0.00  0.00    +0.000 C 
ATOM      2  H   UNL     1       1.153   1.007  -1.246  0.00  0.00    +0.000 HD
ENDROOT
BRANCH   1   3
ATOM      3  C   UNL     1       1.864   1.373   0.755  0.00  0.00    +0.000 C 
ATOM      4  H   UNL     1       2.721   1.979   0.445  0.00  0.00    +0.000 HD
ATOM      5  H   UNL     1       2.143   0.822   1.660  0.00  0.00    +0.000 HD
ATOM      6  H   UNL     1       1.048   2.053   1.025  0.00  0.00    +0.000 HD
ENDBRANCH   1   3
BRANCH   1   7
ATOM      7  C   UNL     1       2.577  -0.503  -0.759  0.00  0.00    +0.000 C 
ATOM      8  H   UNL     1       3.428   0.070  -1.142  0.00  0.00    +0.000 HD
ATOM      9  H   UNL     1       2.256  -1.198  -1.541  0.00  0.00    +0.000 HD
ATOM     10  H   UNL     1       2.925  -1.100   0.091  0.00  0.00    +0.000 HD
ENDBRANCH   1   7
BRANCH   1  12
ATOM     11  O   UNL     1       0.269  -1.456   0.657  0.00  0.00    +0.000 OA
ATOM     12  C   UNL     1       0.222  -0.373   0.088  0.00  0.00    +0.000 C 
BRANCH  12  13
ATOM     13  O   UNL     1      -0.917   0.309  -0.236  0.00  0.00    +0.000 OA
BRANCH  13  14
ATOM     14  C   UNL     1      -2.144  -0.326   0.139  0.00  0.00    +0.000 C 
ATOM     15  H   UNL     1      -2.216  -1.301  -0.356  0.00  0.00    +0.000 HD
ATOM     16  H   UNL     1      -2.166  -0.467   1.225  0.00  0.00    +0.000 HD
BRANCH  14  17
ATOM     17  C   UNL     1      -3.303   0.550  -0.286  0.00  0.00    +0.000 C 
ATOM     18  H   UNL     1      -4.259   0.093  -0.015  0.00  0.00    +0.000 HD
ATOM     19  H   UNL     1      -3.235   1.535   0.186  0.00  0.00    +0.000 HD
ATOM     20  H   UNL     1      -3.285   0.714  -1.369  0.00  0.00    +0.000 HD
ENDBRANCH  14  17
ENDBRANCH  13  14
ENDBRANCH  12  13
ENDBRANCH   1  12
TORSDOF 6
