REMARK  Name = 10390702
REMARK  19 active torsions:
REMARK  status: ('A' for Active; 'I' for Inactive)
REMARK    1  A    between atoms: O_3  and  C_26
REMARK    2  A    between atoms: O_4  and  C_27
REMARK    3  A    between atoms: O_5  and  C_33
REMARK    4  A    between atoms: C_8  and  C_11
REMARK    5  A    between atoms: C_9  and  C_14
REMARK    6  A    between atoms: C_9  and  C_15
REMARK    7  A    between atoms: C_10  and  C_13
REMARK    8  A    between atoms: C_12  and  C_18
REMARK    9  A    between atoms: C_12  and  C_20
REMARK   10  A    between atoms: C_13  and  C_21
REMARK   11  A    between atoms: C_18  and  C_22
REMARK   12  A    between atoms: C_18  and  C_23
REMARK   13  A    between atoms: C_21  and  C_25
REMARK   14  A    between atoms: C_22  and  C_24
REMARK   15  A    between atoms: C_24  and  C_28
REMARK   16  A    between atoms: C_24  and  C_29
REMARK   17  A    between atoms: C_25  and  C_30
REMARK   18  A    between atoms: C_31  and  C_35
REMARK   19  A    between atoms: C_32  and  C_34
REMARK                            x       y       z     vdW  Elec       q    Type
REMARK                         _______ _______ _______ _____ _____    ______ ____
ROOT
ATOM      1  O   UNL     1      -3.328  -2.089  -1.451  0.00  0.00    +0.000 OA
ATOM      2  C   UNL     1      -1.608  -0.644  -0.526  0.00  0.00    +0.000 C 
ATOM      3  C   UNL     1      -0.088  -0.953  -0.508  0.00  0.00    +0.000 C 
ATOM      4  C   UNL     1      -0.062  -2.451  -0.135  0.00  0.00    +0.000 C 
ATOM      5  C   UNL     1      -2.189  -1.955  -1.020  0.00  0.00    +0.000 C 
ATOM      6  C   UNL     1      -1.201  -3.088  -0.923  0.00  0.00    +0.000 C 
ATOM      7  H   UNL     1      -1.954  -0.607   0.506  0.00  0.00    +0.000 HD
ATOM      8  H   UNL     1       0.791  -3.019  -0.495  0.00  0.00    +0.000 HD
ATOM      9  H   UNL     1      -0.269  -2.715   0.902  0.00  0.00    +0.000 HD
ATOM     10  H   UNL     1      -0.891  -3.375  -1.933  0.00  0.00    +0.000 HD
ATOM     11  H   UNL     1      -1.635  -3.942  -0.399  0.00  0.00    +0.000 HD
ENDROOT
BRANCH   2  12
ATOM     12  C   UNL     1      -2.026   0.543  -1.335  0.00  0.00    +0.000 C 
ATOM     13  C   UNL     1      -2.495   1.800  -0.662  0.00  0.00    +0.000 C 
ATOM     14  C   UNL     1      -3.478   0.919  -1.375  0.00  0.00    +0.000 C 
ATOM     15  H   UNL     1      -1.522   0.618  -2.290  0.00  0.00    +0.000 HD
ATOM     16  H   UNL     1      -3.875   1.246  -2.330  0.00  0.00    +0.000 HD
BRANCH  13  17
ATOM     17  C   UNL     1      -2.490   1.822   0.829  0.00  0.00    +0.000 C 
ATOM     18  H   UNL     1      -3.200   2.586   1.171  0.00  0.00    +0.000 HD
ATOM     19  H   UNL     1      -2.772   0.916   1.363  0.00  0.00    +0.000 HD
ATOM     20  H   UNL     1      -1.510   2.139   1.192  0.00  0.00    +0.000 HD
ENDBRANCH  13  17
BRANCH  13  21
ATOM     21  C   UNL     1      -2.173   3.116  -1.284  0.00  0.00    +0.000 C 
ATOM     22  H   UNL     1      -2.912   3.871  -0.995  0.00  0.00    +0.000 HD
ATOM     23  H   UNL     1      -1.185   3.463  -0.963  0.00  0.00    +0.000 HD
ATOM     24  H   UNL     1      -2.163   3.065  -2.379  0.00  0.00    +0.000 HD
ENDBRANCH  13  21
BRANCH  14  25
ATOM     25  C   UNL     1      -4.451   0.099  -0.610  0.00  0.00    +0.000 C 
ATOM     26  H   UNL     1      -4.101  -0.329   0.331  0.00  0.00    +0.000 HD
ATOM     27  H   UNL     1      -4.790  -0.713  -1.254  0.00  0.00    +0.000 HD
BRANCH  25  28
ATOM     28  C   UNL     1      -5.775   0.834  -0.383  0.00  0.00    +0.000 C 
ATOM     29  H   UNL     1      -5.597   1.740   0.207  0.00  0.00    +0.000 HD
ATOM     30  H   UNL     1      -6.209   1.136  -1.343  0.00  0.00    +0.000 HD
BRANCH  28  32
ATOM     31  O   UNL     1      -6.569  -1.147   0.754  0.00  0.00    +0.000 OA
ATOM     32  C   UNL     1      -6.801  -0.006   0.357  0.00  0.00    +0.000 C 
BRANCH  32  33
ATOM     33  C   UNL     1      -8.144   0.638   0.585  0.00  0.00    +0.000 C 
ATOM     34  H   UNL     1      -8.605   0.874  -0.377  0.00  0.00    +0.000 HD
ATOM     35  H   UNL     1      -8.018   1.548   1.178  0.00  0.00    +0.000 HD
ATOM     36  H   UNL     1      -8.796  -0.051   1.130  0.00  0.00    +0.000 HD
ENDBRANCH  32  33
ENDBRANCH  28  32
ENDBRANCH  25  28
ENDBRANCH  14  25
ENDBRANCH   2  12
BRANCH   3  37
ATOM     37  C   UNL     1       0.607  -0.735  -1.866  0.00  0.00    +0.000 C 
ATOM     38  H   UNL     1       0.763   0.325  -2.097  0.00  0.00    +0.000 HD
ATOM     39  H   UNL     1       1.550  -1.274  -1.991  0.00  0.00    +0.000 HD
ATOM     40  H   UNL     1      -0.024  -1.123  -2.677  0.00  0.00    +0.000 HD
ENDBRANCH   3  37
BRANCH   3  41
ATOM     41  C   UNL     1       0.639  -0.124   0.558  0.00  0.00    +0.000 C 
ATOM     42  H   UNL     1       0.166   0.859   0.572  0.00  0.00    +0.000 HD
BRANCH  41  43
ATOM     43  C   UNL     1       2.100   0.054   0.182  0.00  0.00    +0.000 A 
ATOM     44  C   UNL     1       2.941  -1.057   0.105  0.00  0.00    +0.000 A 
ATOM     45  C   UNL     1       2.602   1.328  -0.086  0.00  0.00    +0.000 A 
ATOM     46  C   UNL     1       4.282  -0.894  -0.241  0.00  0.00    +0.000 A 
ATOM     47  C   UNL     1       3.943   1.491  -0.431  0.00  0.00    +0.000 A 
ATOM     48  C   UNL     1       4.783   0.380  -0.509  0.00  0.00    +0.000 A 
BRANCH  46  50
ATOM     49  O   UNL     1       4.759  -3.178  -0.630  0.00  0.00    +0.000 OA
ATOM     50  C   UNL     1       5.161  -2.055  -0.322  0.00  0.00    +0.000 C 
ATOM     51  H   UNL     1       6.230  -1.900  -0.106  0.00  0.00    +0.000 HD
ENDBRANCH  46  50
BRANCH  47  53
ATOM     52  O   UNL     1       3.773   3.840  -0.659  0.00  0.00    +0.000 OA
ATOM     53  C   UNL     1       4.467   2.823  -0.711  0.00  0.00    +0.000 C 
ATOM     54  H   UNL     1       5.532   2.906  -0.981  0.00  0.00    +0.000 HD
ENDBRANCH  47  53
BRANCH  48  55
ATOM     55  O   UNL     1       6.096   0.540  -0.847  0.00  0.00    +0.000 OA
ATOM     56  H   UNL     1       6.434  -0.266  -1.269  0.00  0.00    +0.000 HD
ENDBRANCH  48  55
BRANCH  45  57
ATOM     57  O   UNL     1       1.777   2.412  -0.009  0.00  0.00    +0.000 OA
ATOM     58  H   UNL     1       2.166   3.181  -0.452  0.00  0.00    +0.000 HD
ENDBRANCH  45  57
BRANCH  44  59
ATOM     59  O   UNL     1       2.446  -2.301   0.367  0.00  0.00    +0.000 OA
ATOM     60  H   UNL     1       3.159  -2.959   0.402  0.00  0.00    +0.000 HD
ENDBRANCH  44  59
ENDBRANCH  41  43
BRANCH  41  61
ATOM     61  C   UNL     1       0.441  -0.760   1.954  0.00  0.00    +0.000 C 
ATOM     62  H   UNL     1      -0.625  -0.933   2.144  0.00  0.00    +0.000 HD
ATOM     63  H   UNL     1       0.949  -1.723   2.051  0.00  0.00    +0.000 HD
BRANCH  61  64
ATOM     64  C   UNL     1       0.980   0.066   3.142  0.00  0.00    +0.000 C 
ATOM     65  H   UNL     1       2.059   0.214   3.020  0.00  0.00    +0.000 HD
BRANCH  64  66
ATOM     66  C   UNL     1       0.317   1.440   3.246  0.00  0.00    +0.000 C 
ATOM     67  H   UNL     1       0.560   2.075   2.391  0.00  0.00    +0.000 HD
ATOM     68  H   UNL     1       0.668   1.968   4.140  0.00  0.00    +0.000 HD
ATOM     69  H   UNL     1      -0.771   1.350   3.322  0.00  0.00    +0.000 HD
ENDBRANCH  64  66
BRANCH  64  70
ATOM     70  C   UNL     1       0.764  -0.708   4.446  0.00  0.00    +0.000 C 
ATOM     71  H   UNL     1      -0.301  -0.885   4.633  0.00  0.00    +0.000 HD
ATOM     72  H   UNL     1       1.170  -0.154   5.299  0.00  0.00    +0.000 HD
ATOM     73  H   UNL     1       1.268  -1.680   4.412  0.00  0.00    +0.000 HD
ENDBRANCH  64  70
ENDBRANCH  61  64
ENDBRANCH  41  61
ENDBRANCH   3  41
TORSDOF 19
