REMARK  Name = 3314
REMARK  5 active torsions:
REMARK  status: ('A' for Active; 'I' for Inactive)
REMARK    1  A    between atoms: O_1  and  C_6
REMARK    2  A    between atoms: O_1  and  C_11
REMARK    3  A    between atoms: O_2  and  C_8
REMARK    4  A    between atoms: C_3  and  C_4
REMARK    5  A    between atoms: C_4  and  C_10
REMARK                            x       y       z     vdW  Elec       q    Type
REMARK                         _______ _______ _______ _____ _____    ______ ____
ROOT
ATOM      1  C   UNL     1      -0.992  -0.516   0.402  0.00  0.00    +0.000 A 
ATOM      2  C   UNL     1      -0.128   0.561   0.604  0.00  0.00    +0.000 A 
ATOM      3  C   UNL     1       1.233   0.424   0.332  0.00  0.00    +0.000 A 
ATOM      4  C   UNL     1      -0.494  -1.730  -0.071  0.00  0.00    +0.000 A 
ATOM      5  C   UNL     1       1.730  -0.790  -0.142  0.00  0.00    +0.000 A 
ATOM      6  C   UNL     1       0.867  -1.867  -0.344  0.00  0.00    +0.000 A 
ATOM      7  H   UNL     1      -0.510   1.510   0.973  0.00  0.00    +0.000 HD
ATOM      8  H   UNL     1      -1.157  -2.576  -0.234  0.00  0.00    +0.000 HD
ATOM      9  H   UNL     1       1.241  -2.818  -0.713  0.00  0.00    +0.000 HD
ENDROOT
BRANCH   1  10
ATOM     10  C   UNL     1      -2.447  -0.368   0.693  0.00  0.00    +0.000 C 
ATOM     11  H   UNL     1      -2.860  -1.331   1.021  0.00  0.00    +0.000 HD
ATOM     12  H   UNL     1      -2.585   0.306   1.548  0.00  0.00    +0.000 HD
BRANCH  10  13
ATOM     13  C   UNL     1      -3.241   0.109  -0.496  0.00  0.00    +0.000 C 
ATOM     14  C   UNL     1      -3.916   1.263  -0.535  0.00  0.00    +0.000 C 
ATOM     15  H   UNL     1      -3.274  -0.541  -1.368  0.00  0.00    +0.000 HD
ATOM     16  H   UNL     1      -4.475   1.543  -1.421  0.00  0.00    +0.000 HD
ATOM     17  H   UNL     1      -3.923   1.944   0.308  0.00  0.00    +0.000 HD
ENDBRANCH  10  13
ENDBRANCH   1  10
BRANCH   5  18
ATOM     18  O   UNL     1       3.058  -0.937  -0.410  0.00  0.00    +0.000 OA
ATOM     19  H   UNL     1       3.219  -1.842  -0.729  0.00  0.00    +0.000 HD
ENDBRANCH   5  18
BRANCH   3  20
ATOM     20  O   UNL     1       2.067   1.482   0.533  0.00  0.00    +0.000 OA
BRANCH  20  21
ATOM     21  C   UNL     1       2.264   2.370  -0.565  0.00  0.00    +0.000 C 
ATOM     22  H   UNL     1       1.317   2.835  -0.857  0.00  0.00    +0.000 HD
ATOM     23  H   UNL     1       2.700   1.839  -1.417  0.00  0.00    +0.000 HD
ATOM     24  H   UNL     1       2.958   3.155  -0.251  0.00  0.00    +0.000 HD
ENDBRANCH  20  21
ENDBRANCH   3  20
TORSDOF 5
