REMARK  Name = 1549026
REMARK  10 active torsions:
REMARK  status: ('A' for Active; 'I' for Inactive)
REMARK    1  A    between atoms: O_1  and  C_10
REMARK    2  A    between atoms: O_1  and  C_13
REMARK    3  A    between atoms: C_3  and  C_4
REMARK    4  A    between atoms: C_3  and  C_5
REMARK    5  A    between atoms: C_4  and  C_6
REMARK    6  A    between atoms: C_5  and  C_8
REMARK    7  A    between atoms: C_7  and  C_10
REMARK    8  A    between atoms: C_9  and  C_11
REMARK    9  A    between atoms: C_9  and  C_12
REMARK   10  A    between atoms: C_13  and  C_14
REMARK                            x       y       z     vdW  Elec       q    Type
REMARK                         _______ _______ _______ _____ _____    ______ ____
ROOT
ATOM      1  C   UNL     1      -1.852  -2.104  -0.447  0.00  0.00    +0.000 C 
ATOM      2  H   UNL     1      -2.131  -3.074  -0.017  0.00  0.00    +0.000 HD
ATOM      3  H   UNL     1      -1.833  -2.249  -1.535  0.00  0.00    +0.000 HD
ENDROOT
BRANCH   1   4
ATOM      4  C   UNL     1      -2.933  -1.072  -0.098  0.00  0.00    +0.000 C 
ATOM      5  H   UNL     1      -3.089  -1.052   0.983  0.00  0.00    +0.000 HD
ATOM      6  H   UNL     1      -3.883  -1.417  -0.526  0.00  0.00    +0.000 HD
BRANCH   4   7
ATOM      7  C   UNL     1      -2.643   0.287  -0.673  0.00  0.00    +0.000 C 
ATOM      8  C   UNL     1      -2.573   1.465  -0.025  0.00  0.00    +0.000 C 
ATOM      9  H   UNL     1      -2.495   0.291  -1.752  0.00  0.00    +0.000 HD
BRANCH   8  10
ATOM     10  C   UNL     1      -2.275   2.732  -0.783  0.00  0.00    +0.000 C 
ATOM     11  H   UNL     1      -1.358   3.194  -0.402  0.00  0.00    +0.000 HD
ATOM     12  H   UNL     1      -2.137   2.556  -1.855  0.00  0.00    +0.000 HD
ATOM     13  H   UNL     1      -3.098   3.445  -0.667  0.00  0.00    +0.000 HD
ENDBRANCH   8  10
BRANCH   8  14
ATOM     14  C   UNL     1      -2.756   1.657   1.453  0.00  0.00    +0.000 C 
ATOM     15  H   UNL     1      -3.548   2.390   1.640  0.00  0.00    +0.000 HD
ATOM     16  H   UNL     1      -3.032   0.747   1.988  0.00  0.00    +0.000 HD
ATOM     17  H   UNL     1      -1.829   2.034   1.899  0.00  0.00    +0.000 HD
ENDBRANCH   8  14
ENDBRANCH   4   7
ENDBRANCH   1   4
BRANCH   1  18
ATOM     18  C   UNL     1      -0.470  -1.730   0.047  0.00  0.00    +0.000 C 
ATOM     19  C   UNL     1       0.603  -1.535  -0.743  0.00  0.00    +0.000 C 
ATOM     20  H   UNL     1       0.457  -1.622  -1.819  0.00  0.00    +0.000 HD
BRANCH  18  21
ATOM     21  C   UNL     1      -0.335  -1.612   1.544  0.00  0.00    +0.000 C 
ATOM     22  H   UNL     1      -0.635  -2.553   2.018  0.00  0.00    +0.000 HD
ATOM     23  H   UNL     1      -0.981  -0.818   1.928  0.00  0.00    +0.000 HD
ATOM     24  H   UNL     1       0.670  -1.382   1.899  0.00  0.00    +0.000 HD
ENDBRANCH  18  21
BRANCH  19  25
ATOM     25  C   UNL     1       2.001  -1.197  -0.330  0.00  0.00    +0.000 C 
ATOM     26  H   UNL     1       2.690  -1.625  -1.069  0.00  0.00    +0.000 HD
ATOM     27  H   UNL     1       2.271  -1.619   0.642  0.00  0.00    +0.000 HD
BRANCH  25  28
ATOM     28  O   UNL     1       2.142   0.217  -0.324  0.00  0.00    +0.000 OA
BRANCH  28  30
ATOM     29  O   UNL     1       4.344   0.012   0.345  0.00  0.00    +0.000 OA
ATOM     30  C   UNL     1       3.374   0.691   0.035  0.00  0.00    +0.000 C 
BRANCH  30  31
ATOM     31  C   UNL     1       3.375   2.189  -0.003  0.00  0.00    +0.000 C 
ATOM     32  H   UNL     1       2.633   2.578   0.698  0.00  0.00    +0.000 HD
ATOM     33  H   UNL     1       3.164   2.533  -1.018  0.00  0.00    +0.000 HD
ATOM     34  H   UNL     1       4.361   2.559   0.293  0.00  0.00    +0.000 HD
ENDBRANCH  30  31
ENDBRANCH  28  30
ENDBRANCH  25  28
ENDBRANCH  19  25
ENDBRANCH   1  18
TORSDOF 10
