REMARK  Name = 102861
REMARK  9 active torsions:
REMARK  status: ('A' for Active; 'I' for Inactive)
REMARK    1  A    between atoms: O_2  and  C_13
REMARK    2  A    between atoms: O_2  and  C_16
REMARK    3  A    between atoms: C_4  and  C_10
REMARK    4  A    between atoms: C_5  and  C_7
REMARK    5  A    between atoms: C_7  and  C_11
REMARK    6  A    between atoms: C_10  and  C_13
REMARK    7  A    between atoms: C_11  and  C_12
REMARK    8  A    between atoms: C_12  and  C_14
REMARK    9  A    between atoms: C_14  and  C_15
REMARK                            x       y       z     vdW  Elec       q    Type
REMARK                         _______ _______ _______ _____ _____    ______ ____
ROOT
ATOM      1  O   UNL     1       1.137  -2.686  -1.808  0.00  0.00    +0.000 OA
ATOM      2  C   UNL     1       0.887  -0.522   1.008  0.00  0.00    +0.000 C 
ATOM      3  C   UNL     1       0.357  -0.881  -0.392  0.00  0.00    +0.000 C 
ATOM      4  C   UNL     1       1.272  -1.869   1.629  0.00  0.00    +0.000 C 
ATOM      5  C   UNL     1       1.867  -2.686   0.489  0.00  0.00    +0.000 C 
ATOM      6  C   UNL     1       1.122  -2.151  -0.706  0.00  0.00    +0.000 C 
ATOM      7  H   UNL     1       0.132  -0.045   1.640  0.00  0.00    +0.000 HD
ATOM      8  H   UNL     1       0.610  -0.129  -1.147  0.00  0.00    +0.000 HD
ATOM      9  H   UNL     1       1.969  -1.772   2.467  0.00  0.00    +0.000 HD
ATOM     10  H   UNL     1       0.373  -2.371   2.008  0.00  0.00    +0.000 HD
ATOM     11  H   UNL     1       2.935  -2.488   0.363  0.00  0.00    +0.000 HD
ATOM     12  H   UNL     1       1.687  -3.755   0.620  0.00  0.00    +0.000 HD
ENDROOT
BRANCH   3  13
ATOM     13  C   UNL     1      -1.138  -1.165  -0.403  0.00  0.00    +0.000 C 
ATOM     14  H   UNL     1      -1.393  -1.939   0.333  0.00  0.00    +0.000 HD
ATOM     15  H   UNL     1      -1.424  -1.573  -1.381  0.00  0.00    +0.000 HD
BRANCH  13  16
ATOM     16  C   UNL     1      -1.954   0.099  -0.128  0.00  0.00    +0.000 C 
ATOM     17  H   UNL     1      -1.706   0.864  -0.874  0.00  0.00    +0.000 HD
ATOM     18  H   UNL     1      -1.714   0.517   0.854  0.00  0.00    +0.000 HD
BRANCH  16  19
ATOM     19  C   UNL     1      -3.457  -0.184  -0.174  0.00  0.00    +0.000 C 
ATOM     20  H   UNL     1      -3.730  -0.567  -1.165  0.00  0.00    +0.000 HD
ATOM     21  H   UNL     1      -3.704  -0.967   0.554  0.00  0.00    +0.000 HD
BRANCH  19  22
ATOM     22  C   UNL     1      -4.269   1.073   0.134  0.00  0.00    +0.000 C 
ATOM     23  H   UNL     1      -4.045   1.851  -0.605  0.00  0.00    +0.000 HD
ATOM     24  H   UNL     1      -3.988   1.468   1.117  0.00  0.00    +0.000 HD
BRANCH  22  25
ATOM     25  C   UNL     1      -5.763   0.788   0.122  0.00  0.00    +0.000 C 
ATOM     26  H   UNL     1      -6.084   0.420  -0.857  0.00  0.00    +0.000 HD
ATOM     27  H   UNL     1      -6.324   1.701   0.343  0.00  0.00    +0.000 HD
ATOM     28  H   UNL     1      -6.024   0.037   0.875  0.00  0.00    +0.000 HD
ENDBRANCH  22  25
ENDBRANCH  19  22
ENDBRANCH  16  19
ENDBRANCH  13  16
ENDBRANCH   3  13
BRANCH   2  29
ATOM     29  C   UNL     1       2.089   0.423   0.930  0.00  0.00    +0.000 C 
ATOM     30  H   UNL     1       2.896  -0.039   0.349  0.00  0.00    +0.000 HD
ATOM     31  H   UNL     1       2.477   0.633   1.933  0.00  0.00    +0.000 HD
BRANCH  29  33
ATOM     32  O   UNL     1       0.628   2.272   0.333  0.00  0.00    +0.000 OA
ATOM     33  C   UNL     1       1.730   1.743   0.292  0.00  0.00    +0.000 C 
BRANCH  33  34
ATOM     34  O   UNL     1       2.836   2.244  -0.334  0.00  0.00    +0.000 OA
BRANCH  34  35
ATOM     35  C   UNL     1       2.655   3.502  -0.992  0.00  0.00    +0.000 C 
ATOM     36  H   UNL     1       1.900   3.412  -1.779  0.00  0.00    +0.000 HD
ATOM     37  H   UNL     1       2.370   4.271  -0.268  0.00  0.00    +0.000 HD
ATOM     38  H   UNL     1       3.607   3.787  -1.450  0.00  0.00    +0.000 HD
ENDBRANCH  34  35
ENDBRANCH  33  34
ENDBRANCH  29  33
ENDBRANCH   2  29
TORSDOF 9
