REMARK  Name = 8094
REMARK  7 active torsions:
REMARK  status: ('A' for Active; 'I' for Inactive)
REMARK    1  A    between atoms: O_1  and  C_9
REMARK    2  A    between atoms: C_3  and  C_4
REMARK    3  A    between atoms: C_3  and  C_5
REMARK    4  A    between atoms: C_4  and  C_6
REMARK    5  A    between atoms: C_5  and  C_7
REMARK    6  A    between atoms: C_6  and  C_8
REMARK    7  A    between atoms: C_7  and  C_9
REMARK                            x       y       z     vdW  Elec       q    Type
REMARK                         _______ _______ _______ _____ _____    ______ ____
ROOT
ATOM      1  C   UNL     1       0.995   0.603  -0.052  0.00  0.00    +0.000 C 
ATOM      2  H   UNL     1       1.025   1.207  -0.967  0.00  0.00    +0.000 HD
ATOM      3  H   UNL     1       1.015   1.297   0.797  0.00  0.00    +0.000 HD
ENDROOT
BRANCH   1   4
ATOM      4  C   UNL     1       2.224  -0.308   0.004  0.00  0.00    +0.000 C 
ATOM      5  H   UNL     1       2.172  -0.932   0.905  0.00  0.00    +0.000 HD
ATOM      6  H   UNL     1       2.206  -0.990  -0.854  0.00  0.00    +0.000 HD
BRANCH   4   7
ATOM      7  C   UNL     1       3.548   0.459   0.007  0.00  0.00    +0.000 C 
ATOM      8  H   UNL     1       3.579   1.127   0.877  0.00  0.00    +0.000 HD
ATOM      9  H   UNL     1       3.600   1.096  -0.884  0.00  0.00    +0.000 HD
BRANCH   7  10
ATOM     10  C   UNL     1       4.772  -0.443   0.036  0.00  0.00    +0.000 C 
ATOM     11  H   UNL     1       5.687   0.158   0.037  0.00  0.00    +0.000 HD
ATOM     12  H   UNL     1       4.795  -1.098  -0.840  0.00  0.00    +0.000 HD
ATOM     13  H   UNL     1       4.774  -1.069   0.933  0.00  0.00    +0.000 HD
ENDBRANCH   7  10
ENDBRANCH   4   7
ENDBRANCH   1   4
BRANCH   1  14
ATOM     14  C   UNL     1      -0.301  -0.215  -0.015  0.00  0.00    +0.000 C 
ATOM     15  H   UNL     1      -0.314  -0.843   0.884  0.00  0.00    +0.000 HD
ATOM     16  H   UNL     1      -0.327  -0.898  -0.873  0.00  0.00    +0.000 HD
BRANCH  14  17
ATOM     17  C   UNL     1      -1.550   0.668  -0.030  0.00  0.00    +0.000 C 
ATOM     18  H   UNL     1      -1.554   1.284  -0.937  0.00  0.00    +0.000 HD
ATOM     19  H   UNL     1      -1.538   1.328   0.844  0.00  0.00    +0.000 HD
BRANCH  17  21
ATOM     20  O   UNL     1      -2.927  -1.342  -0.013  0.00  0.00    +0.000 OA
ATOM     21  C   UNL     1      -2.839  -0.122  -0.002  0.00  0.00    +0.000 C 
BRANCH  21  22
ATOM     22  O   UNL     1      -3.921   0.698   0.064  0.00  0.00    +0.000 OA
ATOM     23  H   UNL     1      -4.761   0.192   0.094  0.00  0.00    +0.000 HD
ENDBRANCH  21  22
ENDBRANCH  17  21
ENDBRANCH  14  17
ENDBRANCH   1  14
TORSDOF 7
