REMARK  Name = 8908
REMARK  8 active torsions:
REMARK  status: ('A' for Active; 'I' for Inactive)
REMARK    1  A    between atoms: O_1  and  C_7
REMARK    2  A    between atoms: O_1  and  C_9
REMARK    3  A    between atoms: C_3  and  C_4
REMARK    4  A    between atoms: C_3  and  C_5
REMARK    5  A    between atoms: C_4  and  C_6
REMARK    6  A    between atoms: C_5  and  C_7
REMARK    7  A    between atoms: C_6  and  C_8
REMARK    8  A    between atoms: C_9  and  C_10
REMARK                            x       y       z     vdW  Elec       q    Type
REMARK                         _______ _______ _______ _____ _____    ______ ____
ROOT
ATOM      1  C   UNL     1      -1.560  -0.415   0.022  0.00  0.00    +0.000 C 
ATOM      2  H   UNL     1      -1.535  -1.082  -0.849  0.00  0.00    +0.000 HD
ATOM      3  H   UNL     1      -1.540  -1.056   0.912  0.00  0.00    +0.000 HD
ENDROOT
BRANCH   1   4
ATOM      4  C   UNL     1      -2.872   0.376   0.005  0.00  0.00    +0.000 C 
ATOM      5  H   UNL     1      -2.892   1.058   0.864  0.00  0.00    +0.000 HD
ATOM      6  H   UNL     1      -2.896   1.002  -0.896  0.00  0.00    +0.000 HD
BRANCH   4   7
ATOM      7  C   UNL     1      -4.117  -0.512   0.038  0.00  0.00    +0.000 C 
ATOM      8  H   UNL     1      -4.089  -1.222  -0.797  0.00  0.00    +0.000 HD
ATOM      9  H   UNL     1      -4.129  -1.099   0.964  0.00  0.00    +0.000 HD
BRANCH   7  10
ATOM     10  C   UNL     1      -5.390   0.316  -0.054  0.00  0.00    +0.000 C 
ATOM     11  H   UNL     1      -6.268  -0.336  -0.026  0.00  0.00    +0.000 HD
ATOM     12  H   UNL     1      -5.461   1.019   0.782  0.00  0.00    +0.000 HD
ATOM     13  H   UNL     1      -5.420   0.887  -0.987  0.00  0.00    +0.000 HD
ENDBRANCH   7  10
ENDBRANCH   4   7
ENDBRANCH   1   4
BRANCH   1  14
ATOM     14  C   UNL     1      -0.316   0.472   0.013  0.00  0.00    +0.000 C 
ATOM     15  H   UNL     1      -0.315   1.131   0.891  0.00  0.00    +0.000 HD
ATOM     16  H   UNL     1      -0.330   1.136  -0.860  0.00  0.00    +0.000 HD
BRANCH  14  17
ATOM     17  C   UNL     1       0.961  -0.357  -0.002  0.00  0.00    +0.000 C 
ATOM     18  H   UNL     1       0.999  -1.003   0.883  0.00  0.00    +0.000 HD
ATOM     19  H   UNL     1       0.993  -0.980  -0.903  0.00  0.00    +0.000 HD
BRANCH  17  20
ATOM     20  O   UNL     1       2.079   0.521   0.006  0.00  0.00    +0.000 OA
BRANCH  20  22
ATOM     21  O   UNL     1       3.520  -1.284  -0.024  0.00  0.00    +0.000 OA
ATOM     22  C   UNL     1       3.308  -0.080  -0.007  0.00  0.00    +0.000 C 
BRANCH  22  23
ATOM     23  C   UNL     1       4.385   0.963   0.003  0.00  0.00    +0.000 C 
ATOM     24  H   UNL     1       4.307   1.568   0.910  0.00  0.00    +0.000 HD
ATOM     25  H   UNL     1       4.301   1.590  -0.888  0.00  0.00    +0.000 HD
ATOM     26  H   UNL     1       5.363   0.473  -0.006  0.00  0.00    +0.000 HD
ENDBRANCH  22  23
ENDBRANCH  20  22
ENDBRANCH  17  20
ENDBRANCH  14  17
ENDBRANCH   1  14
TORSDOF 8
