REMARK  Name = 798
REMARK  0 active torsions:
REMARK  status: ('A' for Active; 'I' for Inactive)
REMARK                            x       y       z     vdW  Elec       q    Type
REMARK                         _______ _______ _______ _____ _____    ______ ____
ROOT
ATOM      1  N   UNL     1       1.561   1.112  -0.000  0.00  0.00    +0.000 N 
ATOM      2  C   UNL     1       0.254   0.681   0.000  0.00  0.00    +0.000 A 
ATOM      3  C   UNL     1       0.281  -0.716   0.000  0.00  0.00    +0.000 A 
ATOM      4  C   UNL     1       1.650  -1.106   0.000  0.00  0.00    +0.000 A 
ATOM      5  C   UNL     1      -0.939   1.412  -0.000  0.00  0.00    +0.000 A 
ATOM      6  C   UNL     1      -0.940  -1.418  -0.000  0.00  0.00    +0.000 A 
ATOM      7  C   UNL     1       2.412   0.040   0.000  0.00  0.00    +0.000 A 
ATOM      8  C   UNL     1      -2.138   0.694   0.000  0.00  0.00    +0.000 A 
ATOM      9  C   UNL     1      -2.141  -0.700   0.000  0.00  0.00    +0.000 A 
ATOM     10  H   UNL     1       1.850   2.081  -0.000  0.00  0.00    +0.000 HD
ATOM     11  H   UNL     1       2.037  -2.115   0.000  0.00  0.00    +0.000 HD
ATOM     12  H   UNL     1      -0.939   2.497  -0.000  0.00  0.00    +0.000 HD
ATOM     13  H   UNL     1      -0.956  -2.504  -0.000  0.00  0.00    +0.000 HD
ATOM     14  H   UNL     1       3.483   0.187   0.000  0.00  0.00    +0.000 HD
ATOM     15  H   UNL     1      -3.083   1.232   0.000  0.00  0.00    +0.000 HD
ATOM     16  H   UNL     1      -3.086  -1.236   0.000  0.00  0.00    +0.000 HD
ENDROOT
TORSDOF 0
