REMARK  Name = 31276
REMARK  7 active torsions:
REMARK  status: ('A' for Active; 'I' for Inactive)
REMARK    1  A    between atoms: O_1  and  C_5
REMARK    2  A    between atoms: O_1  and  C_8
REMARK    3  A    between atoms: C_3  and  C_4
REMARK    4  A    between atoms: C_3  and  C_6
REMARK    5  A    between atoms: C_3  and  C_7
REMARK    6  A    between atoms: C_4  and  C_5
REMARK    7  A    between atoms: C_8  and  C_9
REMARK                            x       y       z     vdW  Elec       q    Type
REMARK                         _______ _______ _______ _____ _____    ______ ____
ROOT
ATOM      1  C   UNL     1       1.161  -0.971  -0.108  0.00  0.00    +0.000 C 
ATOM      2  H   UNL     1       1.043  -1.708   0.696  0.00  0.00    +0.000 HD
ATOM      3  H   UNL     1       1.040  -1.538  -1.040  0.00  0.00    +0.000 HD
ENDROOT
BRANCH   1   4
ATOM      4  C   UNL     1       0.045   0.062  -0.009  0.00  0.00    +0.000 C 
ATOM      5  H   UNL     1       0.112   0.617   0.932  0.00  0.00    +0.000 HD
ATOM      6  H   UNL     1       0.087   0.765  -0.848  0.00  0.00    +0.000 HD
BRANCH   4   7
ATOM      7  O   UNL     1      -1.206  -0.612  -0.054  0.00  0.00    +0.000 OA
BRANCH   7   9
ATOM      8  O   UNL     1      -2.320   1.403   0.128  0.00  0.00    +0.000 OA
ATOM      9  C   UNL     1      -2.314   0.184   0.025  0.00  0.00    +0.000 C 
BRANCH   9  10
ATOM     10  C   UNL     1      -3.553  -0.658  -0.034  0.00  0.00    +0.000 C 
ATOM     11  H   UNL     1      -3.568  -1.354   0.808  0.00  0.00    +0.000 HD
ATOM     12  H   UNL     1      -3.586  -1.201  -0.983  0.00  0.00    +0.000 HD
ATOM     13  H   UNL     1      -4.434  -0.014   0.030  0.00  0.00    +0.000 HD
ENDBRANCH   9  10
ENDBRANCH   7   9
ENDBRANCH   4   7
ENDBRANCH   1   4
BRANCH   1  14
ATOM     14  C   UNL     1       2.573  -0.364  -0.051  0.00  0.00    +0.000 C 
ATOM     15  H   UNL     1       3.294  -1.179  -0.189  0.00  0.00    +0.000 HD
BRANCH  14  16
ATOM     16  C   UNL     1       2.752   0.645  -1.187  0.00  0.00    +0.000 C 
ATOM     17  H   UNL     1       3.803   0.946  -1.258  0.00  0.00    +0.000 HD
ATOM     18  H   UNL     1       2.167   1.557  -1.034  0.00  0.00    +0.000 HD
ATOM     19  H   UNL     1       2.470   0.208  -2.151  0.00  0.00    +0.000 HD
ENDBRANCH  14  16
BRANCH  14  20
ATOM     20  C   UNL     1       2.862   0.312   1.290  0.00  0.00    +0.000 C 
ATOM     21  H   UNL     1       2.245   1.202   1.448  0.00  0.00    +0.000 HD
ATOM     22  H   UNL     1       3.910   0.626   1.339  0.00  0.00    +0.000 HD
ATOM     23  H   UNL     1       2.684  -0.380   2.120  0.00  0.00    +0.000 HD
ENDBRANCH  14  20
ENDBRANCH   1  14
TORSDOF 7
