REMARK  Name = 8038
REMARK  6 active torsions:
REMARK  status: ('A' for Active; 'I' for Inactive)
REMARK    1  A    between atoms: O_1  and  C_4
REMARK    2  A    between atoms: O_1  and  C_7
REMARK    3  A    between atoms: C_3  and  C_4
REMARK    4  A    between atoms: C_3  and  C_5
REMARK    5  A    between atoms: C_3  and  C_6
REMARK    6  A    between atoms: C_7  and  C_8
REMARK                            x       y       z     vdW  Elec       q    Type
REMARK                         _______ _______ _______ _____ _____    ______ ____
ROOT
ATOM      1  C   UNL     1      -1.829  -0.118  -0.327  0.00  0.00    +0.000 C 
ATOM      2  H   UNL     1      -1.802  -0.464  -1.368  0.00  0.00    +0.000 HD
ENDROOT
BRANCH   1   3
ATOM      3  C   UNL     1      -2.070  -1.344   0.556  0.00  0.00    +0.000 C 
ATOM      4  H   UNL     1      -3.031  -1.812   0.317  0.00  0.00    +0.000 HD
ATOM      5  H   UNL     1      -2.082  -1.072   1.617  0.00  0.00    +0.000 HD
ATOM      6  H   UNL     1      -1.290  -2.098   0.408  0.00  0.00    +0.000 HD
ENDBRANCH   1   3
BRANCH   1   7
ATOM      7  C   UNL     1      -2.974   0.881  -0.172  0.00  0.00    +0.000 C 
ATOM      8  H   UNL     1      -3.932   0.418  -0.434  0.00  0.00    +0.000 HD
ATOM      9  H   UNL     1      -2.829   1.743  -0.831  0.00  0.00    +0.000 HD
ATOM     10  H   UNL     1      -3.046   1.248   0.857  0.00  0.00    +0.000 HD
ENDBRANCH   1   7
BRANCH   1  11
ATOM     11  C   UNL     1      -0.490   0.550  -0.001  0.00  0.00    +0.000 C 
ATOM     12  H   UNL     1      -0.352   1.429  -0.642  0.00  0.00    +0.000 HD
ATOM     13  H   UNL     1      -0.473   0.872   1.047  0.00  0.00    +0.000 HD
BRANCH  11  14
ATOM     14  O   UNL     1       0.575  -0.363  -0.233  0.00  0.00    +0.000 OA
BRANCH  14  16
ATOM     15  O   UNL     1       2.110   1.234   0.423  0.00  0.00    +0.000 OA
ATOM     16  C   UNL     1       1.832   0.112   0.021  0.00  0.00    +0.000 C 
BRANCH  16  17
ATOM     17  C   UNL     1       2.847  -0.952  -0.266  0.00  0.00    +0.000 C 
ATOM     18  H   UNL     1       2.796  -1.239  -1.319  0.00  0.00    +0.000 HD
ATOM     19  H   UNL     1       2.668  -1.817   0.378  0.00  0.00    +0.000 HD
ATOM     20  H   UNL     1       3.848  -0.564  -0.058  0.00  0.00    +0.000 HD
ENDBRANCH  16  17
ENDBRANCH  14  16
ENDBRANCH  11  14
ENDBRANCH   1  11
TORSDOF 6
