REMARK  Name = 10430
REMARK  5 active torsions:
REMARK  status: ('A' for Active; 'I' for Inactive)
REMARK    1  A    between atoms: O_1  and  C_7
REMARK    2  A    between atoms: C_3  and  C_4
REMARK    3  A    between atoms: C_3  and  C_5
REMARK    4  A    between atoms: C_3  and  C_6
REMARK    5  A    between atoms: C_4  and  C_7
REMARK                            x       y       z     vdW  Elec       q    Type
REMARK                         _______ _______ _______ _____ _____    ______ ____
ROOT
ATOM      1  C   UNL     1       1.198  -0.133   0.255  0.00  0.00    +0.000 C 
ATOM      2  H   UNL     1       1.067  -0.662   1.207  0.00  0.00    +0.000 HD
ENDROOT
BRANCH   1   3
ATOM      3  C   UNL     1       1.199   1.370   0.542  0.00  0.00    +0.000 C 
ATOM      4  H   UNL     1       0.290   1.681   1.066  0.00  0.00    +0.000 HD
ATOM      5  H   UNL     1       1.278   1.953  -0.382  0.00  0.00    +0.000 HD
ATOM      6  H   UNL     1       2.047   1.639   1.182  0.00  0.00    +0.000 HD
ENDBRANCH   1   3
BRANCH   1   7
ATOM      7  C   UNL     1       2.547  -0.548  -0.337  0.00  0.00    +0.000 C 
ATOM      8  H   UNL     1       2.741  -0.031  -1.284  0.00  0.00    +0.000 HD
ATOM      9  H   UNL     1       3.365  -0.313   0.353  0.00  0.00    +0.000 HD
ATOM     10  H   UNL     1       2.569  -1.626  -0.529  0.00  0.00    +0.000 HD
ENDBRANCH   1   7
BRANCH   1  11
ATOM     11  C   UNL     1       0.038  -0.487  -0.688  0.00  0.00    +0.000 C 
ATOM     12  H   UNL     1       0.022  -1.563  -0.902  0.00  0.00    +0.000 HD
ATOM     13  H   UNL     1       0.162   0.022  -1.652  0.00  0.00    +0.000 HD
BRANCH  11  15
ATOM     14  O   UNL     1      -2.092   0.702  -0.630  0.00  0.00    +0.000 OA
ATOM     15  C   UNL     1      -1.314  -0.100  -0.136  0.00  0.00    +0.000 C 
BRANCH  15  16
ATOM     16  O   UNL     1      -1.576  -0.804   0.995  0.00  0.00    +0.000 OA
ATOM     17  H   UNL     1      -2.456  -0.583   1.367  0.00  0.00    +0.000 HD
ENDBRANCH  15  16
ENDBRANCH  11  15
ENDBRANCH   1  11
TORSDOF 5
