REMARK  Name = 22311
REMARK  3 active torsions:
REMARK  status: ('A' for Active; 'I' for Inactive)
REMARK    1  A    between atoms: C_1  and  C_7
REMARK    2  A    between atoms: C_5  and  C_8
REMARK    3  A    between atoms: C_7  and  C_9
REMARK                            x       y       z     vdW  Elec       q    Type
REMARK                         _______ _______ _______ _____ _____    ______ ____
ROOT
ATOM      1  C   UNL     1       0.719  -0.043  -0.366  0.00  0.00    +0.000 C 
ATOM      2  C   UNL     1       0.042  -1.208   0.353  0.00  0.00    +0.000 C 
ATOM      3  C   UNL     1       0.038   1.284  -0.018  0.00  0.00    +0.000 C 
ATOM      4  C   UNL     1      -1.441  -1.299  -0.017  0.00  0.00    +0.000 C 
ATOM      5  C   UNL     1      -2.140   0.038  -0.038  0.00  0.00    +0.000 C 
ATOM      6  C   UNL     1      -1.460   1.197  -0.022  0.00  0.00    +0.000 C 
ATOM      7  H   UNL     1       0.624  -0.208  -1.448  0.00  0.00    +0.000 HD
ATOM      8  H   UNL     1       0.113  -1.096   1.444  0.00  0.00    +0.000 HD
ATOM      9  H   UNL     1       0.532  -2.158   0.105  0.00  0.00    +0.000 HD
ATOM     10  H   UNL     1       0.347   2.043  -0.748  0.00  0.00    +0.000 HD
ATOM     11  H   UNL     1       0.333   1.665   0.967  0.00  0.00    +0.000 HD
ATOM     12  H   UNL     1      -1.936  -1.968   0.697  0.00  0.00    +0.000 HD
ATOM     13  H   UNL     1      -1.540  -1.757  -1.009  0.00  0.00    +0.000 HD
ATOM     14  H   UNL     1      -2.000   2.140  -0.019  0.00  0.00    +0.000 HD
ENDROOT
BRANCH   1  15
ATOM     15  C   UNL     1       2.167   0.006   0.013  0.00  0.00    +0.000 C 
ATOM     16  C   UNL     1       2.563   0.197   1.280  0.00  0.00    +0.000 C 
ATOM     17  H   UNL     1       3.617   0.230   1.536  0.00  0.00    +0.000 HD
ATOM     18  H   UNL     1       1.861   0.323   2.097  0.00  0.00    +0.000 HD
BRANCH  15  19
ATOM     19  C   UNL     1       3.150  -0.170  -1.107  0.00  0.00    +0.000 C 
ATOM     20  H   UNL     1       3.007  -1.142  -1.590  0.00  0.00    +0.000 HD
ATOM     21  H   UNL     1       3.016   0.617  -1.857  0.00  0.00    +0.000 HD
ATOM     22  H   UNL     1       4.187  -0.122  -0.757  0.00  0.00    +0.000 HD
ENDBRANCH  15  19
ENDBRANCH   1  15
BRANCH   5  23
ATOM     23  C   UNL     1      -3.639  -0.002  -0.080  0.00  0.00    +0.000 C 
ATOM     24  H   UNL     1      -3.979  -0.542  -0.970  0.00  0.00    +0.000 HD
ATOM     25  H   UNL     1      -4.078   1.001  -0.110  0.00  0.00    +0.000 HD
ATOM     26  H   UNL     1      -4.031  -0.511   0.807  0.00  0.00    +0.000 HD
ENDBRANCH   5  23
TORSDOF 3
