REMARK  Name = 8369
REMARK  2 active torsions:
REMARK  status: ('A' for Active; 'I' for Inactive)
REMARK    1  A    between atoms: O_2  and  C_5
REMARK    2  A    between atoms: C_4  and  C_6
REMARK                            x       y       z     vdW  Elec       q    Type
REMARK                         _______ _______ _______ _____ _____    ______ ____
ROOT
ATOM      1  O   UNL     1       1.031  -1.401  -0.001  0.00  0.00    +0.000 OA
ATOM      2  O   UNL     1      -2.268   0.931   0.000  0.00  0.00    +0.000 OA
ATOM      3  C   UNL     1       1.166  -0.016   0.001  0.00  0.00    +0.000 A 
ATOM      4  C   UNL     1       0.104   0.816  -0.001  0.00  0.00    +0.000 A 
ATOM      5  C   UNL     1      -1.264   0.229   0.001  0.00  0.00    +0.000 A 
ATOM      6  C   UNL     1      -1.362  -1.243   0.001  0.00  0.00    +0.000 A 
ATOM      7  C   UNL     1      -0.228  -1.943  -0.001  0.00  0.00    +0.000 A 
ATOM      8  H   UNL     1      -2.337  -1.713   0.002  0.00  0.00    +0.000 HD
ATOM      9  H   UNL     1      -0.188  -3.022  -0.001  0.00  0.00    +0.000 HD
ENDROOT
BRANCH   3  10
ATOM     10  C   UNL     1       2.591   0.440   0.001  0.00  0.00    +0.000 C 
ATOM     11  H   UNL     1       2.937   0.602   1.027  0.00  0.00    +0.000 HD
ATOM     12  H   UNL     1       2.742   1.355  -0.578  0.00  0.00    +0.000 HD
ATOM     13  H   UNL     1       3.235  -0.322  -0.454  0.00  0.00    +0.000 HD
ENDBRANCH   3  10
BRANCH   4  14
ATOM     14  O   UNL     1       0.230   2.187  -0.001  0.00  0.00    +0.000 OA
ATOM     15  H   UNL     1       1.164   2.431   0.094  0.00  0.00    +0.000 HD
ENDBRANCH   4  14
TORSDOF 2
