REMARK  Name = 26447
REMARK  4 active torsions:
REMARK  status: ('A' for Active; 'I' for Inactive)
REMARK    1  A    between atoms: C_2  and  C_6
REMARK    2  A    between atoms: C_4  and  C_9
REMARK    3  A    between atoms: C_6  and  C_10
REMARK    4  A    between atoms: C_6  and  C_11
REMARK                            x       y       z     vdW  Elec       q    Type
REMARK                         _______ _______ _______ _____ _____    ______ ____
ROOT
ATOM      1  O   UNL     1       0.014  -2.244   0.655  0.00  0.00    +0.000 OA
ATOM      2  C   UNL     1      -0.673   0.057   0.638  0.00  0.00    +0.000 C 
ATOM      3  C   UNL     1       0.193   1.301   0.847  0.00  0.00    +0.000 C 
ATOM      4  C   UNL     1       2.020   0.377  -0.675  0.00  0.00    +0.000 C 
ATOM      5  C   UNL     1       1.139   1.583  -0.321  0.00  0.00    +0.000 C 
ATOM      6  C   UNL     1       1.171  -0.869  -0.931  0.00  0.00    +0.000 C 
ATOM      7  C   UNL     1       0.182  -1.117   0.190  0.00  0.00    +0.000 C 
ATOM      8  H   UNL     1      -1.101  -0.211   1.614  0.00  0.00    +0.000 HD
ATOM      9  H   UNL     1       0.804   1.139   1.746  0.00  0.00    +0.000 HD
ATOM     10  H   UNL     1      -0.396   2.193   1.076  0.00  0.00    +0.000 HD
ATOM     11  H   UNL     1       2.557   0.616  -1.602  0.00  0.00    +0.000 HD
ATOM     12  H   UNL     1       0.551   1.871  -1.201  0.00  0.00    +0.000 HD
ATOM     13  H   UNL     1       1.769   2.447  -0.076  0.00  0.00    +0.000 HD
ATOM     14  H   UNL     1       1.809  -1.753  -1.043  0.00  0.00    +0.000 HD
ATOM     15  H   UNL     1       0.601  -0.759  -1.861  0.00  0.00    +0.000 HD
ENDROOT
BRANCH   4  16
ATOM     16  C   UNL     1       3.083   0.112   0.396  0.00  0.00    +0.000 C 
ATOM     17  H   UNL     1       3.684   1.009   0.576  0.00  0.00    +0.000 HD
ATOM     18  H   UNL     1       2.645  -0.200   1.349  0.00  0.00    +0.000 HD
ATOM     19  H   UNL     1       3.763  -0.682   0.070  0.00  0.00    +0.000 HD
ENDBRANCH   4  16
BRANCH   2  20
ATOM     20  C   UNL     1      -1.804   0.285  -0.361  0.00  0.00    +0.000 C 
ATOM     21  H   UNL     1      -1.399   0.496  -1.359  0.00  0.00    +0.000 HD
BRANCH  20  22
ATOM     22  C   UNL     1      -2.669  -0.968  -0.491  0.00  0.00    +0.000 C 
ATOM     23  H   UNL     1      -3.059  -1.287   0.482  0.00  0.00    +0.000 HD
ATOM     24  H   UNL     1      -3.526  -0.779  -1.146  0.00  0.00    +0.000 HD
ATOM     25  H   UNL     1      -2.116  -1.803  -0.931  0.00  0.00    +0.000 HD
ENDBRANCH  20  22
BRANCH  20  26
ATOM     26  C   UNL     1      -2.655   1.483   0.053  0.00  0.00    +0.000 C 
ATOM     27  H   UNL     1      -2.959   1.420   1.104  0.00  0.00    +0.000 HD
ATOM     28  H   UNL     1      -3.568   1.535  -0.551  0.00  0.00    +0.000 HD
ATOM     29  H   UNL     1      -2.133   2.431  -0.106  0.00  0.00    +0.000 HD
ENDBRANCH  20  26
ENDBRANCH   2  20
TORSDOF 4
