REMARK  Name = 605629
REMARK  8 active torsions:
REMARK  status: ('A' for Active; 'I' for Inactive)
REMARK    1  A    between atoms: O_1  and  C_14
REMARK    2  A    between atoms: O_1  and  C_15
REMARK    3  A    between atoms: C_3  and  C_4
REMARK    4  A    between atoms: C_3  and  C_5
REMARK    5  A    between atoms: C_3  and  C_6
REMARK    6  A    between atoms: C_3  and  C_7
REMARK    7  A    between atoms: C_10  and  C_13
REMARK    8  A    between atoms: C_13  and  C_14
REMARK                            x       y       z     vdW  Elec       q    Type
REMARK                         _______ _______ _______ _____ _____    ______ ____
ROOT
ATOM      1  C   UNL     1      -1.850  -0.006   0.085  0.00  0.00    +0.000 A 
ATOM      2  C   UNL     1      -1.221   1.202   0.251  0.00  0.00    +0.000 A 
ATOM      3  C   UNL     1      -1.212  -1.214   0.219  0.00  0.00    +0.000 A 
ATOM      4  C   UNL     1       0.819  -0.005   0.719  0.00  0.00    +0.000 A 
ATOM      5  C   UNL     1       0.136   1.203   0.574  0.00  0.00    +0.000 A 
ATOM      6  C   UNL     1       0.145  -1.213   0.542  0.00  0.00    +0.000 A 
ATOM      7  H   UNL     1      -1.731   2.153   0.143  0.00  0.00    +0.000 HD
ATOM      8  H   UNL     1      -1.685  -2.179   0.093  0.00  0.00    +0.000 HD
ATOM      9  H   UNL     1       0.651   2.151   0.707  0.00  0.00    +0.000 HD
ATOM     10  H   UNL     1       0.666  -2.160   0.650  0.00  0.00    +0.000 HD
ENDROOT
BRANCH   4  11
ATOM     11  C   UNL     1       2.270  -0.004   1.063  0.00  0.00    +0.000 C 
ATOM     12  H   UNL     1       2.505   0.871   1.681  0.00  0.00    +0.000 HD
ATOM     13  H   UNL     1       2.508  -0.895   1.657  0.00  0.00    +0.000 HD
BRANCH  11  15
ATOM     14  O   UNL     1       2.797   0.072  -1.311  0.00  0.00    +0.000 OA
ATOM     15  C   UNL     1       3.179   0.015  -0.150  0.00  0.00    +0.000 C 
BRANCH  15  16
ATOM     16  O   UNL     1       4.482  -0.039   0.260  0.00  0.00    +0.000 OA
BRANCH  16  17
ATOM     17  C   UNL     1       5.459  -0.027  -0.786  0.00  0.00    +0.000 C 
ATOM     18  H   UNL     1       5.383   0.899  -1.364  0.00  0.00    +0.000 HD
ATOM     19  H   UNL     1       5.330  -0.899  -1.434  0.00  0.00    +0.000 HD
ATOM     20  H   UNL     1       6.450  -0.074  -0.327  0.00  0.00    +0.000 HD
ENDBRANCH  16  17
ENDBRANCH  15  16
ENDBRANCH  11  15
ENDBRANCH   4  11
BRANCH   1  21
ATOM     21  C   UNL     1      -3.346  -0.007  -0.271  0.00  0.00    +0.000 C 
BRANCH  21  22
ATOM     22  C   UNL     1      -3.563   0.738  -1.606  0.00  0.00    +0.000 C 
ATOM     23  H   UNL     1      -4.618   0.714  -1.904  0.00  0.00    +0.000 HD
ATOM     24  H   UNL     1      -3.273   1.792  -1.549  0.00  0.00    +0.000 HD
ATOM     25  H   UNL     1      -2.979   0.279  -2.413  0.00  0.00    +0.000 HD
ENDBRANCH  21  22
BRANCH  21  26
ATOM     26  C   UNL     1      -4.145   0.705   0.843  0.00  0.00    +0.000 C 
ATOM     27  H   UNL     1      -3.867   1.759   0.949  0.00  0.00    +0.000 HD
ATOM     28  H   UNL     1      -5.221   0.680   0.634  0.00  0.00    +0.000 HD
ATOM     29  H   UNL     1      -3.983   0.223   1.814  0.00  0.00    +0.000 HD
ENDBRANCH  21  26
BRANCH  21  30
ATOM     30  C   UNL     1      -3.950  -1.420  -0.432  0.00  0.00    +0.000 C 
ATOM     31  H   UNL     1      -5.016  -1.361  -0.684  0.00  0.00    +0.000 HD
ATOM     32  H   UNL     1      -3.469  -1.982  -1.242  0.00  0.00    +0.000 HD
ATOM     33  H   UNL     1      -3.880  -2.005   0.492  0.00  0.00    +0.000 HD
ENDBRANCH  21  30
ENDBRANCH   1  21
TORSDOF 8
