REMARK  Name = 12180
REMARK  5 active torsions:
REMARK  status: ('A' for Active; 'I' for Inactive)
REMARK    1  A    between atoms: O_1  and  C_6
REMARK    2  A    between atoms: O_1  and  C_7
REMARK    3  A    between atoms: C_3  and  C_4
REMARK    4  A    between atoms: C_3  and  C_5
REMARK    5  A    between atoms: C_4  and  C_6
REMARK                            x       y       z     vdW  Elec       q    Type
REMARK                         _______ _______ _______ _____ _____    ______ ____
ROOT
ATOM      1  C   UNL     1      -0.728  -0.573  -0.001  0.00  0.00    +0.000 C 
ATOM      2  H   UNL     1      -0.774  -1.197  -0.901  0.00  0.00    +0.000 HD
ATOM      3  H   UNL     1      -0.763  -1.219   0.883  0.00  0.00    +0.000 HD
ENDROOT
BRANCH   1   4
ATOM      4  C   UNL     1      -1.910   0.392   0.020  0.00  0.00    +0.000 C 
ATOM      5  H   UNL     1      -1.865   1.019   0.919  0.00  0.00    +0.000 HD
ATOM      6  H   UNL     1      -1.855   1.070  -0.841  0.00  0.00    +0.000 HD
BRANCH   4   7
ATOM      7  C   UNL     1      -3.236  -0.349  -0.011  0.00  0.00    +0.000 C 
ATOM      8  H   UNL     1      -4.068   0.361   0.005  0.00  0.00    +0.000 HD
ATOM      9  H   UNL     1      -3.325  -0.956  -0.918  0.00  0.00    +0.000 HD
ATOM     10  H   UNL     1      -3.336  -1.010   0.856  0.00  0.00    +0.000 HD
ENDBRANCH   4   7
ENDBRANCH   1   4
BRANCH   1  12
ATOM     11  O   UNL     1       0.736   1.370  -0.007  0.00  0.00    +0.000 OA
ATOM     12  C   UNL     1       0.598   0.154  -0.003  0.00  0.00    +0.000 C 
BRANCH  12  13
ATOM     13  O   UNL     1       1.607  -0.766   0.002  0.00  0.00    +0.000 OA
BRANCH  13  14
ATOM     14  C   UNL     1       2.933  -0.227   0.002  0.00  0.00    +0.000 C 
ATOM     15  H   UNL     1       3.099   0.369  -0.901  0.00  0.00    +0.000 HD
ATOM     16  H   UNL     1       3.639  -1.061   0.006  0.00  0.00    +0.000 HD
ATOM     17  H   UNL     1       3.096   0.376   0.900  0.00  0.00    +0.000 HD
ENDBRANCH  13  14
ENDBRANCH  12  13
ENDBRANCH   1  12
TORSDOF 5
