REMARK  Name = 4133
REMARK  4 active torsions:
REMARK  status: ('A' for Active; 'I' for Inactive)
REMARK    1  A    between atoms: O_1  and  C_10
REMARK    2  A    between atoms: O_1  and  C_11
REMARK    3  A    between atoms: O_2  and  C_5
REMARK    4  A    between atoms: C_4  and  C_10
REMARK                            x       y       z     vdW  Elec       q    Type
REMARK                         _______ _______ _______ _____ _____    ______ ____
ROOT
ATOM      1  C   UNL     1      -0.038   0.074   0.082  0.00  0.00    +0.000 A 
ATOM      2  C   UNL     1      -0.950  -0.964  -0.106  0.00  0.00    +0.000 A 
ATOM      3  C   UNL     1      -0.491   1.387   0.206  0.00  0.00    +0.000 A 
ATOM      4  C   UNL     1      -2.316  -0.689  -0.172  0.00  0.00    +0.000 A 
ATOM      5  C   UNL     1      -1.857   1.663   0.140  0.00  0.00    +0.000 A 
ATOM      6  C   UNL     1      -2.769   0.625  -0.049  0.00  0.00    +0.000 A 
ATOM      7  H   UNL     1       0.193   2.216   0.368  0.00  0.00    +0.000 HD
ATOM      8  H   UNL     1      -3.038  -1.487  -0.319  0.00  0.00    +0.000 HD
ATOM      9  H   UNL     1      -2.210   2.685   0.239  0.00  0.00    +0.000 HD
ATOM     10  H   UNL     1      -3.833   0.840  -0.099  0.00  0.00    +0.000 HD
ENDROOT
BRANCH   2  11
ATOM     11  O   UNL     1      -0.528  -2.254  -0.230  0.00  0.00    +0.000 OA
ATOM     12  H   UNL     1      -1.300  -2.831  -0.354  0.00  0.00    +0.000 HD
ENDBRANCH   2  11
BRANCH   1  14
ATOM     13  O   UNL     1       1.887  -1.242   0.580  0.00  0.00    +0.000 OA
ATOM     14  C   UNL     1       1.392  -0.192   0.154  0.00  0.00    +0.000 C 
BRANCH  14  15
ATOM     15  O   UNL     1       2.123   0.867  -0.311  0.00  0.00    +0.000 OA
BRANCH  15  16
ATOM     16  C   UNL     1       3.547   0.726  -0.293  0.00  0.00    +0.000 C 
ATOM     17  H   UNL     1       3.851  -0.114  -0.926  0.00  0.00    +0.000 HD
ATOM     18  H   UNL     1       3.899   0.583   0.733  0.00  0.00    +0.000 HD
ATOM     19  H   UNL     1       3.985   1.644  -0.692  0.00  0.00    +0.000 HD
ENDBRANCH  15  16
ENDBRANCH  14  15
ENDBRANCH   1  14
TORSDOF 4
