REMARK  Name = 7824
REMARK  7 active torsions:
REMARK  status: ('A' for Active; 'I' for Inactive)
REMARK    1  A    between atoms: O_1  and  C_8
REMARK    2  A    between atoms: O_1  and  C_9
REMARK    3  A    between atoms: C_3  and  C_4
REMARK    4  A    between atoms: C_3  and  C_5
REMARK    5  A    between atoms: C_4  and  C_6
REMARK    6  A    between atoms: C_5  and  C_7
REMARK    7  A    between atoms: C_6  and  C_8
REMARK                            x       y       z     vdW  Elec       q    Type
REMARK                         _______ _______ _______ _____ _____    ______ ____
ROOT
ATOM      1  C   UNL     1      -0.795  -0.315  -0.010  0.00  0.00    +0.000 C 
ATOM      2  H   UNL     1      -0.753  -0.927   0.900  0.00  0.00    +0.000 HD
ATOM      3  H   UNL     1      -0.758  -1.013  -0.856  0.00  0.00    +0.000 HD
ENDROOT
BRANCH   1   4
ATOM      4  C   UNL     1      -2.116   0.460  -0.046  0.00  0.00    +0.000 C 
ATOM      5  H   UNL     1      -2.172   1.050  -0.969  0.00  0.00    +0.000 HD
ATOM      6  H   UNL     1      -2.148   1.165   0.792  0.00  0.00    +0.000 HD
BRANCH   4   7
ATOM      7  C   UNL     1      -3.315  -0.486   0.034  0.00  0.00    +0.000 C 
ATOM      8  H   UNL     1      -3.304  -1.175  -0.819  0.00  0.00    +0.000 HD
ATOM      9  H   UNL     1      -3.249  -1.095   0.944  0.00  0.00    +0.000 HD
BRANCH   7  10
ATOM     10  C   UNL     1      -4.629   0.278   0.044  0.00  0.00    +0.000 C 
ATOM     11  H   UNL     1      -4.685   0.951   0.906  0.00  0.00    +0.000 HD
ATOM     12  H   UNL     1      -4.742   0.876  -0.866  0.00  0.00    +0.000 HD
ATOM     13  H   UNL     1      -5.472  -0.417   0.101  0.00  0.00    +0.000 HD
ENDBRANCH   7  10
ENDBRANCH   4   7
ENDBRANCH   1   4
BRANCH   1  14
ATOM     14  C   UNL     1       0.423   0.606  -0.056  0.00  0.00    +0.000 C 
ATOM     15  H   UNL     1       0.396   1.206  -0.972  0.00  0.00    +0.000 HD
ATOM     16  H   UNL     1       0.400   1.280   0.809  0.00  0.00    +0.000 HD
BRANCH  14  18
ATOM     17  O   UNL     1       1.855  -1.360  -0.021  0.00  0.00    +0.000 OA
ATOM     18  C   UNL     1       1.738  -0.142  -0.030  0.00  0.00    +0.000 C 
BRANCH  18  19
ATOM     19  O   UNL     1       2.762   0.761   0.012  0.00  0.00    +0.000 OA
BRANCH  19  20
ATOM     20  C   UNL     1       4.077   0.199   0.072  0.00  0.00    +0.000 C 
ATOM     21  H   UNL     1       4.797   1.021   0.101  0.00  0.00    +0.000 HD
ATOM     22  H   UNL     1       4.271  -0.406  -0.819  0.00  0.00    +0.000 HD
ATOM     23  H   UNL     1       4.192  -0.401   0.980  0.00  0.00    +0.000 HD
ENDBRANCH  19  20
ENDBRANCH  18  19
ENDBRANCH  14  18
ENDBRANCH   1  14
TORSDOF 7
