REMARK  Name = 8158
REMARK  9 active torsions:
REMARK  status: ('A' for Active; 'I' for Inactive)
REMARK    1  A    between atoms: O_1  and  C_11
REMARK    2  A    between atoms: C_3  and  C_4
REMARK    3  A    between atoms: C_3  and  C_5
REMARK    4  A    between atoms: C_4  and  C_6
REMARK    5  A    between atoms: C_5  and  C_7
REMARK    6  A    between atoms: C_6  and  C_8
REMARK    7  A    between atoms: C_7  and  C_9
REMARK    8  A    between atoms: C_8  and  C_10
REMARK    9  A    between atoms: C_9  and  C_11
REMARK                            x       y       z     vdW  Elec       q    Type
REMARK                         _______ _______ _______ _____ _____    ______ ____
ROOT
ATOM      1  C   UNL     1      -1.015   0.276   0.018  0.00  0.00    +0.000 C 
ATOM      2  H   UNL     1      -0.980   0.956  -0.842  0.00  0.00    +0.000 HD
ATOM      3  H   UNL     1      -0.997   0.903   0.918  0.00  0.00    +0.000 HD
ENDROOT
BRANCH   1   4
ATOM      4  C   UNL     1      -2.330  -0.511  -0.018  0.00  0.00    +0.000 C 
ATOM      5  H   UNL     1      -2.354  -1.127  -0.926  0.00  0.00    +0.000 HD
ATOM      6  H   UNL     1      -2.358  -1.203   0.834  0.00  0.00    +0.000 HD
BRANCH   4   7
ATOM      7  C   UNL     1      -3.574   0.380   0.020  0.00  0.00    +0.000 C 
ATOM      8  H   UNL     1      -3.551   0.995   0.928  0.00  0.00    +0.000 HD
ATOM      9  H   UNL     1      -3.547   1.071  -0.831  0.00  0.00    +0.000 HD
BRANCH   7  10
ATOM     10  C   UNL     1      -4.885  -0.411  -0.017  0.00  0.00    +0.000 C 
ATOM     11  H   UNL     1      -4.925  -1.087   0.846  0.00  0.00    +0.000 HD
ATOM     12  H   UNL     1      -4.904  -1.040  -0.914  0.00  0.00    +0.000 HD
BRANCH  10  13
ATOM     13  C   UNL     1      -6.127   0.468  -0.010  0.00  0.00    +0.000 C 
ATOM     14  H   UNL     1      -6.162   1.086   0.892  0.00  0.00    +0.000 HD
ATOM     15  H   UNL     1      -7.030  -0.150  -0.037  0.00  0.00    +0.000 HD
ATOM     16  H   UNL     1      -6.141   1.130  -0.881  0.00  0.00    +0.000 HD
ENDBRANCH  10  13
ENDBRANCH   7  10
ENDBRANCH   4   7
ENDBRANCH   1   4
BRANCH   1  17
ATOM     17  C   UNL     1       0.229  -0.616   0.005  0.00  0.00    +0.000 C 
ATOM     18  H   UNL     1       0.198  -1.295   0.866  0.00  0.00    +0.000 HD
ATOM     19  H   UNL     1       0.212  -1.244  -0.894  0.00  0.00    +0.000 HD
BRANCH  17  20
ATOM     20  C   UNL     1       1.546   0.171   0.038  0.00  0.00    +0.000 C 
ATOM     21  H   UNL     1       1.562   0.795   0.942  0.00  0.00    +0.000 HD
ATOM     22  H   UNL     1       1.557   0.868  -0.810  0.00  0.00    +0.000 HD
BRANCH  20  23
ATOM     23  C   UNL     1       2.812  -0.680  -0.002  0.00  0.00    +0.000 C 
ATOM     24  H   UNL     1       2.811  -1.298  -0.906  0.00  0.00    +0.000 HD
ATOM     25  H   UNL     1       2.840  -1.335   0.875  0.00  0.00    +0.000 HD
BRANCH  23  27
ATOM     26  O   UNL     1       4.079   1.376  -0.022  0.00  0.00    +0.000 OA
ATOM     27  C   UNL     1       4.069   0.152  -0.009  0.00  0.00    +0.000 C 
BRANCH  27  28
ATOM     28  O   UNL     1       5.196  -0.604  -0.005  0.00  0.00    +0.000 OA
ATOM     29  H   UNL     1       6.007  -0.052  -0.013  0.00  0.00    +0.000 HD
ENDBRANCH  27  28
ENDBRANCH  23  27
ENDBRANCH  20  23
ENDBRANCH  17  20
ENDBRANCH   1  17
TORSDOF 9
