REMARK  Name = 454
REMARK  7 active torsions:
REMARK  status: ('A' for Active; 'I' for Inactive)
REMARK    1  A    between atoms: C_2  and  C_3
REMARK    2  A    between atoms: C_2  and  C_4
REMARK    3  A    between atoms: C_3  and  C_5
REMARK    4  A    between atoms: C_4  and  C_6
REMARK    5  A    between atoms: C_5  and  C_7
REMARK    6  A    between atoms: C_6  and  C_8
REMARK    7  A    between atoms: C_7  and  C_9
REMARK                            x       y       z     vdW  Elec       q    Type
REMARK                         _______ _______ _______ _____ _____    ______ ____
ROOT
ATOM      1  C   UNL     1      -1.108  -0.384  -0.002  0.00  0.00    +0.000 C 
ATOM      2  H   UNL     1      -1.031  -1.043  -0.875  0.00  0.00    +0.000 HD
ATOM      3  H   UNL     1      -1.055  -1.020   0.890  0.00  0.00    +0.000 HD
ENDROOT
BRANCH   1   4
ATOM      4  C   UNL     1       0.066   0.598   0.005  0.00  0.00    +0.000 C 
ATOM      5  H   UNL     1      -0.029   1.274   0.864  0.00  0.00    +0.000 HD
ATOM      6  H   UNL     1       0.016   1.222  -0.896  0.00  0.00    +0.000 HD
BRANCH   4   7
ATOM      7  C   UNL     1       1.432  -0.089   0.063  0.00  0.00    +0.000 C 
ATOM      8  H   UNL     1       1.502  -0.682   0.984  0.00  0.00    +0.000 HD
ATOM      9  H   UNL     1       1.507  -0.801  -0.768  0.00  0.00    +0.000 HD
BRANCH   7  10
ATOM     10  C   UNL     1       2.604   0.886  -0.003  0.00  0.00    +0.000 C 
ATOM     11  H   UNL     1       2.543   1.498  -0.910  0.00  0.00    +0.000 HD
ATOM     12  H   UNL     1       2.591   1.556   0.863  0.00  0.00    +0.000 HD
BRANCH  10  14
ATOM     13  O   UNL     1       4.092  -1.034  -0.015  0.00  0.00    +0.000 OA
ATOM     14  C   UNL     1       3.941   0.184  -0.021  0.00  0.00    +0.000 C 
ATOM     15  H   UNL     1       4.817   0.854  -0.046  0.00  0.00    +0.000 HD
ENDBRANCH  10  14
ENDBRANCH   7  10
ENDBRANCH   4   7
ENDBRANCH   1   4
BRANCH   1  16
ATOM     16  C   UNL     1      -2.448   0.354  -0.029  0.00  0.00    +0.000 C 
ATOM     17  H   UNL     1      -2.507   0.978  -0.929  0.00  0.00    +0.000 HD
ATOM     18  H   UNL     1      -2.513   1.027   0.835  0.00  0.00    +0.000 HD
BRANCH  16  19
ATOM     19  C   UNL     1      -3.623  -0.623  -0.003  0.00  0.00    +0.000 C 
ATOM     20  H   UNL     1      -3.577  -1.282  -0.878  0.00  0.00    +0.000 HD
ATOM     21  H   UNL     1      -3.558  -1.260   0.887  0.00  0.00    +0.000 HD
BRANCH  19  22
ATOM     22  C   UNL     1      -4.956   0.107   0.004  0.00  0.00    +0.000 C 
ATOM     23  H   UNL     1      -5.046   0.749   0.886  0.00  0.00    +0.000 HD
ATOM     24  H   UNL     1      -5.782  -0.611   0.021  0.00  0.00    +0.000 HD
ATOM     25  H   UNL     1      -5.066   0.731  -0.888  0.00  0.00    +0.000 HD
ENDBRANCH  19  22
ENDBRANCH  16  19
ENDBRANCH   1  16
TORSDOF 7
