REMARK  Name = 12348
REMARK  7 active torsions:
REMARK  status: ('A' for Active; 'I' for Inactive)
REMARK    1  A    between atoms: O_1  and  C_6
REMARK    2  A    between atoms: O_1  and  C_8
REMARK    3  A    between atoms: C_3  and  C_4
REMARK    4  A    between atoms: C_3  and  C_5
REMARK    5  A    between atoms: C_4  and  C_6
REMARK    6  A    between atoms: C_5  and  C_7
REMARK    7  A    between atoms: C_8  and  C_9
REMARK                            x       y       z     vdW  Elec       q    Type
REMARK                         _______ _______ _______ _____ _____    ______ ____
ROOT
ATOM      1  C   UNL     1      -0.911   0.512   0.028  0.00  0.00    +0.000 C 
ATOM      2  H   UNL     1      -0.898   1.170   0.906  0.00  0.00    +0.000 HD
ATOM      3  H   UNL     1      -0.904   1.178  -0.844  0.00  0.00    +0.000 HD
ENDROOT
BRANCH   1   4
ATOM      4  C   UNL     1      -2.175  -0.345   0.028  0.00  0.00    +0.000 C 
ATOM      5  H   UNL     1      -2.188  -0.982   0.920  0.00  0.00    +0.000 HD
ATOM      6  H   UNL     1      -2.167  -1.010  -0.844  0.00  0.00    +0.000 HD
BRANCH   4   7
ATOM      7  C   UNL     1      -3.434   0.521  -0.004  0.00  0.00    +0.000 C 
ATOM      8  H   UNL     1      -3.462   1.171   0.878  0.00  0.00    +0.000 HD
ATOM      9  H   UNL     1      -3.417   1.171  -0.886  0.00  0.00    +0.000 HD
BRANCH   7  10
ATOM     10  C   UNL     1      -4.694  -0.330  -0.039  0.00  0.00    +0.000 C 
ATOM     11  H   UNL     1      -4.713  -0.967  -0.928  0.00  0.00    +0.000 HD
ATOM     12  H   UNL     1      -4.759  -0.971   0.846  0.00  0.00    +0.000 HD
ATOM     13  H   UNL     1      -5.582   0.310  -0.060  0.00  0.00    +0.000 HD
ENDBRANCH   7  10
ENDBRANCH   4   7
ENDBRANCH   1   4
BRANCH   1  14
ATOM     14  C   UNL     1       0.348  -0.342   0.018  0.00  0.00    +0.000 C 
ATOM     15  H   UNL     1       0.361  -0.980  -0.874  0.00  0.00    +0.000 HD
ATOM     16  H   UNL     1       0.378  -0.976   0.912  0.00  0.00    +0.000 HD
BRANCH  14  17
ATOM     17  O   UNL     1       1.483   0.512   0.004  0.00  0.00    +0.000 OA
BRANCH  17  19
ATOM     18  O   UNL     1       2.887  -1.322  -0.006  0.00  0.00    +0.000 OA
ATOM     19  C   UNL     1       2.700  -0.113  -0.007  0.00  0.00    +0.000 C 
BRANCH  19  20
ATOM     20  C   UNL     1       3.798   0.907  -0.022  0.00  0.00    +0.000 C 
ATOM     21  H   UNL     1       3.738   1.528   0.875  0.00  0.00    +0.000 HD
ATOM     22  H   UNL     1       3.720   1.521  -0.922  0.00  0.00    +0.000 HD
ATOM     23  H   UNL     1       4.766   0.398  -0.029  0.00  0.00    +0.000 HD
ENDBRANCH  19  20
ENDBRANCH  17  19
ENDBRANCH  14  17
ENDBRANCH   1  14
TORSDOF 7
