REMARK  Name = 8063
REMARK  4 active torsions:
REMARK  status: ('A' for Active; 'I' for Inactive)
REMARK    1  A    between atoms: C_2  and  C_3
REMARK    2  A    between atoms: C_2  and  C_4
REMARK    3  A    between atoms: C_3  and  C_5
REMARK    4  A    between atoms: C_4  and  C_6
REMARK                            x       y       z     vdW  Elec       q    Type
REMARK                         _______ _______ _______ _____ _____    ______ ____
ROOT
ATOM      1  C   UNL     1      -0.406   0.165   0.034  0.00  0.00    +0.000 C 
ATOM      2  H   UNL     1      -0.303   0.774   0.941  0.00  0.00    +0.000 HD
ATOM      3  H   UNL     1      -0.289   0.848  -0.818  0.00  0.00    +0.000 HD
ENDROOT
BRANCH   1   4
ATOM      4  C   UNL     1      -1.793  -0.473  -0.008  0.00  0.00    +0.000 C 
ATOM      5  H   UNL     1      -1.891  -1.094  -0.906  0.00  0.00    +0.000 HD
ATOM      6  H   UNL     1      -1.925  -1.132   0.858  0.00  0.00    +0.000 HD
BRANCH   4   7
ATOM      7  C   UNL     1      -2.891   0.579  -0.010  0.00  0.00    +0.000 C 
ATOM      8  H   UNL     1      -3.875   0.100  -0.038  0.00  0.00    +0.000 HD
ATOM      9  H   UNL     1      -2.806   1.233  -0.884  0.00  0.00    +0.000 HD
ATOM     10  H   UNL     1      -2.841   1.200   0.890  0.00  0.00    +0.000 HD
ENDBRANCH   4   7
ENDBRANCH   1   4
BRANCH   1  11
ATOM     11  C   UNL     1       0.693  -0.892  -0.004  0.00  0.00    +0.000 C 
ATOM     12  H   UNL     1       0.604  -1.508  -0.905  0.00  0.00    +0.000 HD
ATOM     13  H   UNL     1       0.619  -1.550   0.868  0.00  0.00    +0.000 HD
BRANCH  11  15
ATOM     14  O   UNL     1       2.318   0.912  -0.009  0.00  0.00    +0.000 OA
ATOM     15  C   UNL     1       2.078  -0.291  -0.003  0.00  0.00    +0.000 C 
ATOM     16  H   UNL     1       2.903  -1.024  -0.004  0.00  0.00    +0.000 HD
ENDBRANCH  11  15
ENDBRANCH   1  11
TORSDOF 4
