REMARK  Name = 244
REMARK  2 active torsions:
REMARK  status: ('A' for Active; 'I' for Inactive)
REMARK    1  A    between atoms: O_1  and  C_3
REMARK    2  A    between atoms: C_2  and  C_3
REMARK                            x       y       z     vdW  Elec       q    Type
REMARK                         _______ _______ _______ _____ _____    ______ ____
ROOT
ATOM      1  C   UNL     1       0.576  -0.000   0.272  0.00  0.00    +0.000 A 
ATOM      2  C   UNL     1      -0.111   1.208   0.151  0.00  0.00    +0.000 A 
ATOM      3  C   UNL     1      -0.111  -1.208   0.151  0.00  0.00    +0.000 A 
ATOM      4  C   UNL     1      -1.485   1.208  -0.091  0.00  0.00    +0.000 A 
ATOM      5  C   UNL     1      -1.485  -1.208  -0.092  0.00  0.00    +0.000 A 
ATOM      6  C   UNL     1      -2.171   0.000  -0.213  0.00  0.00    +0.000 A 
ATOM      7  H   UNL     1       0.413   2.155   0.241  0.00  0.00    +0.000 HD
ATOM      8  H   UNL     1       0.413  -2.156   0.241  0.00  0.00    +0.000 HD
ATOM      9  H   UNL     1      -2.019   2.149  -0.186  0.00  0.00    +0.000 HD
ATOM     10  H   UNL     1      -2.020  -2.148  -0.187  0.00  0.00    +0.000 HD
ATOM     11  H   UNL     1      -3.241   0.000  -0.402  0.00  0.00    +0.000 HD
ENDROOT
BRANCH   1  12
ATOM     12  C   UNL     1       2.045  -0.000   0.531  0.00  0.00    +0.000 C 
ATOM     13  H   UNL     1       2.350   0.880   1.107  0.00  0.00    +0.000 HD
ATOM     14  H   UNL     1       2.350  -0.883   1.103  0.00  0.00    +0.000 HD
BRANCH  12  15
ATOM     15  O   UNL     1       2.743   0.000  -0.708  0.00  0.00    +0.000 OA
ATOM     16  H   UNL     1       2.371   0.703  -1.268  0.00  0.00    +0.000 HD
ENDBRANCH  12  15
ENDBRANCH   1  12
TORSDOF 2
