REMARK  Name = 125098
REMARK  8 active torsions:
REMARK  status: ('A' for Active; 'I' for Inactive)
REMARK    1  A    between atoms: O_1  and  C_11
REMARK    2  A    between atoms: O_1  and  C_13
REMARK    3  A    between atoms: O_2  and  C_12
REMARK    4  A    between atoms: C_5  and  C_10
REMARK    5  A    between atoms: C_10  and  C_12
REMARK    6  A    between atoms: C_13  and  C_14
REMARK    7  A    between atoms: C_13  and  C_15
REMARK    8  A    between atoms: C_14  and  C_16
REMARK                            x       y       z     vdW  Elec       q    Type
REMARK                         _______ _______ _______ _____ _____    ______ ____
ROOT
ATOM      1  O   UNL     1      -1.046   0.496   1.923  0.00  0.00    +0.000 OA
ATOM      2  N   UNL     1       0.686   0.507   0.366  0.00  0.00    +0.000 N 
ATOM      3  C   UNL     1       1.288  -0.077  -0.852  0.00  0.00    +0.000 C 
ATOM      4  C   UNL     1       2.071   0.976  -1.650  0.00  0.00    +0.000 C 
ATOM      5  C   UNL     1       3.031   1.785  -0.783  0.00  0.00    +0.000 C 
ATOM      6  C   UNL     1       2.286   2.404   0.393  0.00  0.00    +0.000 C 
ATOM      7  C   UNL     1       1.552   1.342   1.203  0.00  0.00    +0.000 C 
ATOM      8  C   UNL     1      -0.587   0.152   0.835  0.00  0.00    +0.000 C 
ATOM      9  H   UNL     1       0.483  -0.428  -1.508  0.00  0.00    +0.000 HD
ATOM     10  H   UNL     1       1.353   1.669  -2.108  0.00  0.00    +0.000 HD
ATOM     11  H   UNL     1       2.619   0.504  -2.474  0.00  0.00    +0.000 HD
ATOM     12  H   UNL     1       3.493   2.576  -1.385  0.00  0.00    +0.000 HD
ATOM     13  H   UNL     1       3.843   1.147  -0.418  0.00  0.00    +0.000 HD
ATOM     14  H   UNL     1       2.988   2.944   1.038  0.00  0.00    +0.000 HD
ATOM     15  H   UNL     1       1.563   3.138   0.016  0.00  0.00    +0.000 HD
ATOM     16  H   UNL     1       2.268   0.676   1.698  0.00  0.00    +0.000 HD
ATOM     17  H   UNL     1       0.967   1.825   1.992  0.00  0.00    +0.000 HD
ENDROOT
BRANCH   3  18
ATOM     18  C   UNL     1       2.145  -1.296  -0.500  0.00  0.00    +0.000 C 
ATOM     19  H   UNL     1       3.011  -1.013   0.110  0.00  0.00    +0.000 HD
ATOM     20  H   UNL     1       2.562  -1.738  -1.414  0.00  0.00    +0.000 HD
BRANCH  18  21
ATOM     21  C   UNL     1       1.340  -2.342   0.246  0.00  0.00    +0.000 C 
ATOM     22  H   UNL     1       0.960  -1.974   1.201  0.00  0.00    +0.000 HD
ATOM     23  H   UNL     1       0.503  -2.718  -0.350  0.00  0.00    +0.000 HD
BRANCH  21  24
ATOM     24  O   UNL     1       2.197  -3.432   0.555  0.00  0.00    +0.000 OA
ATOM     25  H   UNL     1       2.514  -3.805  -0.285  0.00  0.00    +0.000 HD
ENDBRANCH  21  24
ENDBRANCH  18  21
ENDBRANCH   3  18
BRANCH   8  26
ATOM     26  O   UNL     1      -1.277  -0.632  -0.051  0.00  0.00    +0.000 OA
BRANCH  26  27
ATOM     27  C   UNL     1      -2.704  -0.511  -0.025  0.00  0.00    +0.000 C 
ATOM     28  H   UNL     1      -3.060  -0.805   0.971  0.00  0.00    +0.000 HD
BRANCH  27  29
ATOM     29  C   UNL     1      -3.299  -1.467  -1.049  0.00  0.00    +0.000 C 
ATOM     30  H   UNL     1      -3.012  -1.181  -2.067  0.00  0.00    +0.000 HD
ATOM     31  H   UNL     1      -2.907  -2.478  -0.890  0.00  0.00    +0.000 HD
ATOM     32  H   UNL     1      -4.389  -1.516  -0.988  0.00  0.00    +0.000 HD
ENDBRANCH  27  29
BRANCH  27  33
ATOM     33  C   UNL     1      -3.089   0.938  -0.331  0.00  0.00    +0.000 C 
ATOM     34  H   UNL     1      -2.628   1.632   0.380  0.00  0.00    +0.000 HD
ATOM     35  H   UNL     1      -2.704   1.231  -1.316  0.00  0.00    +0.000 HD
BRANCH  33  36
ATOM     36  C   UNL     1      -4.595   1.158  -0.279  0.00  0.00    +0.000 C 
ATOM     37  H   UNL     1      -5.012   0.816   0.673  0.00  0.00    +0.000 HD
ATOM     38  H   UNL     1      -5.109   0.641  -1.094  0.00  0.00    +0.000 HD
ATOM     39  H   UNL     1      -4.819   2.225  -0.381  0.00  0.00    +0.000 HD
ENDBRANCH  33  36
ENDBRANCH  27  33
ENDBRANCH  26  27
ENDBRANCH   8  26
TORSDOF 8
