REMARK  Name = 62098
REMARK  4 active torsions:
REMARK  status: ('A' for Active; 'I' for Inactive)
REMARK    1  A    between atoms: C_4  and  C_5
REMARK    2  A    between atoms: C_4  and  C_6
REMARK    3  A    between atoms: C_6  and  C_13
REMARK    4  A    between atoms: C_13  and  C_14
REMARK                            x       y       z     vdW  Elec       q    Type
REMARK                         _______ _______ _______ _____ _____    ______ ____
ROOT
ATOM      1  O   UNL     1       2.878  -1.644   0.093  0.00  0.00    +0.000 OA
ATOM      2  O   UNL     1       3.793   0.521  -0.439  0.00  0.00    +0.000 OA
ATOM      3  C   UNL     1      -0.209   0.307   0.446  0.00  0.00    +0.000 A 
ATOM      4  C   UNL     1       1.939  -0.660   0.138  0.00  0.00    +0.000 A 
ATOM      5  C   UNL     1       0.605  -0.828   0.449  0.00  0.00    +0.000 A 
ATOM      6  C   UNL     1       2.462   0.576  -0.165  0.00  0.00    +0.000 A 
ATOM      7  C   UNL     1       0.325   1.570   0.136  0.00  0.00    +0.000 A 
ATOM      8  C   UNL     1       1.679   1.712  -0.175  0.00  0.00    +0.000 A 
ATOM      9  C   UNL     1       4.051  -0.888  -0.274  0.00  0.00    +0.000 C 
ATOM     10  H   UNL     1       0.208  -1.810   0.684  0.00  0.00    +0.000 HD
ATOM     11  H   UNL     1      -0.314   2.450   0.133  0.00  0.00    +0.000 HD
ATOM     12  H   UNL     1       2.095   2.684  -0.415  0.00  0.00    +0.000 HD
ATOM     13  H   UNL     1       4.444  -1.286  -1.217  0.00  0.00    +0.000 HD
ATOM     14  H   UNL     1       4.810  -1.018   0.506  0.00  0.00    +0.000 HD
ENDROOT
BRANCH   3  15
ATOM     15  C   UNL     1      -1.659   0.179   0.774  0.00  0.00    +0.000 C 
ATOM     16  H   UNL     1      -1.805  -0.628   1.504  0.00  0.00    +0.000 HD
ATOM     17  H   UNL     1      -2.007   1.089   1.281  0.00  0.00    +0.000 HD
BRANCH  15  18
ATOM     18  C   UNL     1      -2.515  -0.084  -0.470  0.00  0.00    +0.000 C 
ATOM     19  H   UNL     1      -2.198  -1.015  -0.956  0.00  0.00    +0.000 HD
ATOM     20  H   UNL     1      -2.390   0.734  -1.190  0.00  0.00    +0.000 HD
BRANCH  18  22
ATOM     21  O   UNL     1      -4.445  -0.132   0.985  0.00  0.00    +0.000 OA
ATOM     22  C   UNL     1      -3.996  -0.204  -0.158  0.00  0.00    +0.000 C 
BRANCH  22  23
ATOM     23  C   UNL     1      -4.907  -0.423  -1.338  0.00  0.00    +0.000 C 
ATOM     24  H   UNL     1      -5.943  -0.498  -0.996  0.00  0.00    +0.000 HD
ATOM     25  H   UNL     1      -4.823   0.420  -2.027  0.00  0.00    +0.000 HD
ATOM     26  H   UNL     1      -4.634  -1.353  -1.844  0.00  0.00    +0.000 HD
ENDBRANCH  22  23
ENDBRANCH  18  22
ENDBRANCH  15  18
ENDBRANCH   3  15
TORSDOF 4
