REMARK  Name = 7997
REMARK  5 active torsions:
REMARK  status: ('A' for Active; 'I' for Inactive)
REMARK    1  A    between atoms: O_1  and  C_4
REMARK    2  A    between atoms: O_1  and  C_6
REMARK    3  A    between atoms: C_3  and  C_4
REMARK    4  A    between atoms: C_3  and  C_5
REMARK    5  A    between atoms: C_6  and  C_7
REMARK                            x       y       z     vdW  Elec       q    Type
REMARK                         _______ _______ _______ _____ _____    ______ ____
ROOT
ATOM      1  C   UNL     1      -0.820   0.302   0.004  0.00  0.00    +0.000 C 
ATOM      2  H   UNL     1      -0.810   0.939  -0.889  0.00  0.00    +0.000 HD
ATOM      3  H   UNL     1      -0.808   0.937   0.897  0.00  0.00    +0.000 HD
ENDROOT
BRANCH   1   4
ATOM      4  C   UNL     1      -2.063  -0.574   0.005  0.00  0.00    +0.000 C 
ATOM      5  H   UNL     1      -2.045  -1.241  -0.866  0.00  0.00    +0.000 HD
ATOM      6  H   UNL     1      -2.052  -1.228   0.885  0.00  0.00    +0.000 HD
BRANCH   4   7
ATOM      7  C   UNL     1      -3.337   0.252  -0.007  0.00  0.00    +0.000 C 
ATOM      8  H   UNL     1      -3.386   0.884  -0.899  0.00  0.00    +0.000 HD
ATOM      9  H   UNL     1      -4.214  -0.402  -0.005  0.00  0.00    +0.000 HD
ATOM     10  H   UNL     1      -3.393   0.898   0.875  0.00  0.00    +0.000 HD
ENDBRANCH   4   7
ENDBRANCH   1   4
BRANCH   1  11
ATOM     11  O   UNL     1       0.330  -0.533   0.001  0.00  0.00    +0.000 OA
BRANCH  11  13
ATOM     12  O   UNL     1       1.702   1.326   0.001  0.00  0.00    +0.000 OA
ATOM     13  C   UNL     1       1.536   0.114  -0.001  0.00  0.00    +0.000 C 
BRANCH  13  14
ATOM     14  C   UNL     1       2.651  -0.887  -0.003  0.00  0.00    +0.000 C 
ATOM     15  H   UNL     1       2.592  -1.506  -0.902  0.00  0.00    +0.000 HD
ATOM     16  H   UNL     1       2.596  -1.506   0.895  0.00  0.00    +0.000 HD
ATOM     17  H   UNL     1       3.611  -0.361  -0.005  0.00  0.00    +0.000 HD
ENDBRANCH  13  14
ENDBRANCH  11  13
ENDBRANCH   1  11
TORSDOF 5
