REMARK  Name = 7047
REMARK  0 active torsions:
REMARK  status: ('A' for Active; 'I' for Inactive)
REMARK                            x       y       z     vdW  Elec       q    Type
REMARK                         _______ _______ _______ _____ _____    ______ ____
ROOT
ATOM      1  N   UNL     1       1.189   1.391   0.000  0.00  0.00    +0.000 NA
ATOM      2  C   UNL     1       0.006  -0.708   0.000  0.00  0.00    +0.000 A 
ATOM      3  C   UNL     1       0.032   0.703   0.000  0.00  0.00    +0.000 A 
ATOM      4  C   UNL     1      -1.220  -1.394   0.000  0.00  0.00    +0.000 A 
ATOM      5  C   UNL     1       1.229  -1.391   0.000  0.00  0.00    +0.000 A 
ATOM      6  C   UNL     1      -1.183   1.381   0.000  0.00  0.00    +0.000 A 
ATOM      7  C   UNL     1      -2.422  -0.691   0.000  0.00  0.00    +0.000 A 
ATOM      8  C   UNL     1      -2.403   0.698   0.000  0.00  0.00    +0.000 A 
ATOM      9  C   UNL     1       2.423  -0.684  -0.000  0.00  0.00    +0.000 A 
ATOM     10  C   UNL     1       2.349   0.694   0.000  0.00  0.00    +0.000 A 
ATOM     11  H   UNL     1      -1.246  -2.482   0.000  0.00  0.00    +0.000 HD
ATOM     12  H   UNL     1       1.259  -2.478  -0.000  0.00  0.00    +0.000 HD
ATOM     13  H   UNL     1      -1.196   2.469  -0.000  0.00  0.00    +0.000 HD
ATOM     14  H   UNL     1      -3.367  -1.225   0.000  0.00  0.00    +0.000 HD
ATOM     15  H   UNL     1      -3.335   1.255  -0.000  0.00  0.00    +0.000 HD
ATOM     16  H   UNL     1       3.378  -1.196  -0.000  0.00  0.00    +0.000 HD
ATOM     17  H   UNL     1       3.249   1.300   0.000  0.00  0.00    +0.000 HD
ENDROOT
TORSDOF 0
