REMARK  Name = 9256
REMARK  0 active torsions:
REMARK  status: ('A' for Active; 'I' for Inactive)
REMARK                            x       y       z     vdW  Elec       q    Type
REMARK                         _______ _______ _______ _____ _____    ______ ____
ROOT
ATOM      1  S   UNL     1      -1.392   0.488   0.000  0.00  0.00    +0.000 S 
ATOM      2  N   UNL     1       1.189   0.345   0.000  0.00  0.00    +0.000 NA
ATOM      3  C   UNL     1      -0.674  -1.070  -0.000  0.00  0.00    +0.000 A 
ATOM      4  C   UNL     1       0.699  -0.947   0.000  0.00  0.00    +0.000 A 
ATOM      5  C   UNL     1       0.177   1.183  -0.000  0.00  0.00    +0.000 A 
ATOM      6  H   UNL     1      -1.271  -1.971  -0.001  0.00  0.00    +0.000 HD
ATOM      7  H   UNL     1       1.395  -1.775   0.001  0.00  0.00    +0.000 HD
ATOM      8  H   UNL     1       0.319   2.256  -0.000  0.00  0.00    +0.000 HD
ENDROOT
TORSDOF 0
