REMARK  Name = 637563
REMARK  4 active torsions:
REMARK  status: ('A' for Active; 'I' for Inactive)
REMARK    1  A    between atoms: O_1  and  C_5
REMARK    2  A    between atoms: O_1  and  C_11
REMARK    3  A    between atoms: C_2  and  C_8
REMARK    4  A    between atoms: C_9  and  C_10
REMARK                            x       y       z     vdW  Elec       q    Type
REMARK                         _______ _______ _______ _____ _____    ______ ____
ROOT
ATOM      1  C   UNL     1      -0.864  -0.245  -0.098  0.00  0.00    +0.000 A 
ATOM      2  C   UNL     1      -0.419   1.077  -0.102  0.00  0.00    +0.000 A 
ATOM      3  C   UNL     1       0.058  -1.291  -0.043  0.00  0.00    +0.000 A 
ATOM      4  C   UNL     1       1.869   0.308   0.004  0.00  0.00    +0.000 A 
ATOM      5  C   UNL     1       0.947   1.354  -0.051  0.00  0.00    +0.000 A 
ATOM      6  C   UNL     1       1.424  -1.014   0.008  0.00  0.00    +0.000 A 
ATOM      7  H   UNL     1      -1.098   1.922  -0.164  0.00  0.00    +0.000 HD
ATOM      8  H   UNL     1      -0.271  -2.327  -0.038  0.00  0.00    +0.000 HD
ATOM      9  H   UNL     1       1.288   2.385  -0.059  0.00  0.00    +0.000 HD
ATOM     10  H   UNL     1       2.085  -1.873   0.049  0.00  0.00    +0.000 HD
ENDROOT
BRANCH   1  11
ATOM     11  C   UNL     1      -2.288  -0.534  -0.152  0.00  0.00    +0.000 C 
ATOM     12  C   UNL     1      -3.283   0.324   0.168  0.00  0.00    +0.000 C 
ATOM     13  H   UNL     1      -2.556  -1.539  -0.470  0.00  0.00    +0.000 HD
ATOM     14  H   UNL     1      -3.069   1.330   0.516  0.00  0.00    +0.000 HD
BRANCH  12  15
ATOM     15  C   UNL     1      -4.736  -0.020   0.106  0.00  0.00    +0.000 C 
ATOM     16  H   UNL     1      -5.187   0.087   1.097  0.00  0.00    +0.000 HD
ATOM     17  H   UNL     1      -5.250   0.659  -0.582  0.00  0.00    +0.000 HD
ATOM     18  H   UNL     1      -4.904  -1.045  -0.237  0.00  0.00    +0.000 HD
ENDBRANCH  12  15
ENDBRANCH   1  11
BRANCH   4  19
ATOM     19  O   UNL     1       3.202   0.578   0.053  0.00  0.00    +0.000 OA
BRANCH  19  20
ATOM     20  C   UNL     1       4.089  -0.538   0.108  0.00  0.00    +0.000 C 
ATOM     21  H   UNL     1       4.017  -1.154  -0.795  0.00  0.00    +0.000 HD
ATOM     22  H   UNL     1       3.944  -1.123   1.022  0.00  0.00    +0.000 HD
ATOM     23  H   UNL     1       5.108  -0.139   0.142  0.00  0.00    +0.000 HD
ENDBRANCH  19  20
ENDBRANCH   4  19
TORSDOF 4
