REMARK  Name = 444539
REMARK  3 active torsions:
REMARK  status: ('A' for Active; 'I' for Inactive)
REMARK    1  A    between atoms: O_1  and  C_11
REMARK    2  A    between atoms: C_3  and  C_6
REMARK    3  A    between atoms: C_10  and  C_11
REMARK                            x       y       z     vdW  Elec       q    Type
REMARK                         _______ _______ _______ _____ _____    ______ ____
ROOT
ATOM      1  C   UNL     1      -0.738  -0.243   0.066  0.00  0.00    +0.000 A 
ATOM      2  C   UNL     1      -1.191   1.071   0.188  0.00  0.00    +0.000 A 
ATOM      3  C   UNL     1      -1.650  -1.281  -0.119  0.00  0.00    +0.000 A 
ATOM      4  C   UNL     1      -2.557   1.345   0.126  0.00  0.00    +0.000 A 
ATOM      5  C   UNL     1      -3.016  -1.006  -0.181  0.00  0.00    +0.000 A 
ATOM      6  C   UNL     1      -3.470   0.307  -0.059  0.00  0.00    +0.000 A 
ATOM      7  H   UNL     1      -0.526   1.912   0.359  0.00  0.00    +0.000 HD
ATOM      8  H   UNL     1      -1.315  -2.311  -0.217  0.00  0.00    +0.000 HD
ATOM      9  H   UNL     1      -2.912   2.367   0.227  0.00  0.00    +0.000 HD
ATOM     10  H   UNL     1      -3.727  -1.815  -0.325  0.00  0.00    +0.000 HD
ATOM     11  H   UNL     1      -4.534   0.521  -0.106  0.00  0.00    +0.000 HD
ENDROOT
BRANCH   1  12
ATOM     12  C   UNL     1       0.687  -0.530   0.128  0.00  0.00    +0.000 C 
ATOM     13  C   UNL     1       1.619   0.393  -0.087  0.00  0.00    +0.000 C 
ATOM     14  H   UNL     1       0.959  -1.559   0.352  0.00  0.00    +0.000 HD
ATOM     15  H   UNL     1       1.415   1.425  -0.343  0.00  0.00    +0.000 HD
BRANCH  13  17
ATOM     16  O   UNL     1       3.467  -1.121   0.237  0.00  0.00    +0.000 OA
ATOM     17  C   UNL     1       3.040  -0.008  -0.016  0.00  0.00    +0.000 C 
BRANCH  17  18
ATOM     18  O   UNL     1       3.809   1.074  -0.282  0.00  0.00    +0.000 OA
ATOM     19  H   UNL     1       4.766   0.861  -0.248  0.00  0.00    +0.000 HD
ENDBRANCH  17  18
ENDBRANCH  13  17
ENDBRANCH   1  12
TORSDOF 3
