REMARK  Name = 5363388
REMARK  7 active torsions:
REMARK  status: ('A' for Active; 'I' for Inactive)
REMARK    1  A    between atoms: O_1  and  C_4
REMARK    2  A    between atoms: O_1  and  C_9
REMARK    3  A    between atoms: C_3  and  C_4
REMARK    4  A    between atoms: C_3  and  C_5
REMARK    5  A    between atoms: C_6  and  C_7
REMARK    6  A    between atoms: C_6  and  C_8
REMARK    7  A    between atoms: C_9  and  C_10
REMARK                            x       y       z     vdW  Elec       q    Type
REMARK                         _______ _______ _______ _____ _____    ______ ____
ROOT
ATOM      1  C   UNL     1      -0.739  -1.304   0.363  0.00  0.00    +0.000 C 
ATOM      2  H   UNL     1      -1.045  -2.347   0.514  0.00  0.00    +0.000 HD
ATOM      3  H   UNL     1      -1.084  -0.757   1.244  0.00  0.00    +0.000 HD
ENDROOT
BRANCH   1   4
ATOM      4  C   UNL     1      -1.362  -0.819  -0.915  0.00  0.00    +0.000 C 
ATOM      5  C   UNL     1      -2.198   0.228  -0.988  0.00  0.00    +0.000 C 
ATOM      6  H   UNL     1      -1.126  -1.363  -1.826  0.00  0.00    +0.000 HD
ATOM      7  H   UNL     1      -2.618   0.496  -1.954  0.00  0.00    +0.000 HD
BRANCH   5   8
ATOM      8  C   UNL     1      -2.615   1.046   0.198  0.00  0.00    +0.000 C 
ATOM      9  H   UNL     1      -1.816   1.158   0.936  0.00  0.00    +0.000 HD
ATOM     10  H   UNL     1      -2.824   2.064  -0.153  0.00  0.00    +0.000 HD
BRANCH   8  11
ATOM     11  C   UNL     1      -3.872   0.482   0.844  0.00  0.00    +0.000 C 
ATOM     12  H   UNL     1      -4.188   1.124   1.673  0.00  0.00    +0.000 HD
ATOM     13  H   UNL     1      -3.700  -0.523   1.243  0.00  0.00    +0.000 HD
ATOM     14  H   UNL     1      -4.698   0.429   0.127  0.00  0.00    +0.000 HD
ENDBRANCH   8  11
ENDBRANCH   5   8
ENDBRANCH   1   4
BRANCH   1  15
ATOM     15  C   UNL     1       0.782  -1.243   0.308  0.00  0.00    +0.000 C 
ATOM     16  H   UNL     1       1.195  -1.629   1.247  0.00  0.00    +0.000 HD
ATOM     17  H   UNL     1       1.157  -1.858  -0.520  0.00  0.00    +0.000 HD
BRANCH  15  18
ATOM     18  O   UNL     1       1.200   0.104   0.126  0.00  0.00    +0.000 OA
BRANCH  18  20
ATOM     19  O   UNL     1       3.412  -0.561   0.139  0.00  0.00    +0.000 OA
ATOM     20  C   UNL     1       2.551   0.305   0.058  0.00  0.00    +0.000 C 
BRANCH  20  21
ATOM     21  C   UNL     1       2.841   1.762  -0.134  0.00  0.00    +0.000 C 
ATOM     22  H   UNL     1       2.451   2.332   0.714  0.00  0.00    +0.000 HD
ATOM     23  H   UNL     1       2.394   2.109  -1.069  0.00  0.00    +0.000 HD
ATOM     24  H   UNL     1       3.923   1.913  -0.187  0.00  0.00    +0.000 HD
ENDBRANCH  20  21
ENDBRANCH  18  20
ENDBRANCH  15  18
ENDBRANCH   1  15
TORSDOF 7
