REMARK  Name = 17100
REMARK  5 active torsions:
REMARK  status: ('A' for Active; 'I' for Inactive)
REMARK    1  A    between atoms: O_1  and  C_3
REMARK    2  A    between atoms: C_2  and  C_3
REMARK    3  A    between atoms: C_3  and  C_9
REMARK    4  A    between atoms: C_3  and  C_10
REMARK    5  A    between atoms: C_7  and  C_11
REMARK                            x       y       z     vdW  Elec       q    Type
REMARK                         _______ _______ _______ _____ _____    ______ ____
ROOT
ATOM      1  C   UNL     1      -0.498  -0.018   0.368  0.00  0.00    +0.000 C 
ATOM      2  C   UNL     1       0.187  -1.239  -0.256  0.00  0.00    +0.000 C 
ATOM      3  C   UNL     1       0.185   1.274  -0.106  0.00  0.00    +0.000 C 
ATOM      4  C   UNL     1       1.672  -1.292   0.119  0.00  0.00    +0.000 C 
ATOM      5  C   UNL     1       2.367   0.044   0.035  0.00  0.00    +0.000 C 
ATOM      6  C   UNL     1       1.683   1.195  -0.081  0.00  0.00    +0.000 C 
ATOM      7  H   UNL     1      -0.377  -0.090   1.459  0.00  0.00    +0.000 HD
ATOM      8  H   UNL     1       0.095  -1.211  -1.349  0.00  0.00    +0.000 HD
ATOM      9  H   UNL     1      -0.259  -2.180   0.080  0.00  0.00    +0.000 HD
ATOM     10  H   UNL     1      -0.110   2.104   0.547  0.00  0.00    +0.000 HD
ATOM     11  H   UNL     1      -0.114   1.544  -1.126  0.00  0.00    +0.000 HD
ATOM     12  H   UNL     1       2.169  -2.013  -0.541  0.00  0.00    +0.000 HD
ATOM     13  H   UNL     1       1.774  -1.671   1.144  0.00  0.00    +0.000 HD
ATOM     14  H   UNL     1       2.220   2.137  -0.160  0.00  0.00    +0.000 HD
ENDROOT
BRANCH   5  15
ATOM     15  C   UNL     1       3.866   0.013   0.091  0.00  0.00    +0.000 C 
ATOM     16  H   UNL     1       4.201  -0.450   1.025  0.00  0.00    +0.000 HD
ATOM     17  H   UNL     1       4.302   1.017   0.041  0.00  0.00    +0.000 HD
ATOM     18  H   UNL     1       4.266  -0.566  -0.748  0.00  0.00    +0.000 HD
ENDBRANCH   5  15
BRANCH   1  19
ATOM     19  C   UNL     1      -1.989   0.005   0.039  0.00  0.00    +0.000 C 
BRANCH  19  20
ATOM     20  C   UNL     1      -2.681   1.184   0.723  0.00  0.00    +0.000 C 
ATOM     21  H   UNL     1      -2.511   1.182   1.805  0.00  0.00    +0.000 HD
ATOM     22  H   UNL     1      -3.763   1.149   0.551  0.00  0.00    +0.000 HD
ATOM     23  H   UNL     1      -2.355   2.145   0.312  0.00  0.00    +0.000 HD
ENDBRANCH  19  20
BRANCH  19  24
ATOM     24  C   UNL     1      -2.650  -1.312   0.443  0.00  0.00    +0.000 C 
ATOM     25  H   UNL     1      -2.374  -2.139  -0.220  0.00  0.00    +0.000 HD
ATOM     26  H   UNL     1      -2.422  -1.583   1.479  0.00  0.00    +0.000 HD
ATOM     27  H   UNL     1      -3.741  -1.235   0.354  0.00  0.00    +0.000 HD
ENDBRANCH  19  24
BRANCH  19  28
ATOM     28  O   UNL     1      -2.142   0.146  -1.374  0.00  0.00    +0.000 OA
ATOM     29  H   UNL     1      -3.094   0.165  -1.573  0.00  0.00    +0.000 HD
ENDBRANCH  19  28
ENDBRANCH   1  19
TORSDOF 5
