MODEL 1
REMARK VINA RESULT:    -5.082      0.000      0.000
REMARK INTER + INTRA:          -7.488
REMARK INTER:                  -7.274
REMARK INTRA:                  -0.213
REMARK UNBOUND:                -0.475
REMARK  Name = 75427
REMARK  8 active torsions:
REMARK  status: ('A' for Active; 'I' for Inactive)
REMARK    1  A    between atoms: C_2  and  C_3
REMARK    2  A    between atoms: C_2  and  C_5
REMARK    3  A    between atoms: C_2  and  C_6
REMARK    4  A    between atoms: C_3  and  C_4
REMARK    5  A    between atoms: C_4  and  C_7
REMARK    6  A    between atoms: C_5  and  C_9
REMARK    7  A    between atoms: C_8  and  C_10
REMARK    8  A    between atoms: C_8  and  C_11
REMARK                            x       y       z     vdW  Elec       q    Type
REMARK                         _______ _______ _______ _____ _____    ______ ____
ROOT
ATOM      1  C   UNL     1       6.701   1.938  -1.159  0.00  0.00    +0.000 C 
ATOM      2  H   UNL     1       5.694   2.011  -0.728  0.00  0.00    +0.000 HD
ATOM      3  H   UNL     1       6.836   2.834  -1.782  0.00  0.00    +0.000 HD
ENDROOT
BRANCH   1   4
ATOM      4  C   UNL     1       6.779   0.686  -2.039  0.00  0.00    +0.000 C 
ATOM      5  H   UNL     1       7.811   0.391  -2.245  0.00  0.00    +0.000 HD
ATOM      6  H   UNL     1       6.331  -0.163  -1.508  0.00  0.00    +0.000 HD
BRANCH   4   7
ATOM      7  C   UNL     1       6.033   0.884  -3.329  0.00  0.00    +0.000 C 
ATOM      8  C   UNL     1       5.976   0.047  -4.382  0.00  0.00    +0.000 C 
ATOM      9  H   UNL     1       5.489   1.825  -3.401  0.00  0.00    +0.000 HD
BRANCH   8  10
ATOM     10  C   UNL     1       5.208   0.304  -5.648  0.00  0.00    +0.000 C 
ATOM     11  H   UNL     1       4.143   0.462  -5.448  0.00  0.00    +0.000 HD
ATOM     12  H   UNL     1       5.590   1.197  -6.153  0.00  0.00    +0.000 HD
ATOM     13  H   UNL     1       5.298  -0.550  -6.328  0.00  0.00    +0.000 HD
ENDBRANCH   8  10
BRANCH   8  14
ATOM     14  C   UNL     1       6.724  -1.259  -4.362  0.00  0.00    +0.000 C 
ATOM     15  H   UNL     1       7.713  -1.127  -4.816  0.00  0.00    +0.000 HD
ATOM     16  H   UNL     1       6.181  -2.010  -4.944  0.00  0.00    +0.000 HD
ATOM     17  H   UNL     1       6.899  -1.668  -3.365  0.00  0.00    +0.000 HD
ENDBRANCH   8  14
ENDBRANCH   4   7
ENDBRANCH   1   4
BRANCH   1  18
ATOM     18  C   UNL     1       7.738   1.956  -0.017  0.00  0.00    +0.000 C 
ATOM     19  H   UNL     1       7.228   1.743   0.931  0.00  0.00    +0.000 HD
BRANCH  18  20
ATOM     20  C   UNL     1       8.820   0.888  -0.220  0.00  0.00    +0.000 C 
ATOM     21  H   UNL     1       8.556  -0.050   0.276  0.00  0.00    +0.000 HD
ATOM     22  H   UNL     1       8.953   0.647  -1.278  0.00  0.00    +0.000 HD
ATOM     23  H   UNL     1       9.784   1.221   0.181  0.00  0.00    +0.000 HD
ENDBRANCH  18  20
BRANCH  18  24
ATOM     24  C   UNL     1       8.372   3.355   0.074  0.00  0.00    +0.000 C 
ATOM     25  H   UNL     1       8.550   3.755  -0.931  0.00  0.00    +0.000 HD
ATOM     26  H   UNL     1       9.344   3.302   0.581  0.00  0.00    +0.000 HD
BRANCH  24  28
ATOM     27  O   UNL     1       7.952   5.374   1.366  0.00  0.00    +0.000 OA
ATOM     28  C   UNL     1       7.523   4.371   0.807  0.00  0.00    +0.000 C 
ATOM     29  H   UNL     1       6.440   4.155   0.809  0.00  0.00    +0.000 HD
ENDBRANCH  24  28
ENDBRANCH  18  24
ENDBRANCH   1  18
TORSDOF 8
ENDMDL
MODEL 2
REMARK VINA RESULT:    -5.009      2.618      5.727
REMARK INTER + INTRA:          -7.387
REMARK INTER:                  -7.072
REMARK INTRA:                  -0.315
REMARK UNBOUND:                -0.475
REMARK  Name = 75427
REMARK  8 active torsions:
REMARK  status: ('A' for Active; 'I' for Inactive)
REMARK    1  A    between atoms: C_2  and  C_3
REMARK    2  A    between atoms: C_2  and  C_5
REMARK    3  A    between atoms: C_2  and  C_6
REMARK    4  A    between atoms: C_3  and  C_4
REMARK    5  A    between atoms: C_4  and  C_7
REMARK    6  A    between atoms: C_5  and  C_9
REMARK    7  A    between atoms: C_8  and  C_10
REMARK    8  A    between atoms: C_8  and  C_11
REMARK                            x       y       z     vdW  Elec       q    Type
REMARK                         _______ _______ _______ _____ _____    ______ ____
ROOT
ATOM      1  C   UNL     1       5.965   1.338  -2.953  0.00  0.00    +0.000 C 
ATOM      2  H   UNL     1       6.733   1.831  -3.563  0.00  0.00    +0.000 HD
ATOM      3  H   UNL     1       5.136   2.054  -2.861  0.00  0.00    +0.000 HD
ENDROOT
BRANCH   1   4
ATOM      4  C   UNL     1       6.542   1.043  -1.565  0.00  0.00    +0.000 C 
ATOM      5  H   UNL     1       5.915   0.351  -0.997  0.00  0.00    +0.000 HD
ATOM      6  H   UNL     1       7.512   0.541  -1.671  0.00  0.00    +0.000 HD
BRANCH   4   7
ATOM      7  C   UNL     1       6.749   2.311  -0.784  0.00  0.00    +0.000 C 
ATOM      8  C   UNL     1       7.831   2.669  -0.068  0.00  0.00    +0.000 C 
ATOM      9  H   UNL     1       5.907   3.003  -0.807  0.00  0.00    +0.000 HD
BRANCH   8  10
ATOM     10  C   UNL     1       7.976   3.956   0.693  0.00  0.00    +0.000 C 
ATOM     11  H   UNL     1       9.006   4.109   1.034  0.00  0.00    +0.000 HD
ATOM     12  H   UNL     1       7.701   4.807   0.062  0.00  0.00    +0.000 HD
ATOM     13  H   UNL     1       7.329   3.951   1.577  0.00  0.00    +0.000 HD
ENDBRANCH   8  10
BRANCH   8  14
ATOM     14  C   UNL     1       9.020   1.750   0.029  0.00  0.00    +0.000 C 
ATOM     15  H   UNL     1       8.832   0.980   0.786  0.00  0.00    +0.000 HD
ATOM     16  H   UNL     1       9.905   2.317   0.335  0.00  0.00    +0.000 HD
ATOM     17  H   UNL     1       9.262   1.219  -0.893  0.00  0.00    +0.000 HD
ENDBRANCH   8  14
ENDBRANCH   4   7
ENDBRANCH   1   4
BRANCH   1  18
ATOM     18  C   UNL     1       5.466   0.080  -3.695  0.00  0.00    +0.000 C 
ATOM     19  H   UNL     1       4.538  -0.267  -3.223  0.00  0.00    +0.000 HD
BRANCH  18  20
ATOM     20  C   UNL     1       5.162   0.377  -5.169  0.00  0.00    +0.000 C 
ATOM     21  H   UNL     1       4.170   0.016  -5.455  0.00  0.00    +0.000 HD
ATOM     22  H   UNL     1       5.166   1.452  -5.371  0.00  0.00    +0.000 HD
ATOM     23  H   UNL     1       5.897  -0.099  -5.827  0.00  0.00    +0.000 HD
ENDBRANCH  18  20
BRANCH  18  24
ATOM     24  C   UNL     1       6.521  -1.033  -3.576  0.00  0.00    +0.000 C 
ATOM     25  H   UNL     1       6.052  -2.014  -3.719  0.00  0.00    +0.000 HD
ATOM     26  H   UNL     1       6.969  -1.030  -2.575  0.00  0.00    +0.000 HD
BRANCH  24  28
ATOM     27  O   UNL     1       8.815  -0.698  -4.315  0.00  0.00    +0.000 OA
ATOM     28  C   UNL     1       7.642  -0.932  -4.586  0.00  0.00    +0.000 C 
ATOM     29  H   UNL     1       7.337  -1.092  -5.635  0.00  0.00    +0.000 HD
ENDBRANCH  24  28
ENDBRANCH  18  24
ENDBRANCH   1  18
TORSDOF 8
ENDMDL
MODEL 3
REMARK VINA RESULT:    -4.934      3.189      5.679
REMARK INTER + INTRA:          -7.284
REMARK INTER:                  -6.884
REMARK INTRA:                  -0.400
REMARK UNBOUND:                -0.475
REMARK  Name = 75427
REMARK  8 active torsions:
REMARK  status: ('A' for Active; 'I' for Inactive)
REMARK    1  A    between atoms: C_2  and  C_3
REMARK    2  A    between atoms: C_2  and  C_5
REMARK    3  A    between atoms: C_2  and  C_6
REMARK    4  A    between atoms: C_3  and  C_4
REMARK    5  A    between atoms: C_4  and  C_7
REMARK    6  A    between atoms: C_5  and  C_9
REMARK    7  A    between atoms: C_8  and  C_10
REMARK    8  A    between atoms: C_8  and  C_11
REMARK                            x       y       z     vdW  Elec       q    Type
REMARK                         _______ _______ _______ _____ _____    ______ ____
ROOT
ATOM      1  C   UNL     1       5.990   0.193  -3.711  0.00  0.00    +0.000 C 
ATOM      2  H   UNL     1       6.238   0.602  -4.699  0.00  0.00    +0.000 HD
ATOM      3  H   UNL     1       4.999  -0.271  -3.808  0.00  0.00    +0.000 HD
ENDROOT
BRANCH   1   4
ATOM      4  C   UNL     1       5.922   1.340  -2.697  0.00  0.00    +0.000 C 
ATOM      5  H   UNL     1       5.865   2.317  -3.184  0.00  0.00    +0.000 HD
ATOM      6  H   UNL     1       5.000   1.253  -2.108  0.00  0.00    +0.000 HD
BRANCH   4   7
ATOM      7  C   UNL     1       7.092   1.301  -1.755  0.00  0.00    +0.000 C 
ATOM      8  C   UNL     1       7.315   2.089  -0.686  0.00  0.00    +0.000 C 
ATOM      9  H   UNL     1       7.840   0.544  -1.989  0.00  0.00    +0.000 HD
BRANCH   8  10
ATOM     10  C   UNL     1       8.510   1.998   0.219  0.00  0.00    +0.000 C 
ATOM     11  H   UNL     1       8.378   2.605   1.122  0.00  0.00    +0.000 HD
ATOM     12  H   UNL     1       8.676   0.963   0.532  0.00  0.00    +0.000 HD
ATOM     13  H   UNL     1       9.407   2.357  -0.297  0.00  0.00    +0.000 HD
ENDBRANCH   8  10
BRANCH   8  14
ATOM     14  C   UNL     1       6.336   3.173  -0.320  0.00  0.00    +0.000 C 
ATOM     15  H   UNL     1       5.798   2.893   0.593  0.00  0.00    +0.000 HD
ATOM     16  H   UNL     1       5.602   3.299  -1.122  0.00  0.00    +0.000 HD
ATOM     17  H   UNL     1       6.788   4.146  -0.121  0.00  0.00    +0.000 HD
ENDBRANCH   8  14
ENDBRANCH   4   7
ENDBRANCH   1   4
BRANCH   1  18
ATOM     18  C   UNL     1       7.023  -0.894  -3.345  0.00  0.00    +0.000 C 
ATOM     19  H   UNL     1       7.592  -0.563  -2.467  0.00  0.00    +0.000 HD
BRANCH  18  20
ATOM     20  C   UNL     1       6.344  -2.223  -2.993  0.00  0.00    +0.000 C 
ATOM     21  H   UNL     1       6.672  -2.596  -2.018  0.00  0.00    +0.000 HD
ATOM     22  H   UNL     1       5.258  -2.113  -2.927  0.00  0.00    +0.000 HD
ATOM     23  H   UNL     1       6.568  -2.991  -3.740  0.00  0.00    +0.000 HD
ENDBRANCH  18  20
BRANCH  18  24
ATOM     24  C   UNL     1       8.001  -1.083  -4.517  0.00  0.00    +0.000 C 
ATOM     25  H   UNL     1       7.900  -0.256  -5.230  0.00  0.00    +0.000 HD
ATOM     26  H   UNL     1       7.776  -2.009  -5.058  0.00  0.00    +0.000 HD
BRANCH  24  28
ATOM     27  O   UNL     1      10.236  -2.037  -4.377  0.00  0.00    +0.000 OA
ATOM     28  C   UNL     1       9.457  -1.130  -4.105  0.00  0.00    +0.000 C 
ATOM     29  H   UNL     1       9.802  -0.259  -3.521  0.00  0.00    +0.000 HD
ENDBRANCH  24  28
ENDBRANCH  18  24
ENDBRANCH   1  18
TORSDOF 8
ENDMDL
MODEL 4
REMARK VINA RESULT:    -4.759      3.295      5.654
REMARK INTER + INTRA:          -7.042
REMARK INTER:                  -6.362
REMARK INTRA:                  -0.681
REMARK UNBOUND:                -0.475
REMARK  Name = 75427
REMARK  8 active torsions:
REMARK  status: ('A' for Active; 'I' for Inactive)
REMARK    1  A    between atoms: C_2  and  C_3
REMARK    2  A    between atoms: C_2  and  C_5
REMARK    3  A    between atoms: C_2  and  C_6
REMARK    4  A    between atoms: C_3  and  C_4
REMARK    5  A    between atoms: C_4  and  C_7
REMARK    6  A    between atoms: C_5  and  C_9
REMARK    7  A    between atoms: C_8  and  C_10
REMARK    8  A    between atoms: C_8  and  C_11
REMARK                            x       y       z     vdW  Elec       q    Type
REMARK                         _______ _______ _______ _____ _____    ______ ____
ROOT
ATOM      1  C   UNL     1       7.926  -1.077  -3.600  0.00  0.00    +0.000 C 
ATOM      2  H   UNL     1       8.399  -1.538  -4.477  0.00  0.00    +0.000 HD
ATOM      3  H   UNL     1       8.084   0.006  -3.697  0.00  0.00    +0.000 HD
ENDROOT
BRANCH   1   4
ATOM      4  C   UNL     1       8.622  -1.584  -2.333  0.00  0.00    +0.000 C 
ATOM      5  H   UNL     1       7.952  -2.177  -1.705  0.00  0.00    +0.000 HD
ATOM      6  H   UNL     1       9.440  -2.261  -2.610  0.00  0.00    +0.000 HD
BRANCH   4   7
ATOM      7  C   UNL     1       9.198  -0.446  -1.539  0.00  0.00    +0.000 C 
ATOM      8  C   UNL     1       8.653   0.175  -0.476  0.00  0.00    +0.000 C 
ATOM      9  H   UNL     1      10.168  -0.092  -1.888  0.00  0.00    +0.000 HD
BRANCH   8  10
ATOM     10  C   UNL     1       9.283   1.312   0.277  0.00  0.00    +0.000 C 
ATOM     11  H   UNL     1      10.123   0.971   0.893  0.00  0.00    +0.000 HD
ATOM     12  H   UNL     1       9.662   2.068  -0.417  0.00  0.00    +0.000 HD
ATOM     13  H   UNL     1       8.550   1.781   0.942  0.00  0.00    +0.000 HD
ENDBRANCH   8  10
BRANCH   8  14
ATOM     14  C   UNL     1       7.304  -0.244   0.044  0.00  0.00    +0.000 C 
ATOM     15  H   UNL     1       7.235  -0.025   1.116  0.00  0.00    +0.000 HD
ATOM     16  H   UNL     1       7.170  -1.323  -0.091  0.00  0.00    +0.000 HD
ATOM     17  H   UNL     1       6.458   0.261  -0.426  0.00  0.00    +0.000 HD
ENDBRANCH   8  14
ENDBRANCH   4   7
ENDBRANCH   1   4
BRANCH   1  18
ATOM     18  C   UNL     1       6.412  -1.372  -3.635  0.00  0.00    +0.000 C 
ATOM     19  H   UNL     1       6.144  -1.743  -4.632  0.00  0.00    +0.000 HD
BRANCH  18  20
ATOM     20  C   UNL     1       6.023  -2.448  -2.613  0.00  0.00    +0.000 C 
ATOM     21  H   UNL     1       5.191  -2.121  -1.982  0.00  0.00    +0.000 HD
ATOM     22  H   UNL     1       5.691  -3.367  -3.104  0.00  0.00    +0.000 HD
ATOM     23  H   UNL     1       6.866  -2.693  -1.958  0.00  0.00    +0.000 HD
ENDBRANCH  18  20
BRANCH  18  24
ATOM     24  C   UNL     1       5.633  -0.072  -3.372  0.00  0.00    +0.000 C 
ATOM     25  H   UNL     1       6.283   0.666  -2.889  0.00  0.00    +0.000 HD
ATOM     26  H   UNL     1       4.793  -0.261  -2.692  0.00  0.00    +0.000 HD
BRANCH  24  28
ATOM     27  O   UNL     1       5.354   0.246  -5.768  0.00  0.00    +0.000 OA
ATOM     28  C   UNL     1       5.080   0.580  -4.620  0.00  0.00    +0.000 C 
ATOM     29  H   UNL     1       4.377   1.411  -4.437  0.00  0.00    +0.000 HD
ENDBRANCH  24  28
ENDBRANCH  18  24
ENDBRANCH   1  18
TORSDOF 8
ENDMDL
MODEL 5
REMARK VINA RESULT:    -4.408      2.224      2.904
REMARK INTER + INTRA:          -6.558
REMARK INTER:                  -6.057
REMARK INTRA:                  -0.500
REMARK UNBOUND:                -0.475
REMARK  Name = 75427
REMARK  8 active torsions:
REMARK  status: ('A' for Active; 'I' for Inactive)
REMARK    1  A    between atoms: C_2  and  C_3
REMARK    2  A    between atoms: C_2  and  C_5
REMARK    3  A    between atoms: C_2  and  C_6
REMARK    4  A    between atoms: C_3  and  C_4
REMARK    5  A    between atoms: C_4  and  C_7
REMARK    6  A    between atoms: C_5  and  C_9
REMARK    7  A    between atoms: C_8  and  C_10
REMARK    8  A    between atoms: C_8  and  C_11
REMARK                            x       y       z     vdW  Elec       q    Type
REMARK                         _______ _______ _______ _____ _____    ______ ____
ROOT
ATOM      1  C   UNL     1       8.566  -0.865  -1.227  0.00  0.00    +0.000 C 
ATOM      2  H   UNL     1       9.169  -1.763  -1.418  0.00  0.00    +0.000 HD
ATOM      3  H   UNL     1       7.520  -1.198  -1.187  0.00  0.00    +0.000 HD
ENDROOT
BRANCH   1   4
ATOM      4  C   UNL     1       8.748   0.116  -2.390  0.00  0.00    +0.000 C 
ATOM      5  H   UNL     1       8.566   1.150  -2.087  0.00  0.00    +0.000 HD
ATOM      6  H   UNL     1       9.791   0.089  -2.731  0.00  0.00    +0.000 HD
BRANCH   4   7
ATOM      7  C   UNL     1       7.861  -0.246  -3.547  0.00  0.00    +0.000 C 
ATOM      8  C   UNL     1       6.630   0.227  -3.820  0.00  0.00    +0.000 C 
ATOM      9  H   UNL     1       8.280  -0.986  -4.229  0.00  0.00    +0.000 HD
BRANCH   8  10
ATOM     10  C   UNL     1       5.792  -0.177  -5.000  0.00  0.00    +0.000 C 
ATOM     11  H   UNL     1       5.634   0.661  -5.688  0.00  0.00    +0.000 HD
ATOM     12  H   UNL     1       6.279  -0.982  -5.558  0.00  0.00    +0.000 HD
ATOM     13  H   UNL     1       4.808  -0.525  -4.667  0.00  0.00    +0.000 HD
ENDBRANCH   8  10
BRANCH   8  14
ATOM     14  C   UNL     1       5.979   1.232  -2.908  0.00  0.00    +0.000 C 
ATOM     15  H   UNL     1       6.428   1.173  -1.910  0.00  0.00    +0.000 HD
ATOM     16  H   UNL     1       4.911   1.013  -2.813  0.00  0.00    +0.000 HD
ATOM     17  H   UNL     1       6.082   2.271  -3.227  0.00  0.00    +0.000 HD
ENDBRANCH   8  14
ENDBRANCH   4   7
ENDBRANCH   1   4
BRANCH   1  18
ATOM     18  C   UNL     1       8.963  -0.279   0.144  0.00  0.00    +0.000 C 
ATOM     19  H   UNL     1       9.807  -0.854   0.547  0.00  0.00    +0.000 HD
BRANCH  18  20
ATOM     20  C   UNL     1       9.404   1.185   0.026  0.00  0.00    +0.000 C 
ATOM     21  H   UNL     1       9.296   1.715   0.977  0.00  0.00    +0.000 HD
ATOM     22  H   UNL     1      10.459   1.265  -0.250  0.00  0.00    +0.000 HD
ATOM     23  H   UNL     1       8.811   1.717  -0.725  0.00  0.00    +0.000 HD
ENDBRANCH  18  20
BRANCH  18  24
ATOM     24  C   UNL     1       7.777  -0.408   1.116  0.00  0.00    +0.000 C 
ATOM     25  H   UNL     1       8.003   0.106   2.058  0.00  0.00    +0.000 HD
ATOM     26  H   UNL     1       7.592  -1.462   1.357  0.00  0.00    +0.000 HD
BRANCH  24  28
ATOM     27  O   UNL     1       6.053   1.292   0.878  0.00  0.00    +0.000 OA
ATOM     28  C   UNL     1       6.485   0.181   0.594  0.00  0.00    +0.000 C 
ATOM     29  H   UNL     1       5.924  -0.472  -0.098  0.00  0.00    +0.000 HD
ENDBRANCH  24  28
ENDBRANCH  18  24
ENDBRANCH   1  18
TORSDOF 8
ENDMDL
MODEL 6
REMARK VINA RESULT:    -4.265      3.000      3.824
REMARK INTER + INTRA:          -6.360
REMARK INTER:                  -5.905
REMARK INTRA:                  -0.454
REMARK UNBOUND:                -0.475
REMARK  Name = 75427
REMARK  8 active torsions:
REMARK  status: ('A' for Active; 'I' for Inactive)
REMARK    1  A    between atoms: C_2  and  C_3
REMARK    2  A    between atoms: C_2  and  C_5
REMARK    3  A    between atoms: C_2  and  C_6
REMARK    4  A    between atoms: C_3  and  C_4
REMARK    5  A    between atoms: C_4  and  C_7
REMARK    6  A    between atoms: C_5  and  C_9
REMARK    7  A    between atoms: C_8  and  C_10
REMARK    8  A    between atoms: C_8  and  C_11
REMARK                            x       y       z     vdW  Elec       q    Type
REMARK                         _______ _______ _______ _____ _____    ______ ____
ROOT
ATOM      1  C   UNL     1       8.647  -1.234  -1.161  0.00  0.00    +0.000 C 
ATOM      2  H   UNL     1       9.406  -2.027  -1.177  0.00  0.00    +0.000 HD
ATOM      3  H   UNL     1       7.680  -1.727  -1.332  0.00  0.00    +0.000 HD
ENDROOT
BRANCH   1   4
ATOM      4  C   UNL     1       8.929  -0.249  -2.301  0.00  0.00    +0.000 C 
ATOM      5  H   UNL     1       8.848   0.791  -1.975  0.00  0.00    +0.000 HD
ATOM      6  H   UNL     1       9.964  -0.371  -2.642  0.00  0.00    +0.000 HD
BRANCH   4   7
ATOM      7  C   UNL     1       8.014  -0.496  -3.467  0.00  0.00    +0.000 C 
ATOM      8  C   UNL     1       6.828   0.089  -3.721  0.00  0.00    +0.000 C 
ATOM      9  H   UNL     1       8.369  -1.247  -4.174  0.00  0.00    +0.000 HD
BRANCH   8  10
ATOM     10  C   UNL     1       5.959  -0.203  -4.911  0.00  0.00    +0.000 C 
ATOM     11  H   UNL     1       6.437   0.108  -5.846  0.00  0.00    +0.000 HD
ATOM     12  H   UNL     1       5.753  -1.276  -4.981  0.00  0.00    +0.000 HD
ATOM     13  H   UNL     1       5.007   0.332  -4.828  0.00  0.00    +0.000 HD
ENDBRANCH   8  10
BRANCH   8  14
ATOM     14  C   UNL     1       6.265   1.115  -2.775  0.00  0.00    +0.000 C 
ATOM     15  H   UNL     1       6.185   0.688  -1.769  0.00  0.00    +0.000 HD
ATOM     16  H   UNL     1       5.262   1.411  -3.099  0.00  0.00    +0.000 HD
ATOM     17  H   UNL     1       6.867   2.021  -2.675  0.00  0.00    +0.000 HD
ENDBRANCH   8  14
ENDBRANCH   4   7
ENDBRANCH   1   4
BRANCH   1  18
ATOM     18  C   UNL     1       8.640  -0.576   0.236  0.00  0.00    +0.000 C 
ATOM     19  H   UNL     1       9.274   0.319   0.212  0.00  0.00    +0.000 HD
BRANCH  18  20
ATOM     20  C   UNL     1       7.227  -0.143   0.648  0.00  0.00    +0.000 C 
ATOM     21  H   UNL     1       6.467  -0.571  -0.012  0.00  0.00    +0.000 HD
ATOM     22  H   UNL     1       6.982  -0.483   1.657  0.00  0.00    +0.000 HD
ATOM     23  H   UNL     1       7.124   0.947   0.617  0.00  0.00    +0.000 HD
ENDBRANCH  18  20
BRANCH  18  24
ATOM     24  C   UNL     1       9.223  -1.560   1.265  0.00  0.00    +0.000 C 
ATOM     25  H   UNL     1      10.303  -1.402   1.368  0.00  0.00    +0.000 HD
ATOM     26  H   UNL     1       9.075  -2.594   0.932  0.00  0.00    +0.000 HD
BRANCH  24  28
ATOM     27  O   UNL     1       9.242  -1.080   3.651  0.00  0.00    +0.000 OA
ATOM     28  C   UNL     1       8.627  -1.429   2.650  0.00  0.00    +0.000 C 
ATOM     29  H   UNL     1       7.551  -1.671   2.716  0.00  0.00    +0.000 HD
ENDBRANCH  24  28
ENDBRANCH  18  24
ENDBRANCH   1  18
TORSDOF 8
ENDMDL
MODEL 7
REMARK VINA RESULT:    -4.098     23.939     25.496
REMARK INTER + INTRA:          -6.130
REMARK INTER:                  -5.877
REMARK INTRA:                  -0.253
REMARK UNBOUND:                -0.475
REMARK  Name = 75427
REMARK  8 active torsions:
REMARK  status: ('A' for Active; 'I' for Inactive)
REMARK    1  A    between atoms: C_2  and  C_3
REMARK    2  A    between atoms: C_2  and  C_5
REMARK    3  A    between atoms: C_2  and  C_6
REMARK    4  A    between atoms: C_3  and  C_4
REMARK    5  A    between atoms: C_4  and  C_7
REMARK    6  A    between atoms: C_5  and  C_9
REMARK    7  A    between atoms: C_8  and  C_10
REMARK    8  A    between atoms: C_8  and  C_11
REMARK                            x       y       z     vdW  Elec       q    Type
REMARK                         _______ _______ _______ _____ _____    ______ ____
ROOT
ATOM      1  C   UNL     1       0.518  -7.752  20.458  0.00  0.00    +0.000 C 
ATOM      2  H   UNL     1       1.298  -8.314  20.988  0.00  0.00    +0.000 HD
ATOM      3  H   UNL     1       0.461  -8.180  19.447  0.00  0.00    +0.000 HD
ENDROOT
BRANCH   1   4
ATOM      4  C   UNL     1       0.935  -6.280  20.368  0.00  0.00    +0.000 C 
ATOM      5  H   UNL     1       1.085  -5.957  19.335  0.00  0.00    +0.000 HD
ATOM      6  H   UNL     1       0.128  -5.647  20.759  0.00  0.00    +0.000 HD
BRANCH   4   7
ATOM      7  C   UNL     1       2.175  -6.018  21.176  0.00  0.00    +0.000 C 
ATOM      8  C   UNL     1       3.183  -5.175  20.885  0.00  0.00    +0.000 C 
ATOM      9  H   UNL     1       2.249  -6.596  22.097  0.00  0.00    +0.000 HD
BRANCH   8  10
ATOM     10  C   UNL     1       4.401  -4.958  21.738  0.00  0.00    +0.000 C 
ATOM     11  H   UNL     1       4.275  -4.100  22.408  0.00  0.00    +0.000 HD
ATOM     12  H   UNL     1       4.598  -5.840  22.356  0.00  0.00    +0.000 HD
ATOM     13  H   UNL     1       5.277  -4.765  21.110  0.00  0.00    +0.000 HD
ENDBRANCH   8  10
BRANCH   8  14
ATOM     14  C   UNL     1       3.159  -4.365  19.616  0.00  0.00    +0.000 C 
ATOM     15  H   UNL     1       2.436  -4.796  18.915  0.00  0.00    +0.000 HD
ATOM     16  H   UNL     1       4.145  -4.385  19.142  0.00  0.00    +0.000 HD
ATOM     17  H   UNL     1       2.870  -3.320  19.749  0.00  0.00    +0.000 HD
ENDBRANCH   8  14
ENDBRANCH   4   7
ENDBRANCH   1   4
BRANCH   1  18
ATOM     18  C   UNL     1      -0.831  -7.969  21.176  0.00  0.00    +0.000 C 
ATOM     19  H   UNL     1      -0.643  -8.132  22.245  0.00  0.00    +0.000 HD
BRANCH  18  20
ATOM     20  C   UNL     1      -1.746  -6.747  21.040  0.00  0.00    +0.000 C 
ATOM     21  H   UNL     1      -2.461  -6.686  21.866  0.00  0.00    +0.000 HD
ATOM     22  H   UNL     1      -1.176  -5.814  21.060  0.00  0.00    +0.000 HD
ATOM     23  H   UNL     1      -2.316  -6.781  20.105  0.00  0.00    +0.000 HD
ENDBRANCH  18  20
BRANCH  18  24
ATOM     24  C   UNL     1      -1.516  -9.222  20.604  0.00  0.00    +0.000 C 
ATOM     25  H   UNL     1      -1.825  -9.888  21.419  0.00  0.00    +0.000 HD
ATOM     26  H   UNL     1      -0.820  -9.784  19.971  0.00  0.00    +0.000 HD
BRANCH  24  28
ATOM     27  O   UNL     1      -3.616  -9.749  19.493  0.00  0.00    +0.000 OA
ATOM     28  C   UNL     1      -2.754  -8.929  19.784  0.00  0.00    +0.000 C 
ATOM     29  H   UNL     1      -2.849  -7.881  19.448  0.00  0.00    +0.000 HD
ENDBRANCH  24  28
ENDBRANCH  18  24
ENDBRANCH   1  18
TORSDOF 8
ENDMDL
MODEL 8
REMARK VINA RESULT:    -4.069     20.538     21.954
REMARK INTER + INTRA:          -6.090
REMARK INTER:                  -5.838
REMARK INTRA:                  -0.252
REMARK UNBOUND:                -0.475
REMARK  Name = 75427
REMARK  8 active torsions:
REMARK  status: ('A' for Active; 'I' for Inactive)
REMARK    1  A    between atoms: C_2  and  C_3
REMARK    2  A    between atoms: C_2  and  C_5
REMARK    3  A    between atoms: C_2  and  C_6
REMARK    4  A    between atoms: C_3  and  C_4
REMARK    5  A    between atoms: C_4  and  C_7
REMARK    6  A    between atoms: C_5  and  C_9
REMARK    7  A    between atoms: C_8  and  C_10
REMARK    8  A    between atoms: C_8  and  C_11
REMARK                            x       y       z     vdW  Elec       q    Type
REMARK                         _______ _______ _______ _____ _____    ______ ____
ROOT
ATOM      1  C   UNL     1       0.258   8.863  17.939  0.00  0.00    +0.000 C 
ATOM      2  H   UNL     1       0.942   9.704  18.115  0.00  0.00    +0.000 HD
ATOM      3  H   UNL     1       0.659   8.313  17.076  0.00  0.00    +0.000 HD
ENDROOT
BRANCH   1   4
ATOM      4  C   UNL     1      -1.130   9.412  17.596  0.00  0.00    +0.000 C 
ATOM      5  H   UNL     1      -1.839   9.281  18.417  0.00  0.00    +0.000 HD
ATOM      6  H   UNL     1      -1.066  10.495  17.434  0.00  0.00    +0.000 HD
BRANCH   4   7
ATOM      7  C   UNL     1      -1.669   8.777  16.344  0.00  0.00    +0.000 C 
ATOM      8  C   UNL     1      -2.694   9.203  15.582  0.00  0.00    +0.000 C 
ATOM      9  H   UNL     1      -1.161   7.862  16.043  0.00  0.00    +0.000 HD
BRANCH   8  10
ATOM     10  C   UNL     1      -3.185   8.520  14.337  0.00  0.00    +0.000 C 
ATOM     11  H   UNL     1      -3.371   7.454  14.509  0.00  0.00    +0.000 HD
ATOM     12  H   UNL     1      -4.121   8.973  13.996  0.00  0.00    +0.000 HD
ATOM     13  H   UNL     1      -2.442   8.604  13.537  0.00  0.00    +0.000 HD
ENDBRANCH   8  10
BRANCH   8  14
ATOM     14  C   UNL     1      -3.458  10.445  15.954  0.00  0.00    +0.000 C 
ATOM     15  H   UNL     1      -3.421  11.164  15.127  0.00  0.00    +0.000 HD
ATOM     16  H   UNL     1      -3.003  10.914  16.832  0.00  0.00    +0.000 HD
ATOM     17  H   UNL     1      -4.515  10.282  16.169  0.00  0.00    +0.000 HD
ENDBRANCH   8  14
ENDBRANCH   4   7
ENDBRANCH   1   4
BRANCH   1  18
ATOM     18  C   UNL     1       0.270   7.941  19.176  0.00  0.00    +0.000 C 
ATOM     19  H   UNL     1      -0.356   8.387  19.960  0.00  0.00    +0.000 HD
BRANCH  18  20
ATOM     20  C   UNL     1      -0.300   6.554  18.852  0.00  0.00    +0.000 C 
ATOM     21  H   UNL     1       0.082   5.792  19.538  0.00  0.00    +0.000 HD
ATOM     22  H   UNL     1      -1.389   6.535  18.951  0.00  0.00    +0.000 HD
ATOM     23  H   UNL     1      -0.042   6.249  17.833  0.00  0.00    +0.000 HD
ENDBRANCH  18  20
BRANCH  18  24
ATOM     24  C   UNL     1       1.708   7.821  19.710  0.00  0.00    +0.000 C 
ATOM     25  H   UNL     1       1.744   7.106  20.540  0.00  0.00    +0.000 HD
ATOM     26  H   UNL     1       2.054   8.787  20.096  0.00  0.00    +0.000 HD
BRANCH  24  28
ATOM     27  O   UNL     1       3.506   6.429  18.841  0.00  0.00    +0.000 OA
ATOM     28  C   UNL     1       2.711   7.348  18.679  0.00  0.00    +0.000 C 
ATOM     29  H   UNL     1       2.685   7.898  17.722  0.00  0.00    +0.000 HD
ENDBRANCH  24  28
ENDBRANCH  18  24
ENDBRANCH   1  18
TORSDOF 8
ENDMDL
MODEL 9
REMARK VINA RESULT:    -4.018     18.690     20.142
REMARK INTER + INTRA:          -6.020
REMARK INTER:                  -5.597
REMARK INTRA:                  -0.423
REMARK UNBOUND:                -0.475
REMARK  Name = 75427
REMARK  8 active torsions:
REMARK  status: ('A' for Active; 'I' for Inactive)
REMARK    1  A    between atoms: C_2  and  C_3
REMARK    2  A    between atoms: C_2  and  C_5
REMARK    3  A    between atoms: C_2  and  C_6
REMARK    4  A    between atoms: C_3  and  C_4
REMARK    5  A    between atoms: C_4  and  C_7
REMARK    6  A    between atoms: C_5  and  C_9
REMARK    7  A    between atoms: C_8  and  C_10
REMARK    8  A    between atoms: C_8  and  C_11
REMARK                            x       y       z     vdW  Elec       q    Type
REMARK                         _______ _______ _______ _____ _____    ______ ____
ROOT
ATOM      1  C   UNL     1       2.791  -3.868  16.774  0.00  0.00    +0.000 C 
ATOM      2  H   UNL     1       1.725  -3.616  16.709  0.00  0.00    +0.000 HD
ATOM      3  H   UNL     1       3.294  -2.980  17.184  0.00  0.00    +0.000 HD
ENDROOT
BRANCH   1   4
ATOM      4  C   UNL     1       3.324  -4.154  15.367  0.00  0.00    +0.000 C 
ATOM      5  H   UNL     1       3.933  -5.061  15.334  0.00  0.00    +0.000 HD
ATOM      6  H   UNL     1       2.483  -4.341  14.688  0.00  0.00    +0.000 HD
BRANCH   4   7
ATOM      7  C   UNL     1       4.110  -2.988  14.837  0.00  0.00    +0.000 C 
ATOM      8  C   UNL     1       5.430  -2.934  14.580  0.00  0.00    +0.000 C 
ATOM      9  H   UNL     1       3.523  -2.088  14.655  0.00  0.00    +0.000 HD
BRANCH   8  10
ATOM     10  C   UNL     1       6.158  -1.732  14.049  0.00  0.00    +0.000 C 
ATOM     11  H   UNL     1       5.462  -0.956  13.710  0.00  0.00    +0.000 HD
ATOM     12  H   UNL     1       6.795  -1.295  14.825  0.00  0.00    +0.000 HD
ATOM     13  H   UNL     1       6.786  -2.012  13.197  0.00  0.00    +0.000 HD
ENDBRANCH   8  10
BRANCH   8  14
ATOM     14  C   UNL     1       6.307  -4.131  14.833  0.00  0.00    +0.000 C 
ATOM     15  H   UNL     1       5.689  -5.033  14.916  0.00  0.00    +0.000 HD
ATOM     16  H   UNL     1       6.849  -4.005  15.776  0.00  0.00    +0.000 HD
ATOM     17  H   UNL     1       7.039  -4.334  14.049  0.00  0.00    +0.000 HD
ENDBRANCH   8  14
ENDBRANCH   4   7
ENDBRANCH   1   4
BRANCH   1  18
ATOM     18  C   UNL     1       2.969  -5.047  17.754  0.00  0.00    +0.000 C 
ATOM     19  H   UNL     1       2.094  -5.705  17.682  0.00  0.00    +0.000 HD
BRANCH  18  20
ATOM     20  C   UNL     1       4.213  -5.878  17.418  0.00  0.00    +0.000 C 
ATOM     21  H   UNL     1       4.861  -6.002  18.291  0.00  0.00    +0.000 HD
ATOM     22  H   UNL     1       3.945  -6.887  17.091  0.00  0.00    +0.000 HD
ATOM     23  H   UNL     1       4.802  -5.405  16.626  0.00  0.00    +0.000 HD
ENDBRANCH  18  20
BRANCH  18  24
ATOM     24  C   UNL     1       3.054  -4.506  19.192  0.00  0.00    +0.000 C 
ATOM     25  H   UNL     1       2.416  -3.622  19.302  0.00  0.00    +0.000 HD
ATOM     26  H   UNL     1       4.081  -4.197  19.424  0.00  0.00    +0.000 HD
BRANCH  24  28
ATOM     27  O   UNL     1       2.485  -5.239  21.442  0.00  0.00    +0.000 OA
ATOM     28  C   UNL     1       2.619  -5.496  20.250  0.00  0.00    +0.000 C 
ATOM     29  H   UNL     1       2.410  -6.513  19.875  0.00  0.00    +0.000 HD
ENDBRANCH  24  28
ENDBRANCH  18  24
ENDBRANCH   1  18
TORSDOF 8
ENDMDL
MODEL 10
REMARK VINA RESULT:    -3.937      3.799      6.423
REMARK INTER + INTRA:          -5.908
REMARK INTER:                  -5.433
REMARK INTRA:                  -0.475
REMARK UNBOUND:                -0.475
REMARK  Name = 75427
REMARK  8 active torsions:
REMARK  status: ('A' for Active; 'I' for Inactive)
REMARK    1  A    between atoms: C_2  and  C_3
REMARK    2  A    between atoms: C_2  and  C_5
REMARK    3  A    between atoms: C_2  and  C_6
REMARK    4  A    between atoms: C_3  and  C_4
REMARK    5  A    between atoms: C_4  and  C_7
REMARK    6  A    between atoms: C_5  and  C_9
REMARK    7  A    between atoms: C_8  and  C_10
REMARK    8  A    between atoms: C_8  and  C_11
REMARK                            x       y       z     vdW  Elec       q    Type
REMARK                         _______ _______ _______ _____ _____    ______ ____
ROOT
ATOM      1  C   UNL     1       8.273   0.905   0.210  0.00  0.00    +0.000 C 
ATOM      2  H   UNL     1       8.420   1.199  -0.837  0.00  0.00    +0.000 HD
ATOM      3  H   UNL     1       7.938   1.807   0.741  0.00  0.00    +0.000 HD
ENDROOT
BRANCH   1   4
ATOM      4  C   UNL     1       9.613   0.439   0.791  0.00  0.00    +0.000 C 
ATOM      5  H   UNL     1      10.435   0.565   0.082  0.00  0.00    +0.000 HD
ATOM      6  H   UNL     1       9.872   1.061   1.656  0.00  0.00    +0.000 HD
BRANCH   4   7
ATOM      7  C   UNL     1       9.537  -0.993   1.243  0.00  0.00    +0.000 C 
ATOM      8  C   UNL     1      10.049  -1.529   2.367  0.00  0.00    +0.000 C 
ATOM      9  H   UNL     1       9.008  -1.659   0.561  0.00  0.00    +0.000 HD
BRANCH   8  10
ATOM     10  C   UNL     1       9.938  -2.974   2.762  0.00  0.00    +0.000 C 
ATOM     11  H   UNL     1      10.880  -3.352   3.175  0.00  0.00    +0.000 HD
ATOM     12  H   UNL     1       9.162  -3.105   3.523  0.00  0.00    +0.000 HD
ATOM     13  H   UNL     1       9.685  -3.589   1.892  0.00  0.00    +0.000 HD
ENDBRANCH   8  10
BRANCH   8  14
ATOM     14  C   UNL     1      10.814  -0.673   3.341  0.00  0.00    +0.000 C 
ATOM     15  H   UNL     1      10.578  -0.978   4.367  0.00  0.00    +0.000 HD
ATOM     16  H   UNL     1      10.524   0.376   3.224  0.00  0.00    +0.000 HD
ATOM     17  H   UNL     1      11.899  -0.735   3.246  0.00  0.00    +0.000 HD
ENDBRANCH   8  14
ENDBRANCH   4   7
ENDBRANCH   1   4
BRANCH   1  18
ATOM     18  C   UNL     1       7.163  -0.165   0.279  0.00  0.00    +0.000 C 
ATOM     19  H   UNL     1       7.579  -1.082   0.716  0.00  0.00    +0.000 HD
BRANCH  18  20
ATOM     20  C   UNL     1       5.995   0.290   1.163  0.00  0.00    +0.000 C 
ATOM     21  H   UNL     1       6.341   0.621   2.147  0.00  0.00    +0.000 HD
ATOM     22  H   UNL     1       5.467   1.141   0.723  0.00  0.00    +0.000 HD
ATOM     23  H   UNL     1       5.275  -0.521   1.315  0.00  0.00    +0.000 HD
ENDBRANCH  18  20
BRANCH  18  24
ATOM     24  C   UNL     1       6.671  -0.482  -1.143  0.00  0.00    +0.000 C 
ATOM     25  H   UNL     1       6.996   0.302  -1.838  0.00  0.00    +0.000 HD
ATOM     26  H   UNL     1       5.576  -0.509  -1.172  0.00  0.00    +0.000 HD
BRANCH  24  28
ATOM     27  O   UNL     1       7.534  -1.983  -2.854  0.00  0.00    +0.000 OA
ATOM     28  C   UNL     1       7.182  -1.795  -1.694  0.00  0.00    +0.000 C 
ATOM     29  H   UNL     1       7.230  -2.618  -0.960  0.00  0.00    +0.000 HD
ENDBRANCH  24  28
ENDBRANCH  18  24
ENDBRANCH   1  18
TORSDOF 8
ENDMDL
