MODEL 1
REMARK VINA RESULT:    -3.317      0.000      0.000
REMARK INTER + INTRA:          -3.933
REMARK INTER:                  -3.922
REMARK INTRA:                  -0.011
REMARK UNBOUND:                -0.034
REMARK  Name = 263
REMARK  4 active torsions:
REMARK  status: ('A' for Active; 'I' for Inactive)
REMARK    1  A    between atoms: O_1  and  C_4
REMARK    2  A    between atoms: C_2  and  C_3
REMARK    3  A    between atoms: C_2  and  C_4
REMARK    4  A    between atoms: C_3  and  C_5
REMARK                            x       y       z     vdW  Elec       q    Type
REMARK                         _______ _______ _______ _____ _____    ______ ____
ROOT
ATOM      1  C   UNL     1       6.845  -1.139  -4.475  0.00  0.00    +0.000 C 
ATOM      2  H   UNL     1       6.469  -1.420  -3.482  0.00  0.00    +0.000 HD
ATOM      3  H   UNL     1       6.807  -2.054  -5.079  0.00  0.00    +0.000 HD
ENDROOT
BRANCH   1   4
ATOM      4  C   UNL     1       5.952  -0.067  -5.093  0.00  0.00    +0.000 C 
ATOM      5  H   UNL     1       5.254  -0.527  -5.802  0.00  0.00    +0.000 HD
ATOM      6  H   UNL     1       6.564   0.647  -5.657  0.00  0.00    +0.000 HD
BRANCH   4   7
ATOM      7  C   UNL     1       5.161   0.679  -4.032  0.00  0.00    +0.000 C 
ATOM      8  H   UNL     1       4.087   0.498  -4.143  0.00  0.00    +0.000 HD
ATOM      9  H   UNL     1       5.461   0.366  -3.026  0.00  0.00    +0.000 HD
ATOM     10  H   UNL     1       5.334   1.757  -4.117  0.00  0.00    +0.000 HD
ENDBRANCH   4   7
ENDBRANCH   1   4
BRANCH   1  11
ATOM     11  C   UNL     1       8.288  -0.671  -4.357  0.00  0.00    +0.000 C 
ATOM     12  H   UNL     1       8.361   0.275  -3.810  0.00  0.00    +0.000 HD
ATOM     13  H   UNL     1       8.903  -1.416  -3.843  0.00  0.00    +0.000 HD
BRANCH  11  14
ATOM     14  O   UNL     1       8.818  -0.482  -5.662  0.00  0.00    +0.000 OA
ATOM     15  H   UNL     1       8.069  -0.452  -6.281  0.00  0.00    +0.000 HD
ENDBRANCH  11  14
ENDBRANCH   1  11
TORSDOF 4
ENDMDL
MODEL 2
REMARK VINA RESULT:    -3.246      8.682      8.908
REMARK INTER + INTRA:          -3.849
REMARK INTER:                  -3.842
REMARK INTRA:                  -0.007
REMARK UNBOUND:                -0.034
REMARK  Name = 263
REMARK  4 active torsions:
REMARK  status: ('A' for Active; 'I' for Inactive)
REMARK    1  A    between atoms: O_1  and  C_4
REMARK    2  A    between atoms: C_2  and  C_3
REMARK    3  A    between atoms: C_2  and  C_4
REMARK    4  A    between atoms: C_3  and  C_5
REMARK                            x       y       z     vdW  Elec       q    Type
REMARK                         _______ _______ _______ _____ _____    ______ ____
ROOT
ATOM      1  C   UNL     1      10.828   7.177  -4.454  0.00  0.00    +0.000 C 
ATOM      2  H   UNL     1      10.337   6.985  -3.491  0.00  0.00    +0.000 HD
ATOM      3  H   UNL     1      11.004   6.191  -4.903  0.00  0.00    +0.000 HD
ENDROOT
BRANCH   1   4
ATOM      4  C   UNL     1       9.916   8.007  -5.355  0.00  0.00    +0.000 C 
ATOM      5  H   UNL     1      10.491   8.409  -6.197  0.00  0.00    +0.000 HD
ATOM      6  H   UNL     1       9.518   8.861  -4.796  0.00  0.00    +0.000 HD
BRANCH   4   7
ATOM      7  C   UNL     1       8.762   7.178  -5.894  0.00  0.00    +0.000 C 
ATOM      8  H   UNL     1       8.997   6.773  -6.883  0.00  0.00    +0.000 HD
ATOM      9  H   UNL     1       8.533   6.341  -5.225  0.00  0.00    +0.000 HD
ATOM     10  H   UNL     1       7.862   7.795  -5.986  0.00  0.00    +0.000 HD
ENDBRANCH   4   7
ENDBRANCH   1   4
BRANCH   1  11
ATOM     11  C   UNL     1      12.162   7.869  -4.215  0.00  0.00    +0.000 C 
ATOM     12  H   UNL     1      12.034   8.943  -4.046  0.00  0.00    +0.000 HD
ATOM     13  H   UNL     1      12.677   7.442  -3.348  0.00  0.00    +0.000 HD
BRANCH  11  14
ATOM     14  O   UNL     1      12.987   7.683  -5.357  0.00  0.00    +0.000 OA
ATOM     15  H   UNL     1      12.962   8.506  -5.873  0.00  0.00    +0.000 HD
ENDBRANCH  11  14
ENDBRANCH   1  11
TORSDOF 4
ENDMDL
MODEL 3
REMARK VINA RESULT:    -3.194      2.341      2.535
REMARK INTER + INTRA:          -3.788
REMARK INTER:                  -3.770
REMARK INTRA:                  -0.018
REMARK UNBOUND:                -0.034
REMARK  Name = 263
REMARK  4 active torsions:
REMARK  status: ('A' for Active; 'I' for Inactive)
REMARK    1  A    between atoms: O_1  and  C_4
REMARK    2  A    between atoms: C_2  and  C_3
REMARK    3  A    between atoms: C_2  and  C_4
REMARK    4  A    between atoms: C_3  and  C_5
REMARK                            x       y       z     vdW  Elec       q    Type
REMARK                         _______ _______ _______ _____ _____    ______ ____
ROOT
ATOM      1  C   UNL     1       6.561  -1.280  -4.225  0.00  0.00    +0.000 C 
ATOM      2  H   UNL     1       6.459  -2.202  -4.812  0.00  0.00    +0.000 HD
ATOM      3  H   UNL     1       7.639  -1.088  -4.154  0.00  0.00    +0.000 HD
ENDROOT
BRANCH   1   4
ATOM      4  C   UNL     1       5.868  -0.122  -4.937  0.00  0.00    +0.000 C 
ATOM      5  H   UNL     1       5.111  -0.510  -5.629  0.00  0.00    +0.000 HD
ATOM      6  H   UNL     1       6.597   0.438  -5.533  0.00  0.00    +0.000 HD
BRANCH   4   7
ATOM      7  C   UNL     1       5.199   0.820  -3.949  0.00  0.00    +0.000 C 
ATOM      8  H   UNL     1       5.204   1.849  -4.322  0.00  0.00    +0.000 HD
ATOM      9  H   UNL     1       4.160   0.525  -3.767  0.00  0.00    +0.000 HD
ATOM     10  H   UNL     1       5.729   0.804  -2.991  0.00  0.00    +0.000 HD
ENDBRANCH   4   7
ENDBRANCH   1   4
BRANCH   1  11
ATOM     11  C   UNL     1       5.994  -1.503  -2.830  0.00  0.00    +0.000 C 
ATOM     12  H   UNL     1       6.609  -1.022  -2.064  0.00  0.00    +0.000 HD
ATOM     13  H   UNL     1       4.974  -1.111  -2.753  0.00  0.00    +0.000 HD
BRANCH  11  14
ATOM     14  O   UNL     1       5.952  -2.899  -2.569  0.00  0.00    +0.000 OA
ATOM     15  H   UNL     1       5.096  -3.232  -2.889  0.00  0.00    +0.000 HD
ENDBRANCH  11  14
ENDBRANCH   1  11
TORSDOF 4
ENDMDL
MODEL 4
REMARK VINA RESULT:    -3.160     21.572     22.031
REMARK INTER + INTRA:          -3.749
REMARK INTER:                  -3.732
REMARK INTRA:                  -0.016
REMARK UNBOUND:                -0.034
REMARK  Name = 263
REMARK  4 active torsions:
REMARK  status: ('A' for Active; 'I' for Inactive)
REMARK    1  A    between atoms: O_1  and  C_4
REMARK    2  A    between atoms: C_2  and  C_3
REMARK    3  A    between atoms: C_2  and  C_4
REMARK    4  A    between atoms: C_3  and  C_5
REMARK                            x       y       z     vdW  Elec       q    Type
REMARK                         _______ _______ _______ _____ _____    ______ ____
ROOT
ATOM      1  C   UNL     1       4.296 -10.526 -24.354  0.00  0.00    +0.000 C 
ATOM      2  H   UNL     1       3.921 -11.156 -25.171  0.00  0.00    +0.000 HD
ATOM      3  H   UNL     1       4.965 -11.165 -23.765  0.00  0.00    +0.000 HD
ENDROOT
BRANCH   1   4
ATOM      4  C   UNL     1       5.069  -9.336 -24.917  0.00  0.00    +0.000 C 
ATOM      5  H   UNL     1       4.711  -8.409 -24.456  0.00  0.00    +0.000 HD
ATOM      6  H   UNL     1       4.892  -9.253 -25.995  0.00  0.00    +0.000 HD
BRANCH   4   7
ATOM      7  C   UNL     1       6.562  -9.472 -24.663  0.00  0.00    +0.000 C 
ATOM      8  H   UNL     1       6.767 -10.263 -23.936  0.00  0.00    +0.000 HD
ATOM      9  H   UNL     1       7.097  -9.709 -25.589  0.00  0.00    +0.000 HD
ATOM     10  H   UNL     1       6.966  -8.534 -24.268  0.00  0.00    +0.000 HD
ENDBRANCH   4   7
ENDBRANCH   1   4
BRANCH   1  11
ATOM     11  C   UNL     1       3.130 -10.078 -23.485  0.00  0.00    +0.000 C 
ATOM     12  H   UNL     1       2.333 -10.827 -23.462  0.00  0.00    +0.000 HD
ATOM     13  H   UNL     1       3.456  -9.888 -22.457  0.00  0.00    +0.000 HD
BRANCH  11  14
ATOM     14  O   UNL     1       2.602  -8.869 -24.012  0.00  0.00    +0.000 OA
ATOM     15  H   UNL     1       2.829  -8.155 -23.393  0.00  0.00    +0.000 HD
ENDBRANCH  11  14
ENDBRANCH   1  11
TORSDOF 4
ENDMDL
MODEL 5
REMARK VINA RESULT:    -2.998     14.461     14.971
REMARK INTER + INTRA:          -3.557
REMARK INTER:                  -3.555
REMARK INTRA:                  -0.002
REMARK UNBOUND:                -0.034
REMARK  Name = 263
REMARK  4 active torsions:
REMARK  status: ('A' for Active; 'I' for Inactive)
REMARK    1  A    between atoms: O_1  and  C_4
REMARK    2  A    between atoms: C_2  and  C_3
REMARK    3  A    between atoms: C_2  and  C_4
REMARK    4  A    between atoms: C_3  and  C_5
REMARK                            x       y       z     vdW  Elec       q    Type
REMARK                         _______ _______ _______ _____ _____    ______ ____
ROOT
ATOM      1  C   UNL     1      -0.475 -11.989  -8.832  0.00  0.00    +0.000 C 
ATOM      2  H   UNL     1       0.561 -11.642  -8.937  0.00  0.00    +0.000 HD
ATOM      3  H   UNL     1      -1.105 -11.109  -9.011  0.00  0.00    +0.000 HD
ENDROOT
BRANCH   1   4
ATOM      4  C   UNL     1      -0.777 -13.069  -9.868  0.00  0.00    +0.000 C 
ATOM      5  H   UNL     1      -1.843 -13.052 -10.123  0.00  0.00    +0.000 HD
ATOM      6  H   UNL     1      -0.558 -14.058  -9.450  0.00  0.00    +0.000 HD
BRANCH   4   7
ATOM      7  C   UNL     1       0.038 -12.869 -11.135  0.00  0.00    +0.000 C 
ATOM      8  H   UNL     1      -0.588 -12.979 -12.027  0.00  0.00    +0.000 HD
ATOM      9  H   UNL     1       0.493 -11.872 -11.156  0.00  0.00    +0.000 HD
ATOM     10  H   UNL     1       0.842 -13.610 -11.191  0.00  0.00    +0.000 HD
ENDBRANCH   4   7
ENDBRANCH   1   4
BRANCH   1  11
ATOM     11  C   UNL     1      -0.700 -12.492  -7.414  0.00  0.00    +0.000 C 
ATOM     12  H   UNL     1      -1.755 -12.434  -7.128  0.00  0.00    +0.000 HD
ATOM     13  H   UNL     1      -0.369 -13.531  -7.308  0.00  0.00    +0.000 HD
BRANCH  11  14
ATOM     14  O   UNL     1       0.058 -11.692  -6.517  0.00  0.00    +0.000 OA
ATOM     15  H   UNL     1       0.049 -12.134  -5.651  0.00  0.00    +0.000 HD
ENDBRANCH  11  14
ENDBRANCH   1  11
TORSDOF 4
ENDMDL
MODEL 6
REMARK VINA RESULT:    -2.814      2.144      2.917
REMARK INTER + INTRA:          -3.341
REMARK INTER:                  -3.338
REMARK INTRA:                  -0.003
REMARK UNBOUND:                -0.034
REMARK  Name = 263
REMARK  4 active torsions:
REMARK  status: ('A' for Active; 'I' for Inactive)
REMARK    1  A    between atoms: O_1  and  C_4
REMARK    2  A    between atoms: C_2  and  C_3
REMARK    3  A    between atoms: C_2  and  C_4
REMARK    4  A    between atoms: C_3  and  C_5
REMARK                            x       y       z     vdW  Elec       q    Type
REMARK                         _______ _______ _______ _____ _____    ______ ____
ROOT
ATOM      1  C   UNL     1       6.598  -0.927  -4.338  0.00  0.00    +0.000 C 
ATOM      2  H   UNL     1       7.582  -0.643  -4.735  0.00  0.00    +0.000 HD
ATOM      3  H   UNL     1       6.281  -1.801  -4.922  0.00  0.00    +0.000 HD
ENDROOT
BRANCH   1   4
ATOM      4  C   UNL     1       6.711  -1.297  -2.862  0.00  0.00    +0.000 C 
ATOM      5  H   UNL     1       6.203  -0.543  -2.250  0.00  0.00    +0.000 HD
ATOM      6  H   UNL     1       7.764  -1.306  -2.560  0.00  0.00    +0.000 HD
BRANCH   4   7
ATOM      7  C   UNL     1       6.097  -2.659  -2.580  0.00  0.00    +0.000 C 
ATOM      8  H   UNL     1       5.480  -2.633  -1.677  0.00  0.00    +0.000 HD
ATOM      9  H   UNL     1       5.470  -2.987  -3.417  0.00  0.00    +0.000 HD
ATOM     10  H   UNL     1       6.883  -3.407  -2.433  0.00  0.00    +0.000 HD
ENDBRANCH   4   7
ENDBRANCH   1   4
BRANCH   1  11
ATOM     11  C   UNL     1       5.615   0.213  -4.559  0.00  0.00    +0.000 C 
ATOM     12  H   UNL     1       4.704   0.079  -3.967  0.00  0.00    +0.000 HD
ATOM     13  H   UNL     1       6.063   1.176  -4.293  0.00  0.00    +0.000 HD
BRANCH  11  14
ATOM     14  O   UNL     1       5.260   0.254  -5.934  0.00  0.00    +0.000 OA
ATOM     15  H   UNL     1       4.645   0.996  -6.057  0.00  0.00    +0.000 HD
ENDBRANCH  11  14
ENDBRANCH   1  11
TORSDOF 4
ENDMDL
MODEL 7
REMARK VINA RESULT:    -2.754      2.358      2.741
REMARK INTER + INTRA:          -3.271
REMARK INTER:                  -3.311
REMARK INTRA:                   0.040
REMARK UNBOUND:                -0.034
REMARK  Name = 263
REMARK  4 active torsions:
REMARK  status: ('A' for Active; 'I' for Inactive)
REMARK    1  A    between atoms: O_1  and  C_4
REMARK    2  A    between atoms: C_2  and  C_3
REMARK    3  A    between atoms: C_2  and  C_4
REMARK    4  A    between atoms: C_3  and  C_5
REMARK                            x       y       z     vdW  Elec       q    Type
REMARK                         _______ _______ _______ _____ _____    ______ ____
ROOT
ATOM      1  C   UNL     1       7.821  -1.297  -3.791  0.00  0.00    +0.000 C 
ATOM      2  H   UNL     1       8.038  -2.229  -4.330  0.00  0.00    +0.000 HD
ATOM      3  H   UNL     1       8.063  -0.485  -4.488  0.00  0.00    +0.000 HD
ENDROOT
BRANCH   1   4
ATOM      4  C   UNL     1       6.344  -1.238  -3.411  0.00  0.00    +0.000 C 
ATOM      5  H   UNL     1       5.728  -1.214  -4.317  0.00  0.00    +0.000 HD
ATOM      6  H   UNL     1       6.140  -0.316  -2.855  0.00  0.00    +0.000 HD
BRANCH   4   7
ATOM      7  C   UNL     1       5.937  -2.434  -2.566  0.00  0.00    +0.000 C 
ATOM      8  H   UNL     1       6.341  -2.355  -1.552  0.00  0.00    +0.000 HD
ATOM      9  H   UNL     1       4.847  -2.512  -2.497  0.00  0.00    +0.000 HD
ATOM     10  H   UNL     1       6.316  -3.360  -3.012  0.00  0.00    +0.000 HD
ENDBRANCH   4   7
ENDBRANCH   1   4
BRANCH   1  11
ATOM     11  C   UNL     1       8.721  -1.199  -2.568  0.00  0.00    +0.000 C 
ATOM     12  H   UNL     1       9.557  -0.513  -2.736  0.00  0.00    +0.000 HD
ATOM     13  H   UNL     1       8.159  -0.853  -1.693  0.00  0.00    +0.000 HD
BRANCH  11  14
ATOM     14  O   UNL     1       9.243  -2.488  -2.277  0.00  0.00    +0.000 OA
ATOM     15  H   UNL     1       8.501  -3.116  -2.295  0.00  0.00    +0.000 HD
ENDBRANCH  11  14
ENDBRANCH   1  11
TORSDOF 4
ENDMDL
MODEL 8
REMARK VINA RESULT:    -2.740     27.674     28.006
REMARK INTER + INTRA:          -3.254
REMARK INTER:                  -3.234
REMARK INTRA:                  -0.020
REMARK UNBOUND:                -0.034
REMARK  Name = 263
REMARK  4 active torsions:
REMARK  status: ('A' for Active; 'I' for Inactive)
REMARK    1  A    between atoms: O_1  and  C_4
REMARK    2  A    between atoms: C_2  and  C_3
REMARK    3  A    between atoms: C_2  and  C_4
REMARK    4  A    between atoms: C_3  and  C_5
REMARK                            x       y       z     vdW  Elec       q    Type
REMARK                         _______ _______ _______ _____ _____    ______ ____
ROOT
ATOM      1  C   UNL     1      -2.027  -8.890  20.564  0.00  0.00    +0.000 C 
ATOM      2  H   UNL     1      -0.969  -9.066  20.799  0.00  0.00    +0.000 HD
ATOM      3  H   UNL     1      -2.583  -9.148  21.475  0.00  0.00    +0.000 HD
ENDROOT
BRANCH   1   4
ATOM      4  C   UNL     1      -2.253  -7.423  20.211  0.00  0.00    +0.000 C 
ATOM      5  H   UNL     1      -3.065  -7.337  19.479  0.00  0.00    +0.000 HD
ATOM      6  H   UNL     1      -1.351  -7.008  19.746  0.00  0.00    +0.000 HD
BRANCH   4   7
ATOM      7  C   UNL     1      -2.606  -6.602  21.440  0.00  0.00    +0.000 C 
ATOM      8  H   UNL     1      -1.758  -6.541  22.129  0.00  0.00    +0.000 HD
ATOM      9  H   UNL     1      -2.897  -5.583  21.161  0.00  0.00    +0.000 HD
ATOM     10  H   UNL     1      -3.445  -7.059  21.974  0.00  0.00    +0.000 HD
ENDBRANCH   4   7
ENDBRANCH   1   4
BRANCH   1  11
ATOM     11  C   UNL     1      -2.455  -9.813  19.432  0.00  0.00    +0.000 C 
ATOM     12  H   UNL     1      -1.969  -9.546  18.489  0.00  0.00    +0.000 HD
ATOM     13  H   UNL     1      -2.214 -10.856  19.663  0.00  0.00    +0.000 HD
BRANCH  11  14
ATOM     14  O   UNL     1      -3.862  -9.710  19.263  0.00  0.00    +0.000 OA
ATOM     15  H   UNL     1      -4.206 -10.607  19.111  0.00  0.00    +0.000 HD
ENDBRANCH  11  14
ENDBRANCH   1  11
TORSDOF 4
ENDMDL
MODEL 9
REMARK VINA RESULT:    -2.735     16.148     16.580
REMARK INTER + INTRA:          -3.249
REMARK INTER:                  -3.245
REMARK INTRA:                  -0.004
REMARK UNBOUND:                -0.034
REMARK  Name = 263
REMARK  4 active torsions:
REMARK  status: ('A' for Active; 'I' for Inactive)
REMARK    1  A    between atoms: O_1  and  C_4
REMARK    2  A    between atoms: C_2  and  C_3
REMARK    3  A    between atoms: C_2  and  C_4
REMARK    4  A    between atoms: C_3  and  C_5
REMARK                            x       y       z     vdW  Elec       q    Type
REMARK                         _______ _______ _______ _____ _____    ______ ____
ROOT
ATOM      1  C   UNL     1      -0.018 -12.988 -11.563  0.00  0.00    +0.000 C 
ATOM      2  H   UNL     1      -0.296 -12.024 -12.009  0.00  0.00    +0.000 HD
ATOM      3  H   UNL     1       1.055 -12.919 -11.345  0.00  0.00    +0.000 HD
ENDROOT
BRANCH   1   4
ATOM      4  C   UNL     1      -0.800 -13.216 -10.272  0.00  0.00    +0.000 C 
ATOM      5  H   UNL     1      -0.623 -14.233  -9.904  0.00  0.00    +0.000 HD
ATOM      6  H   UNL     1      -1.875 -13.122 -10.466  0.00  0.00    +0.000 HD
BRANCH   4   7
ATOM      7  C   UNL     1      -0.397 -12.223  -9.193  0.00  0.00    +0.000 C 
ATOM      8  H   UNL     1      -1.277 -11.805  -8.695  0.00  0.00    +0.000 HD
ATOM      9  H   UNL     1       0.232 -12.702  -8.435  0.00  0.00    +0.000 HD
ATOM     10  H   UNL     1       0.170 -11.396  -9.632  0.00  0.00    +0.000 HD
ENDBRANCH   4   7
ENDBRANCH   1   4
BRANCH   1  11
ATOM     11  C   UNL     1      -0.260 -14.102 -12.570  0.00  0.00    +0.000 C 
ATOM     12  H   UNL     1       0.392 -14.004 -13.444  0.00  0.00    +0.000 HD
ATOM     13  H   UNL     1      -0.089 -15.084 -12.119  0.00  0.00    +0.000 HD
BRANCH  11  14
ATOM     14  O   UNL     1      -1.612 -14.043 -13.004  0.00  0.00    +0.000 OA
ATOM     15  H   UNL     1      -1.995 -13.219 -12.659  0.00  0.00    +0.000 HD
ENDBRANCH  11  14
ENDBRANCH   1  11
TORSDOF 4
ENDMDL
MODEL 10
REMARK VINA RESULT:    -2.679     22.255     22.667
REMARK INTER + INTRA:          -3.182
REMARK INTER:                  -3.148
REMARK INTRA:                  -0.034
REMARK UNBOUND:                -0.034
REMARK  Name = 263
REMARK  4 active torsions:
REMARK  status: ('A' for Active; 'I' for Inactive)
REMARK    1  A    between atoms: O_1  and  C_4
REMARK    2  A    between atoms: C_2  and  C_3
REMARK    3  A    between atoms: C_2  and  C_4
REMARK    4  A    between atoms: C_3  and  C_5
REMARK                            x       y       z     vdW  Elec       q    Type
REMARK                         _______ _______ _______ _____ _____    ______ ____
ROOT
ATOM      1  C   UNL     1       4.240 -10.511 -24.465  0.00  0.00    +0.000 C 
ATOM      2  H   UNL     1       4.076 -10.673 -23.392  0.00  0.00    +0.000 HD
ATOM      3  H   UNL     1       3.243 -10.379 -24.904  0.00  0.00    +0.000 HD
ENDROOT
BRANCH   1   4
ATOM      4  C   UNL     1       5.079  -9.256 -24.687  0.00  0.00    +0.000 C 
ATOM      5  H   UNL     1       4.864  -8.521 -23.902  0.00  0.00    +0.000 HD
ATOM      6  H   UNL     1       4.814  -8.795 -25.645  0.00  0.00    +0.000 HD
BRANCH   4   7
ATOM      7  C   UNL     1       6.566  -9.570 -24.675  0.00  0.00    +0.000 C 
ATOM      8  H   UNL     1       6.776 -10.458 -24.072  0.00  0.00    +0.000 HD
ATOM      9  H   UNL     1       6.937  -9.749 -25.691  0.00  0.00    +0.000 HD
ATOM     10  H   UNL     1       7.129  -8.732 -24.252  0.00  0.00    +0.000 HD
ENDBRANCH   4   7
ENDBRANCH   1   4
BRANCH   1  11
ATOM     11  C   UNL     1       4.900 -11.742 -25.069  0.00  0.00    +0.000 C 
ATOM     12  H   UNL     1       4.411 -12.046 -25.999  0.00  0.00    +0.000 HD
ATOM     13  H   UNL     1       5.959 -11.559 -25.278  0.00  0.00    +0.000 HD
BRANCH  11  14
ATOM     14  O   UNL     1       4.811 -12.813 -24.138  0.00  0.00    +0.000 OA
ATOM     15  H   UNL     1       5.026 -12.457 -23.260  0.00  0.00    +0.000 HD
ENDBRANCH  11  14
ENDBRANCH   1  11
TORSDOF 4
ENDMDL
