MODEL 1
REMARK VINA RESULT:    -4.254      0.000      0.000
REMARK INTER + INTRA:          -5.537
REMARK INTER:                  -5.433
REMARK INTRA:                  -0.104
REMARK UNBOUND:                -0.039
REMARK  Name = 8103
REMARK  6 active torsions:
REMARK  status: ('A' for Active; 'I' for Inactive)
REMARK    1  A    between atoms: O_1  and  C_6
REMARK    2  A    between atoms: C_2  and  C_3
REMARK    3  A    between atoms: C_2  and  C_4
REMARK    4  A    between atoms: C_3  and  C_5
REMARK    5  A    between atoms: C_4  and  C_6
REMARK    6  A    between atoms: C_5  and  C_7
REMARK                            x       y       z     vdW  Elec       q    Type
REMARK                         _______ _______ _______ _____ _____    ______ ____
ROOT
ATOM      1  C   UNL     1       5.472  -1.192  -2.442  0.00  0.00    +0.000 C 
ATOM      2  H   UNL     1       4.641  -1.485  -3.095  0.00  0.00    +0.000 HD
ATOM      3  H   UNL     1       5.074  -1.159  -1.420  0.00  0.00    +0.000 HD
ENDROOT
BRANCH   1   4
ATOM      4  C   UNL     1       5.946   0.209  -2.839  0.00  0.00    +0.000 C 
ATOM      5  H   UNL     1       5.886   0.870  -1.967  0.00  0.00    +0.000 HD
ATOM      6  H   UNL     1       7.004   0.156  -3.125  0.00  0.00    +0.000 HD
BRANCH   4   7
ATOM      7  C   UNL     1       5.142   0.819  -3.988  0.00  0.00    +0.000 C 
ATOM      8  H   UNL     1       4.070   0.727  -3.781  0.00  0.00    +0.000 HD
ATOM      9  H   UNL     1       5.367   1.889  -4.071  0.00  0.00    +0.000 HD
BRANCH   7  10
ATOM     10  C   UNL     1       5.455   0.133  -5.309  0.00  0.00    +0.000 C 
ATOM     11  H   UNL     1       6.374  -0.455  -5.223  0.00  0.00    +0.000 HD
ATOM     12  H   UNL     1       4.646  -0.544  -5.601  0.00  0.00    +0.000 HD
ATOM     13  H   UNL     1       5.595   0.867  -6.109  0.00  0.00    +0.000 HD
ENDBRANCH   7  10
ENDBRANCH   4   7
ENDBRANCH   1   4
BRANCH   1  14
ATOM     14  C   UNL     1       6.571  -2.250  -2.518  0.00  0.00    +0.000 C 
ATOM     15  H   UNL     1       6.837  -2.441  -3.565  0.00  0.00    +0.000 HD
ATOM     16  H   UNL     1       6.205  -3.207  -2.123  0.00  0.00    +0.000 HD
BRANCH  14  17
ATOM     17  C   UNL     1       7.810  -1.826  -1.743  0.00  0.00    +0.000 C 
ATOM     18  H   UNL     1       8.052  -0.772  -1.915  0.00  0.00    +0.000 HD
ATOM     19  H   UNL     1       7.673  -1.978  -0.667  0.00  0.00    +0.000 HD
BRANCH  17  20
ATOM     20  O   UNL     1       8.911  -2.618  -2.166  0.00  0.00    +0.000 OA
ATOM     21  H   UNL     1       9.549  -2.649  -1.434  0.00  0.00    +0.000 HD
ENDBRANCH  17  20
ENDBRANCH  14  17
ENDBRANCH   1  14
TORSDOF 6
ENDMDL
MODEL 2
REMARK VINA RESULT:    -4.115      9.726     10.344
REMARK INTER + INTRA:          -5.357
REMARK INTER:                  -5.281
REMARK INTRA:                  -0.076
REMARK UNBOUND:                -0.039
REMARK  Name = 8103
REMARK  6 active torsions:
REMARK  status: ('A' for Active; 'I' for Inactive)
REMARK    1  A    between atoms: O_1  and  C_6
REMARK    2  A    between atoms: C_2  and  C_3
REMARK    3  A    between atoms: C_2  and  C_4
REMARK    4  A    between atoms: C_3  and  C_5
REMARK    5  A    between atoms: C_4  and  C_6
REMARK    6  A    between atoms: C_5  and  C_7
REMARK                            x       y       z     vdW  Elec       q    Type
REMARK                         _______ _______ _______ _____ _____    ______ ____
ROOT
ATOM      1  C   UNL     1      11.222   7.959  -3.471  0.00  0.00    +0.000 C 
ATOM      2  H   UNL     1      10.775   7.666  -2.512  0.00  0.00    +0.000 HD
ATOM      3  H   UNL     1      10.994   9.022  -3.613  0.00  0.00    +0.000 HD
ENDROOT
BRANCH   1   4
ATOM      4  C   UNL     1      10.562   7.152  -4.593  0.00  0.00    +0.000 C 
ATOM      5  H   UNL     1      11.341   6.663  -5.190  0.00  0.00    +0.000 HD
ATOM      6  H   UNL     1       9.957   6.352  -4.146  0.00  0.00    +0.000 HD
BRANCH   4   7
ATOM      7  C   UNL     1       9.680   7.998  -5.512  0.00  0.00    +0.000 C 
ATOM      8  H   UNL     1       9.361   8.906  -4.988  0.00  0.00    +0.000 HD
ATOM      9  H   UNL     1      10.255   8.314  -6.390  0.00  0.00    +0.000 HD
BRANCH   7  10
ATOM     10  C   UNL     1       8.450   7.226  -5.965  0.00  0.00    +0.000 C 
ATOM     11  H   UNL     1       8.688   6.163  -6.070  0.00  0.00    +0.000 HD
ATOM     12  H   UNL     1       7.637   7.322  -5.238  0.00  0.00    +0.000 HD
ATOM     13  H   UNL     1       8.092   7.592  -6.933  0.00  0.00    +0.000 HD
ENDBRANCH   7  10
ENDBRANCH   4   7
ENDBRANCH   1   4
BRANCH   1  14
ATOM     14  C   UNL     1      12.736   7.775  -3.399  0.00  0.00    +0.000 C 
ATOM     15  H   UNL     1      12.984   6.973  -2.693  0.00  0.00    +0.000 HD
ATOM     16  H   UNL     1      13.211   8.682  -3.003  0.00  0.00    +0.000 HD
BRANCH  14  17
ATOM     17  C   UNL     1      13.325   7.454  -4.766  0.00  0.00    +0.000 C 
ATOM     18  H   UNL     1      13.780   6.459  -4.785  0.00  0.00    +0.000 HD
ATOM     19  H   UNL     1      12.557   7.499  -5.546  0.00  0.00    +0.000 HD
BRANCH  17  20
ATOM     20  O   UNL     1      14.325   8.415  -5.073  0.00  0.00    +0.000 OA
ATOM     21  H   UNL     1      14.899   8.501  -4.294  0.00  0.00    +0.000 HD
ENDBRANCH  17  20
ENDBRANCH  14  17
ENDBRANCH   1  14
TORSDOF 6
ENDMDL
MODEL 3
REMARK VINA RESULT:    -4.040      1.600      2.096
REMARK INTER + INTRA:          -5.259
REMARK INTER:                  -5.097
REMARK INTRA:                  -0.163
REMARK UNBOUND:                -0.039
REMARK  Name = 8103
REMARK  6 active torsions:
REMARK  status: ('A' for Active; 'I' for Inactive)
REMARK    1  A    between atoms: O_1  and  C_6
REMARK    2  A    between atoms: C_2  and  C_3
REMARK    3  A    between atoms: C_2  and  C_4
REMARK    4  A    between atoms: C_3  and  C_5
REMARK    5  A    between atoms: C_4  and  C_6
REMARK    6  A    between atoms: C_5  and  C_7
REMARK                            x       y       z     vdW  Elec       q    Type
REMARK                         _______ _______ _______ _____ _____    ______ ____
ROOT
ATOM      1  C   UNL     1       8.079  -0.923  -4.698  0.00  0.00    +0.000 C 
ATOM      2  H   UNL     1       8.239  -0.096  -5.401  0.00  0.00    +0.000 HD
ATOM      3  H   UNL     1       8.496  -1.821  -5.169  0.00  0.00    +0.000 HD
ENDROOT
BRANCH   1   4
ATOM      4  C   UNL     1       6.574  -1.118  -4.495  0.00  0.00    +0.000 C 
ATOM      5  H   UNL     1       6.251  -2.017  -5.033  0.00  0.00    +0.000 HD
ATOM      6  H   UNL     1       6.381  -1.299  -3.430  0.00  0.00    +0.000 HD
BRANCH   4   7
ATOM      7  C   UNL     1       5.738   0.074  -4.963  0.00  0.00    +0.000 C 
ATOM      8  H   UNL     1       6.356   0.746  -5.570  0.00  0.00    +0.000 HD
ATOM      9  H   UNL     1       4.916  -0.275  -5.598  0.00  0.00    +0.000 HD
BRANCH   7  10
ATOM     10  C   UNL     1       5.170   0.851  -3.784  0.00  0.00    +0.000 C 
ATOM     11  H   UNL     1       5.785   0.690  -2.893  0.00  0.00    +0.000 HD
ATOM     12  H   UNL     1       5.152   1.925  -3.994  0.00  0.00    +0.000 HD
ATOM     13  H   UNL     1       4.150   0.527  -3.556  0.00  0.00    +0.000 HD
ENDBRANCH   7  10
ENDBRANCH   4   7
ENDBRANCH   1   4
BRANCH   1  14
ATOM     14  C   UNL     1       8.836  -0.638  -3.403  0.00  0.00    +0.000 C 
ATOM     15  H   UNL     1       8.801   0.434  -3.175  0.00  0.00    +0.000 HD
ATOM     16  H   UNL     1       9.899  -0.886  -3.521  0.00  0.00    +0.000 HD
BRANCH  14  17
ATOM     17  C   UNL     1       8.262  -1.428  -2.235  0.00  0.00    +0.000 C 
ATOM     18  H   UNL     1       8.373  -0.889  -1.290  0.00  0.00    +0.000 HD
ATOM     19  H   UNL     1       7.199  -1.642  -2.389  0.00  0.00    +0.000 HD
BRANCH  17  20
ATOM     20  O   UNL     1       8.952  -2.666  -2.133  0.00  0.00    +0.000 OA
ATOM     21  H   UNL     1       9.161  -2.961  -3.035  0.00  0.00    +0.000 HD
ENDBRANCH  17  20
ENDBRANCH  14  17
ENDBRANCH   1  14
TORSDOF 6
ENDMDL
MODEL 4
REMARK VINA RESULT:    -4.018      2.871      3.168
REMARK INTER + INTRA:          -5.231
REMARK INTER:                  -5.184
REMARK INTRA:                  -0.046
REMARK UNBOUND:                -0.039
REMARK  Name = 8103
REMARK  6 active torsions:
REMARK  status: ('A' for Active; 'I' for Inactive)
REMARK    1  A    between atoms: O_1  and  C_6
REMARK    2  A    between atoms: C_2  and  C_3
REMARK    3  A    between atoms: C_2  and  C_4
REMARK    4  A    between atoms: C_3  and  C_5
REMARK    5  A    between atoms: C_4  and  C_6
REMARK    6  A    between atoms: C_5  and  C_7
REMARK                            x       y       z     vdW  Elec       q    Type
REMARK                         _______ _______ _______ _____ _____    ______ ____
ROOT
ATOM      1  C   UNL     1       8.496  -0.946  -4.803  0.00  0.00    +0.000 C 
ATOM      2  H   UNL     1       8.697   0.118  -4.982  0.00  0.00    +0.000 HD
ATOM      3  H   UNL     1       8.671  -1.464  -5.754  0.00  0.00    +0.000 HD
ENDROOT
BRANCH   1   4
ATOM      4  C   UNL     1       7.027  -1.113  -4.405  0.00  0.00    +0.000 C 
ATOM      5  H   UNL     1       6.710  -2.141  -4.620  0.00  0.00    +0.000 HD
ATOM      6  H   UNL     1       6.936  -0.974  -3.320  0.00  0.00    +0.000 HD
BRANCH   4   7
ATOM      7  C   UNL     1       6.089  -0.139  -5.118  0.00  0.00    +0.000 C 
ATOM      8  H   UNL     1       6.675   0.577  -5.707  0.00  0.00    +0.000 HD
ATOM      9  H   UNL     1       5.446  -0.687  -5.817  0.00  0.00    +0.000 HD
BRANCH   7  10
ATOM     10  C   UNL     1       5.223   0.624  -4.127  0.00  0.00    +0.000 C 
ATOM     11  H   UNL     1       4.353   0.023  -3.844  0.00  0.00    +0.000 HD
ATOM     12  H   UNL     1       5.783   0.859  -3.217  0.00  0.00    +0.000 HD
ATOM     13  H   UNL     1       4.862   1.561  -4.562  0.00  0.00    +0.000 HD
ENDBRANCH   7  10
ENDBRANCH   4   7
ENDBRANCH   1   4
BRANCH   1  14
ATOM     14  C   UNL     1       9.474  -1.476  -3.756  0.00  0.00    +0.000 C 
ATOM     15  H   UNL     1       9.168  -2.478  -3.429  0.00  0.00    +0.000 HD
ATOM     16  H   UNL     1       9.446  -0.846  -2.858  0.00  0.00    +0.000 HD
BRANCH  14  17
ATOM     17  C   UNL     1      10.897  -1.525  -4.294  0.00  0.00    +0.000 C 
ATOM     18  H   UNL     1      11.635  -1.462  -3.489  0.00  0.00    +0.000 HD
ATOM     19  H   UNL     1      11.073  -2.449  -4.855  0.00  0.00    +0.000 HD
BRANCH  17  20
ATOM     20  O   UNL     1      11.093  -0.428  -5.176  0.00  0.00    +0.000 OA
ATOM     21  H   UNL     1      11.152  -0.783  -6.078  0.00  0.00    +0.000 HD
ENDBRANCH  17  20
ENDBRANCH  14  17
ENDBRANCH   1  14
TORSDOF 6
ENDMDL
MODEL 5
REMARK VINA RESULT:    -3.824     14.877     15.483
REMARK INTER + INTRA:          -4.980
REMARK INTER:                  -4.908
REMARK INTRA:                  -0.072
REMARK UNBOUND:                -0.039
REMARK  Name = 8103
REMARK  6 active torsions:
REMARK  status: ('A' for Active; 'I' for Inactive)
REMARK    1  A    between atoms: O_1  and  C_6
REMARK    2  A    between atoms: C_2  and  C_3
REMARK    3  A    between atoms: C_2  and  C_4
REMARK    4  A    between atoms: C_3  and  C_5
REMARK    5  A    between atoms: C_4  and  C_6
REMARK    6  A    between atoms: C_5  and  C_7
REMARK                            x       y       z     vdW  Elec       q    Type
REMARK                         _______ _______ _______ _____ _____    ______ ____
ROOT
ATOM      1  C   UNL     1      -1.177 -13.673  -9.491  0.00  0.00    +0.000 C 
ATOM      2  H   UNL     1      -0.723 -14.602  -9.124  0.00  0.00    +0.000 HD
ATOM      3  H   UNL     1      -2.238 -13.710  -9.217  0.00  0.00    +0.000 HD
ENDROOT
BRANCH   1   4
ATOM      4  C   UNL     1      -1.056 -13.631 -11.018  0.00  0.00    +0.000 C 
ATOM      5  H   UNL     1      -1.038 -14.656 -11.406  0.00  0.00    +0.000 HD
ATOM      6  H   UNL     1      -1.953 -13.152 -11.431  0.00  0.00    +0.000 HD
BRANCH   4   7
ATOM      7  C   UNL     1       0.186 -12.886 -11.509  0.00  0.00    +0.000 C 
ATOM      8  H   UNL     1       0.040 -11.805 -11.397  0.00  0.00    +0.000 HD
ATOM      9  H   UNL     1       1.051 -13.163 -10.896  0.00  0.00    +0.000 HD
BRANCH   7  10
ATOM     10  C   UNL     1       0.480 -13.201 -12.968  0.00  0.00    +0.000 C 
ATOM     11  H   UNL     1       1.022 -14.147 -13.050  0.00  0.00    +0.000 HD
ATOM     12  H   UNL     1      -0.447 -13.289 -13.544  0.00  0.00    +0.000 HD
ATOM     13  H   UNL     1       1.094 -12.416 -13.422  0.00  0.00    +0.000 HD
ENDBRANCH   7  10
ENDBRANCH   4   7
ENDBRANCH   1   4
BRANCH   1  14
ATOM     14  C   UNL     1      -0.520 -12.482  -8.797  0.00  0.00    +0.000 C 
ATOM     15  H   UNL     1      -0.900 -11.544  -9.221  0.00  0.00    +0.000 HD
ATOM     16  H   UNL     1       0.561 -12.480  -8.986  0.00  0.00    +0.000 HD
BRANCH  14  17
ATOM     17  C   UNL     1      -0.769 -12.503  -7.296  0.00  0.00    +0.000 C 
ATOM     18  H   UNL     1      -1.793 -12.204  -7.053  0.00  0.00    +0.000 HD
ATOM     19  H   UNL     1      -0.592 -13.501  -6.882  0.00  0.00    +0.000 HD
BRANCH  17  20
ATOM     20  O   UNL     1       0.128 -11.597  -6.668  0.00  0.00    +0.000 OA
ATOM     21  H   UNL     1      -0.310 -10.730  -6.628  0.00  0.00    +0.000 HD
ENDBRANCH  17  20
ENDBRANCH  14  17
ENDBRANCH   1  14
TORSDOF 6
ENDMDL
MODEL 6
REMARK VINA RESULT:    -3.773      2.004      2.546
REMARK INTER + INTRA:          -4.914
REMARK INTER:                  -4.690
REMARK INTRA:                  -0.225
REMARK UNBOUND:                -0.039
REMARK  Name = 8103
REMARK  6 active torsions:
REMARK  status: ('A' for Active; 'I' for Inactive)
REMARK    1  A    between atoms: O_1  and  C_6
REMARK    2  A    between atoms: C_2  and  C_3
REMARK    3  A    between atoms: C_2  and  C_4
REMARK    4  A    between atoms: C_3  and  C_5
REMARK    5  A    between atoms: C_4  and  C_6
REMARK    6  A    between atoms: C_5  and  C_7
REMARK                            x       y       z     vdW  Elec       q    Type
REMARK                         _______ _______ _______ _____ _____    ______ ____
ROOT
ATOM      1  C   UNL     1       6.495  -1.530  -3.823  0.00  0.00    +0.000 C 
ATOM      2  H   UNL     1       5.838  -2.216  -4.370  0.00  0.00    +0.000 HD
ATOM      3  H   UNL     1       7.160  -2.151  -3.210  0.00  0.00    +0.000 HD
ENDROOT
BRANCH   1   4
ATOM      4  C   UNL     1       5.642  -0.651  -2.903  0.00  0.00    +0.000 C 
ATOM      5  H   UNL     1       4.583  -0.889  -3.059  0.00  0.00    +0.000 HD
ATOM      6  H   UNL     1       5.873  -0.901  -1.860  0.00  0.00    +0.000 HD
BRANCH   4   7
ATOM      7  C   UNL     1       5.857   0.847  -3.123  0.00  0.00    +0.000 C 
ATOM      8  H   UNL     1       6.492   1.006  -4.002  0.00  0.00    +0.000 HD
ATOM      9  H   UNL     1       4.896   1.335  -3.323  0.00  0.00    +0.000 HD
BRANCH   7  10
ATOM     10  C   UNL     1       6.510   1.496  -1.912  0.00  0.00    +0.000 C 
ATOM     11  H   UNL     1       6.854   2.504  -2.163  0.00  0.00    +0.000 HD
ATOM     12  H   UNL     1       5.803   1.576  -1.080  0.00  0.00    +0.000 HD
ATOM     13  H   UNL     1       7.375   0.916  -1.574  0.00  0.00    +0.000 HD
ENDBRANCH   7  10
ENDBRANCH   4   7
ENDBRANCH   1   4
BRANCH   1  14
ATOM     14  C   UNL     1       7.333  -0.732  -4.819  0.00  0.00    +0.000 C 
ATOM     15  H   UNL     1       7.112   0.339  -4.724  0.00  0.00    +0.000 HD
ATOM     16  H   UNL     1       7.062  -1.004  -5.847  0.00  0.00    +0.000 HD
BRANCH  14  17
ATOM     17  C   UNL     1       8.823  -0.967  -4.612  0.00  0.00    +0.000 C 
ATOM     18  H   UNL     1       9.045  -2.026  -4.446  0.00  0.00    +0.000 HD
ATOM     19  H   UNL     1       9.400  -0.622  -5.476  0.00  0.00    +0.000 HD
BRANCH  17  20
ATOM     20  O   UNL     1       9.250  -0.232  -3.473  0.00  0.00    +0.000 OA
ATOM     21  H   UNL     1       8.762  -0.571  -2.704  0.00  0.00    +0.000 HD
ENDBRANCH  17  20
ENDBRANCH  14  17
ENDBRANCH   1  14
TORSDOF 6
ENDMDL
MODEL 7
REMARK VINA RESULT:    -3.731      2.156      2.324
REMARK INTER + INTRA:          -4.860
REMARK INTER:                  -4.664
REMARK INTRA:                  -0.197
REMARK UNBOUND:                -0.039
REMARK  Name = 8103
REMARK  6 active torsions:
REMARK  status: ('A' for Active; 'I' for Inactive)
REMARK    1  A    between atoms: O_1  and  C_6
REMARK    2  A    between atoms: C_2  and  C_3
REMARK    3  A    between atoms: C_2  and  C_4
REMARK    4  A    between atoms: C_3  and  C_5
REMARK    5  A    between atoms: C_4  and  C_6
REMARK    6  A    between atoms: C_5  and  C_7
REMARK                            x       y       z     vdW  Elec       q    Type
REMARK                         _______ _______ _______ _____ _____    ______ ____
ROOT
ATOM      1  C   UNL     1       7.814   0.139  -2.423  0.00  0.00    +0.000 C 
ATOM      2  H   UNL     1       7.662  -0.143  -1.373  0.00  0.00    +0.000 HD
ATOM      3  H   UNL     1       8.676   0.815  -2.447  0.00  0.00    +0.000 HD
ENDROOT
BRANCH   1   4
ATOM      4  C   UNL     1       6.575   0.890  -2.919  0.00  0.00    +0.000 C 
ATOM      5  H   UNL     1       6.111   1.416  -2.076  0.00  0.00    +0.000 HD
ATOM      6  H   UNL     1       6.890   1.658  -3.637  0.00  0.00    +0.000 HD
BRANCH   4   7
ATOM      7  C   UNL     1       5.536  -0.019  -3.577  0.00  0.00    +0.000 C 
ATOM      8  H   UNL     1       5.941  -1.032  -3.681  0.00  0.00    +0.000 HD
ATOM      9  H   UNL     1       4.647  -0.088  -2.940  0.00  0.00    +0.000 HD
BRANCH   7  10
ATOM     10  C   UNL     1       5.135   0.500  -4.949  0.00  0.00    +0.000 C 
ATOM     11  H   UNL     1       6.008   0.548  -5.606  0.00  0.00    +0.000 HD
ATOM     12  H   UNL     1       4.394  -0.158  -5.416  0.00  0.00    +0.000 HD
ATOM     13  H   UNL     1       4.706   1.505  -4.879  0.00  0.00    +0.000 HD
ENDBRANCH   7  10
ENDBRANCH   4   7
ENDBRANCH   1   4
BRANCH   1  14
ATOM     14  C   UNL     1       8.134  -1.111  -3.240  0.00  0.00    +0.000 C 
ATOM     15  H   UNL     1       7.268  -1.392  -3.852  0.00  0.00    +0.000 HD
ATOM     16  H   UNL     1       8.320  -1.963  -2.573  0.00  0.00    +0.000 HD
BRANCH  14  17
ATOM     17  C   UNL     1       9.346  -0.898  -4.135  0.00  0.00    +0.000 C 
ATOM     18  H   UNL     1      10.004  -0.116  -3.744  0.00  0.00    +0.000 HD
ATOM     19  H   UNL     1       9.927  -1.821  -4.238  0.00  0.00    +0.000 HD
BRANCH  17  20
ATOM     20  O   UNL     1       8.901  -0.510  -5.428  0.00  0.00    +0.000 OA
ATOM     21  H   UNL     1       9.026  -1.268  -6.022  0.00  0.00    +0.000 HD
ENDBRANCH  17  20
ENDBRANCH  14  17
ENDBRANCH   1  14
TORSDOF 6
ENDMDL
MODEL 8
REMARK VINA RESULT:    -3.578      3.556      4.820
REMARK INTER + INTRA:          -4.663
REMARK INTER:                  -4.630
REMARK INTRA:                  -0.033
REMARK UNBOUND:                -0.039
REMARK  Name = 8103
REMARK  6 active torsions:
REMARK  status: ('A' for Active; 'I' for Inactive)
REMARK    1  A    between atoms: O_1  and  C_6
REMARK    2  A    between atoms: C_2  and  C_3
REMARK    3  A    between atoms: C_2  and  C_4
REMARK    4  A    between atoms: C_3  and  C_5
REMARK    5  A    between atoms: C_4  and  C_6
REMARK    6  A    between atoms: C_5  and  C_7
REMARK                            x       y       z     vdW  Elec       q    Type
REMARK                         _______ _______ _______ _____ _____    ______ ____
ROOT
ATOM      1  C   UNL     1       8.114  -0.766  -4.786  0.00  0.00    +0.000 C 
ATOM      2  H   UNL     1       7.931  -1.706  -5.322  0.00  0.00    +0.000 HD
ATOM      3  H   UNL     1       8.404  -0.025  -5.541  0.00  0.00    +0.000 HD
ENDROOT
BRANCH   1   4
ATOM      4  C   UNL     1       9.278  -0.969  -3.811  0.00  0.00    +0.000 C 
ATOM      5  H   UNL     1       9.724   0.004  -3.577  0.00  0.00    +0.000 HD
ATOM      6  H   UNL     1       8.885  -1.373  -2.870  0.00  0.00    +0.000 HD
BRANCH   4   7
ATOM      7  C   UNL     1      10.363  -1.903  -4.347  0.00  0.00    +0.000 C 
ATOM      8  H   UNL     1      10.439  -2.791  -3.707  0.00  0.00    +0.000 HD
ATOM      9  H   UNL     1      10.093  -2.249  -5.352  0.00  0.00    +0.000 HD
BRANCH   7  10
ATOM     10  C   UNL     1      11.716  -1.210  -4.398  0.00  0.00    +0.000 C 
ATOM     11  H   UNL     1      12.511  -1.942  -4.570  0.00  0.00    +0.000 HD
ATOM     12  H   UNL     1      11.750  -0.475  -5.209  0.00  0.00    +0.000 HD
ATOM     13  H   UNL     1      11.928  -0.693  -3.456  0.00  0.00    +0.000 HD
ENDBRANCH   7  10
ENDBRANCH   4   7
ENDBRANCH   1   4
BRANCH   1  14
ATOM     14  C   UNL     1       6.824  -0.312  -4.107  0.00  0.00    +0.000 C 
ATOM     15  H   UNL     1       7.022   0.558  -3.468  0.00  0.00    +0.000 HD
ATOM     16  H   UNL     1       6.451  -1.097  -3.436  0.00  0.00    +0.000 HD
BRANCH  14  17
ATOM     17  C   UNL     1       5.747   0.034  -5.125  0.00  0.00    +0.000 C 
ATOM     18  H   UNL     1       6.148   0.633  -5.948  0.00  0.00    +0.000 HD
ATOM     19  H   UNL     1       5.296  -0.872  -5.544  0.00  0.00    +0.000 HD
BRANCH  17  20
ATOM     20  O   UNL     1       4.725   0.779  -4.479  0.00  0.00    +0.000 OA
ATOM     21  H   UNL     1       4.201   0.158  -3.946  0.00  0.00    +0.000 HD
ENDBRANCH  17  20
ENDBRANCH  14  17
ENDBRANCH   1  14
TORSDOF 6
ENDMDL
MODEL 9
REMARK VINA RESULT:    -3.528     25.720     26.229
REMARK INTER + INTRA:          -4.598
REMARK INTER:                  -4.468
REMARK INTRA:                  -0.131
REMARK UNBOUND:                -0.039
REMARK  Name = 8103
REMARK  6 active torsions:
REMARK  status: ('A' for Active; 'I' for Inactive)
REMARK    1  A    between atoms: O_1  and  C_6
REMARK    2  A    between atoms: C_2  and  C_3
REMARK    3  A    between atoms: C_2  and  C_4
REMARK    4  A    between atoms: C_3  and  C_5
REMARK    5  A    between atoms: C_4  and  C_6
REMARK    6  A    between atoms: C_5  and  C_7
REMARK                            x       y       z     vdW  Elec       q    Type
REMARK                         _______ _______ _______ _____ _____    ______ ____
ROOT
ATOM      1  C   UNL     1      -1.286  -9.095  21.105  0.00  0.00    +0.000 C 
ATOM      2  H   UNL     1      -2.260  -8.869  21.555  0.00  0.00    +0.000 HD
ATOM      3  H   UNL     1      -0.729  -9.689  21.839  0.00  0.00    +0.000 HD
ENDROOT
BRANCH   1   4
ATOM      4  C   UNL     1      -0.539  -7.782  20.854  0.00  0.00    +0.000 C 
ATOM      5  H   UNL     1       0.126  -7.578  21.701  0.00  0.00    +0.000 HD
ATOM      6  H   UNL     1       0.101  -7.902  19.971  0.00  0.00    +0.000 HD
BRANCH   4   7
ATOM      7  C   UNL     1      -1.468  -6.585  20.645  0.00  0.00    +0.000 C 
ATOM      8  H   UNL     1      -0.924  -5.654  20.843  0.00  0.00    +0.000 HD
ATOM      9  H   UNL     1      -1.801  -6.551  19.601  0.00  0.00    +0.000 HD
BRANCH   7  10
ATOM     10  C   UNL     1      -2.680  -6.658  21.561  0.00  0.00    +0.000 C 
ATOM     11  H   UNL     1      -2.871  -5.681  22.016  0.00  0.00    +0.000 HD
ATOM     12  H   UNL     1      -3.575  -6.953  21.003  0.00  0.00    +0.000 HD
ATOM     13  H   UNL     1      -2.521  -7.383  22.365  0.00  0.00    +0.000 HD
ENDBRANCH   7  10
ENDBRANCH   4   7
ENDBRANCH   1   4
BRANCH   1  14
ATOM     14  C   UNL     1      -1.493  -9.927  19.841  0.00  0.00    +0.000 C 
ATOM     15  H   UNL     1      -0.705 -10.685  19.757  0.00  0.00    +0.000 HD
ATOM     16  H   UNL     1      -1.397  -9.294  18.949  0.00  0.00    +0.000 HD
BRANCH  14  17
ATOM     17  C   UNL     1      -2.857 -10.603  19.835  0.00  0.00    +0.000 C 
ATOM     18  H   UNL     1      -2.821 -11.578  19.339  0.00  0.00    +0.000 HD
ATOM     19  H   UNL     1      -3.230 -10.746  20.854  0.00  0.00    +0.000 HD
BRANCH  17  20
ATOM     20  O   UNL     1      -3.778  -9.775  19.138  0.00  0.00    +0.000 OA
ATOM     21  H   UNL     1      -3.571  -8.853  19.361  0.00  0.00    +0.000 HD
ENDBRANCH  17  20
ENDBRANCH  14  17
ENDBRANCH   1  14
TORSDOF 6
ENDMDL
MODEL 10
REMARK VINA RESULT:    -3.517     15.419     16.169
REMARK INTER + INTRA:          -4.584
REMARK INTER:                  -4.546
REMARK INTRA:                  -0.039
REMARK UNBOUND:                -0.039
REMARK  Name = 8103
REMARK  6 active torsions:
REMARK  status: ('A' for Active; 'I' for Inactive)
REMARK    1  A    between atoms: O_1  and  C_6
REMARK    2  A    between atoms: C_2  and  C_3
REMARK    3  A    between atoms: C_2  and  C_4
REMARK    4  A    between atoms: C_3  and  C_5
REMARK    5  A    between atoms: C_4  and  C_6
REMARK    6  A    between atoms: C_5  and  C_7
REMARK                            x       y       z     vdW  Elec       q    Type
REMARK                         _______ _______ _______ _____ _____    ______ ____
ROOT
ATOM      1  C   UNL     1      -0.639 -12.682  -9.906  0.00  0.00    +0.000 C 
ATOM      2  H   UNL     1       0.441 -12.841  -9.790  0.00  0.00    +0.000 HD
ATOM      3  H   UNL     1      -0.761 -11.757 -10.482  0.00  0.00    +0.000 HD
ENDROOT
BRANCH   1   4
ATOM      4  C   UNL     1      -1.265 -12.496  -8.521  0.00  0.00    +0.000 C 
ATOM      5  H   UNL     1      -2.106 -11.797  -8.598  0.00  0.00    +0.000 HD
ATOM      6  H   UNL     1      -1.681 -13.456  -8.189  0.00  0.00    +0.000 HD
BRANCH   4   7
ATOM      7  C   UNL     1      -0.279 -11.982  -7.472  0.00  0.00    +0.000 C 
ATOM      8  H   UNL     1       0.744 -12.252  -7.760  0.00  0.00    +0.000 HD
ATOM      9  H   UNL     1      -0.325 -10.888  -7.423  0.00  0.00    +0.000 HD
BRANCH   7  10
ATOM     10  C   UNL     1      -0.579 -12.562  -6.098  0.00  0.00    +0.000 C 
ATOM     11  H   UNL     1      -0.802 -13.630  -6.178  0.00  0.00    +0.000 HD
ATOM     12  H   UNL     1       0.278 -12.444  -5.427  0.00  0.00    +0.000 HD
ATOM     13  H   UNL     1      -1.443 -12.067  -5.643  0.00  0.00    +0.000 HD
ENDBRANCH   7  10
ENDBRANCH   4   7
ENDBRANCH   1   4
BRANCH   1  14
ATOM     14  C   UNL     1      -1.238 -13.846 -10.693  0.00  0.00    +0.000 C 
ATOM     15  H   UNL     1      -2.334 -13.803 -10.651  0.00  0.00    +0.000 HD
ATOM     16  H   UNL     1      -0.957 -14.801 -10.231  0.00  0.00    +0.000 HD
BRANCH  14  17
ATOM     17  C   UNL     1      -0.780 -13.833 -12.145  0.00  0.00    +0.000 C 
ATOM     18  H   UNL     1      -0.422 -12.844 -12.446  0.00  0.00    +0.000 HD
ATOM     19  H   UNL     1       0.024 -14.559 -12.310  0.00  0.00    +0.000 HD
BRANCH  17  20
ATOM     20  O   UNL     1      -1.876 -14.190 -12.976  0.00  0.00    +0.000 OA
ATOM     21  H   UNL     1      -1.762 -15.121 -13.230  0.00  0.00    +0.000 HD
ENDBRANCH  17  20
ENDBRANCH  14  17
ENDBRANCH   1  14
TORSDOF 6
ENDMDL
