MODEL 1
REMARK VINA RESULT:    -4.705      0.000      0.000
REMARK INTER + INTRA:          -6.531
REMARK INTER:                  -6.237
REMARK INTRA:                  -0.294
REMARK UNBOUND:                -0.176
REMARK  Name = 18827
REMARK  7 active torsions:
REMARK  status: ('A' for Active; 'I' for Inactive)
REMARK    1  A    between atoms: O_1  and  C_6
REMARK    2  A    between atoms: C_2  and  C_3
REMARK    3  A    between atoms: C_2  and  C_4
REMARK    4  A    between atoms: C_3  and  C_5
REMARK    5  A    between atoms: C_4  and  C_6
REMARK    6  A    between atoms: C_5  and  C_7
REMARK    7  A    between atoms: C_6  and  C_8
REMARK                            x       y       z     vdW  Elec       q    Type
REMARK                         _______ _______ _______ _____ _____    ______ ____
ROOT
ATOM      1  C   UNL     1       5.554  -1.103  -2.421  0.00  0.00    +0.000 C 
ATOM      2  H   UNL     1       5.204  -0.732  -1.450  0.00  0.00    +0.000 HD
ATOM      3  H   UNL     1       4.683  -1.516  -2.944  0.00  0.00    +0.000 HD
ENDROOT
BRANCH   1   4
ATOM      4  C   UNL     1       6.132   0.059  -3.233  0.00  0.00    +0.000 C 
ATOM      5  H   UNL     1       7.008  -0.284  -3.798  0.00  0.00    +0.000 HD
ATOM      6  H   UNL     1       6.477   0.846  -2.552  0.00  0.00    +0.000 HD
BRANCH   4   7
ATOM      7  C   UNL     1       5.096   0.632  -4.201  0.00  0.00    +0.000 C 
ATOM      8  H   UNL     1       4.096   0.276  -3.929  0.00  0.00    +0.000 HD
ATOM      9  H   UNL     1       5.083   1.726  -4.127  0.00  0.00    +0.000 HD
BRANCH   7  10
ATOM     10  C   UNL     1       5.396   0.234  -5.637  0.00  0.00    +0.000 C 
ATOM     11  H   UNL     1       4.854   0.869  -6.343  0.00  0.00    +0.000 HD
ATOM     12  H   UNL     1       6.467   0.317  -5.851  0.00  0.00    +0.000 HD
ATOM     13  H   UNL     1       5.095  -0.804  -5.813  0.00  0.00    +0.000 HD
ENDBRANCH   7  10
ENDBRANCH   4   7
ENDBRANCH   1   4
BRANCH   1  14
ATOM     14  C   UNL     1       6.595  -2.206  -2.215  0.00  0.00    +0.000 C 
ATOM     15  H   UNL     1       6.647  -2.806  -3.134  0.00  0.00    +0.000 HD
ATOM     16  H   UNL     1       6.257  -2.876  -1.414  0.00  0.00    +0.000 HD
BRANCH  14  17
ATOM     17  C   UNL     1       7.997  -1.680  -1.873  0.00  0.00    +0.000 C 
ATOM     18  H   UNL     1       8.215  -0.822  -2.521  0.00  0.00    +0.000 HD
BRANCH  17  19
ATOM     19  C   UNL     1       8.137  -1.272  -0.429  0.00  0.00    +0.000 C 
ATOM     20  C   UNL     1       8.431  -0.049   0.029  0.00  0.00    +0.000 C 
ATOM     21  H   UNL     1       7.994  -2.062   0.306  0.00  0.00    +0.000 HD
ATOM     22  H   UNL     1       8.514   0.135   1.094  0.00  0.00    +0.000 HD
ATOM     23  H   UNL     1       8.592   0.782  -0.648  0.00  0.00    +0.000 HD
ENDBRANCH  17  19
BRANCH  17  24
ATOM     24  O   UNL     1       8.945  -2.696  -2.202  0.00  0.00    +0.000 OA
ATOM     25  H   UNL     1       8.465  -3.540  -2.257  0.00  0.00    +0.000 HD
ENDBRANCH  17  24
ENDBRANCH  14  17
ENDBRANCH   1  14
TORSDOF 7
ENDMDL
MODEL 2
REMARK VINA RESULT:    -4.702      1.991      2.665
REMARK INTER + INTRA:          -6.527
REMARK INTER:                  -6.120
REMARK INTRA:                  -0.407
REMARK UNBOUND:                -0.176
REMARK  Name = 18827
REMARK  7 active torsions:
REMARK  status: ('A' for Active; 'I' for Inactive)
REMARK    1  A    between atoms: O_1  and  C_6
REMARK    2  A    between atoms: C_2  and  C_3
REMARK    3  A    between atoms: C_2  and  C_4
REMARK    4  A    between atoms: C_3  and  C_5
REMARK    5  A    between atoms: C_4  and  C_6
REMARK    6  A    between atoms: C_5  and  C_7
REMARK    7  A    between atoms: C_6  and  C_8
REMARK                            x       y       z     vdW  Elec       q    Type
REMARK                         _______ _______ _______ _____ _____    ______ ____
ROOT
ATOM      1  C   UNL     1       7.004  -1.174  -4.571  0.00  0.00    +0.000 C 
ATOM      2  H   UNL     1       7.018  -1.340  -3.486  0.00  0.00    +0.000 HD
ATOM      3  H   UNL     1       6.705  -2.119  -5.040  0.00  0.00    +0.000 HD
ENDROOT
BRANCH   1   4
ATOM      4  C   UNL     1       5.978  -0.089  -4.908  0.00  0.00    +0.000 C 
ATOM      5  H   UNL     1       5.299  -0.452  -5.690  0.00  0.00    +0.000 HD
ATOM      6  H   UNL     1       6.494   0.790  -5.312  0.00  0.00    +0.000 HD
BRANCH   4   7
ATOM      7  C   UNL     1       5.166   0.311  -3.675  0.00  0.00    +0.000 C 
ATOM      8  H   UNL     1       5.434   1.327  -3.366  0.00  0.00    +0.000 HD
ATOM      9  H   UNL     1       4.097   0.316  -3.920  0.00  0.00    +0.000 HD
BRANCH   7  10
ATOM     10  C   UNL     1       5.405  -0.645  -2.517  0.00  0.00    +0.000 C 
ATOM     11  H   UNL     1       5.957  -1.530  -2.846  0.00  0.00    +0.000 HD
ATOM     12  H   UNL     1       5.977  -0.159  -1.720  0.00  0.00    +0.000 HD
ATOM     13  H   UNL     1       4.450  -0.976  -2.096  0.00  0.00    +0.000 HD
ENDBRANCH   7  10
ENDBRANCH   4   7
ENDBRANCH   1   4
BRANCH   1  14
ATOM     14  C   UNL     1       8.403  -0.784  -5.058  0.00  0.00    +0.000 C 
ATOM     15  H   UNL     1       8.435   0.308  -5.172  0.00  0.00    +0.000 HD
ATOM     16  H   UNL     1       8.570  -1.216  -6.053  0.00  0.00    +0.000 HD
BRANCH  14  17
ATOM     17  C   UNL     1       9.533  -1.230  -4.119  0.00  0.00    +0.000 C 
ATOM     18  H   UNL     1      10.101  -0.343  -3.811  0.00  0.00    +0.000 HD
BRANCH  17  19
ATOM     19  C   UNL     1       9.033  -1.960  -2.900  0.00  0.00    +0.000 C 
ATOM     20  C   UNL     1       9.097  -1.532  -1.632  0.00  0.00    +0.000 C 
ATOM     21  H   UNL     1       8.587  -2.936  -3.077  0.00  0.00    +0.000 HD
ATOM     22  H   UNL     1       8.710  -2.143  -0.825  0.00  0.00    +0.000 HD
ATOM     23  H   UNL     1       9.534  -0.572  -1.384  0.00  0.00    +0.000 HD
ENDBRANCH  17  19
BRANCH  17  24
ATOM     24  O   UNL     1      10.430  -2.054  -4.865  0.00  0.00    +0.000 OA
ATOM     25  H   UNL     1      10.978  -1.470  -5.415  0.00  0.00    +0.000 HD
ENDBRANCH  17  24
ENDBRANCH  14  17
ENDBRANCH   1  14
TORSDOF 7
ENDMDL
MODEL 3
REMARK VINA RESULT:    -4.699      1.171      2.266
REMARK INTER + INTRA:          -6.524
REMARK INTER:                  -6.225
REMARK INTRA:                  -0.298
REMARK UNBOUND:                -0.176
REMARK  Name = 18827
REMARK  7 active torsions:
REMARK  status: ('A' for Active; 'I' for Inactive)
REMARK    1  A    between atoms: O_1  and  C_6
REMARK    2  A    between atoms: C_2  and  C_3
REMARK    3  A    between atoms: C_2  and  C_4
REMARK    4  A    between atoms: C_3  and  C_5
REMARK    5  A    between atoms: C_4  and  C_6
REMARK    6  A    between atoms: C_5  and  C_7
REMARK    7  A    between atoms: C_6  and  C_8
REMARK                            x       y       z     vdW  Elec       q    Type
REMARK                         _______ _______ _______ _____ _____    ______ ____
ROOT
ATOM      1  C   UNL     1       7.410   0.280  -3.417  0.00  0.00    +0.000 C 
ATOM      2  H   UNL     1       7.601   1.356  -3.511  0.00  0.00    +0.000 HD
ATOM      3  H   UNL     1       6.509   0.163  -2.803  0.00  0.00    +0.000 HD
ENDROOT
BRANCH   1   4
ATOM      4  C   UNL     1       7.163  -0.318  -4.805  0.00  0.00    +0.000 C 
ATOM      5  H   UNL     1       7.284  -1.408  -4.765  0.00  0.00    +0.000 HD
ATOM      6  H   UNL     1       7.913   0.064  -5.507  0.00  0.00    +0.000 HD
BRANCH   4   7
ATOM      7  C   UNL     1       5.761   0.019  -5.314  0.00  0.00    +0.000 C 
ATOM      8  H   UNL     1       5.827   0.740  -6.137  0.00  0.00    +0.000 HD
ATOM      9  H   UNL     1       5.282  -0.884  -5.710  0.00  0.00    +0.000 HD
BRANCH   7  10
ATOM     10  C   UNL     1       4.892   0.598  -4.210  0.00  0.00    +0.000 C 
ATOM     11  H   UNL     1       5.168   1.635  -3.995  0.00  0.00    +0.000 HD
ATOM     12  H   UNL     1       3.834   0.575  -4.490  0.00  0.00    +0.000 HD
ATOM     13  H   UNL     1       5.012   0.017  -3.289  0.00  0.00    +0.000 HD
ENDBRANCH   7  10
ENDBRANCH   4   7
ENDBRANCH   1   4
BRANCH   1  14
ATOM     14  C   UNL     1       8.592  -0.403  -2.723  0.00  0.00    +0.000 C 
ATOM     15  H   UNL     1       9.125   0.353  -2.131  0.00  0.00    +0.000 HD
ATOM     16  H   UNL     1       9.294  -0.769  -3.483  0.00  0.00    +0.000 HD
BRANCH  14  17
ATOM     17  C   UNL     1       8.185  -1.568  -1.809  0.00  0.00    +0.000 C 
ATOM     18  H   UNL     1       8.479  -1.324  -0.781  0.00  0.00    +0.000 HD
BRANCH  17  19
ATOM     19  C   UNL     1       6.708  -1.866  -1.856  0.00  0.00    +0.000 C 
ATOM     20  C   UNL     1       6.121  -2.895  -2.481  0.00  0.00    +0.000 C 
ATOM     21  H   UNL     1       6.063  -1.161  -1.336  0.00  0.00    +0.000 HD
ATOM     22  H   UNL     1       5.045  -3.012  -2.456  0.00  0.00    +0.000 HD
ATOM     23  H   UNL     1       6.705  -3.630  -3.023  0.00  0.00    +0.000 HD
ENDBRANCH  17  19
BRANCH  17  24
ATOM     24  O   UNL     1       8.941  -2.717  -2.193  0.00  0.00    +0.000 OA
ATOM     25  H   UNL     1       8.428  -3.198  -2.864  0.00  0.00    +0.000 HD
ENDBRANCH  17  24
ENDBRANCH  14  17
ENDBRANCH   1  14
TORSDOF 7
ENDMDL
MODEL 4
REMARK VINA RESULT:    -4.630      8.573      9.260
REMARK INTER + INTRA:          -6.430
REMARK INTER:                  -6.077
REMARK INTRA:                  -0.353
REMARK UNBOUND:                -0.176
REMARK  Name = 18827
REMARK  7 active torsions:
REMARK  status: ('A' for Active; 'I' for Inactive)
REMARK    1  A    between atoms: O_1  and  C_6
REMARK    2  A    between atoms: C_2  and  C_3
REMARK    3  A    between atoms: C_2  and  C_4
REMARK    4  A    between atoms: C_3  and  C_5
REMARK    5  A    between atoms: C_4  and  C_6
REMARK    6  A    between atoms: C_5  and  C_7
REMARK    7  A    between atoms: C_6  and  C_8
REMARK                            x       y       z     vdW  Elec       q    Type
REMARK                         _______ _______ _______ _____ _____    ______ ____
ROOT
ATOM      1  C   UNL     1      11.387   6.666  -3.235  0.00  0.00    +0.000 C 
ATOM      2  H   UNL     1      10.757   6.040  -2.590  0.00  0.00    +0.000 HD
ATOM      3  H   UNL     1      12.371   6.184  -3.292  0.00  0.00    +0.000 HD
ENDROOT
BRANCH   1   4
ATOM      4  C   UNL     1      10.772   6.738  -4.635  0.00  0.00    +0.000 C 
ATOM      5  H   UNL     1      10.540   5.725  -4.989  0.00  0.00    +0.000 HD
ATOM      6  H   UNL     1      11.501   7.164  -5.333  0.00  0.00    +0.000 HD
BRANCH   4   7
ATOM      7  C   UNL     1       9.497   7.582  -4.640  0.00  0.00    +0.000 C 
ATOM      8  H   UNL     1       8.910   7.375  -3.738  0.00  0.00    +0.000 HD
ATOM      9  H   UNL     1       9.757   8.647  -4.621  0.00  0.00    +0.000 HD
BRANCH   7  10
ATOM     10  C   UNL     1       8.647   7.299  -5.868  0.00  0.00    +0.000 C 
ATOM     11  H   UNL     1       8.827   8.042  -6.650  0.00  0.00    +0.000 HD
ATOM     12  H   UNL     1       8.867   6.308  -6.277  0.00  0.00    +0.000 HD
ATOM     13  H   UNL     1       7.583   7.331  -5.607  0.00  0.00    +0.000 HD
ENDBRANCH   7  10
ENDBRANCH   4   7
ENDBRANCH   1   4
BRANCH   1  14
ATOM     14  C   UNL     1      11.538   8.061  -2.623  0.00  0.00    +0.000 C 
ATOM     15  H   UNL     1      10.917   8.759  -3.202  0.00  0.00    +0.000 HD
ATOM     16  H   UNL     1      12.579   8.392  -2.732  0.00  0.00    +0.000 HD
BRANCH  14  17
ATOM     17  C   UNL     1      11.139   8.135  -1.142  0.00  0.00    +0.000 C 
ATOM     18  H   UNL     1      11.251   9.173  -0.802  0.00  0.00    +0.000 HD
BRANCH  17  19
ATOM     19  C   UNL     1       9.729   7.670  -0.888  0.00  0.00    +0.000 C 
ATOM     20  C   UNL     1       9.344   6.727  -0.018  0.00  0.00    +0.000 C 
ATOM     21  H   UNL     1       8.954   8.147  -1.484  0.00  0.00    +0.000 HD
ATOM     22  H   UNL     1       8.298   6.463   0.082  0.00  0.00    +0.000 HD
ATOM     23  H   UNL     1      10.065   6.207   0.603  0.00  0.00    +0.000 HD
ENDBRANCH  17  19
BRANCH  17  24
ATOM     24  O   UNL     1      12.069   7.353  -0.393  0.00  0.00    +0.000 OA
ATOM     25  H   UNL     1      11.893   6.418  -0.588  0.00  0.00    +0.000 HD
ENDBRANCH  17  24
ENDBRANCH  14  17
ENDBRANCH   1  14
TORSDOF 7
ENDMDL
MODEL 5
REMARK VINA RESULT:    -4.549      2.674      3.293
REMARK INTER + INTRA:          -6.321
REMARK INTER:                  -6.184
REMARK INTRA:                  -0.137
REMARK UNBOUND:                -0.176
REMARK  Name = 18827
REMARK  7 active torsions:
REMARK  status: ('A' for Active; 'I' for Inactive)
REMARK    1  A    between atoms: O_1  and  C_6
REMARK    2  A    between atoms: C_2  and  C_3
REMARK    3  A    between atoms: C_2  and  C_4
REMARK    4  A    between atoms: C_3  and  C_5
REMARK    5  A    between atoms: C_4  and  C_6
REMARK    6  A    between atoms: C_5  and  C_7
REMARK    7  A    between atoms: C_6  and  C_8
REMARK                            x       y       z     vdW  Elec       q    Type
REMARK                         _______ _______ _______ _____ _____    ______ ____
ROOT
ATOM      1  C   UNL     1       7.158  -0.777  -4.085  0.00  0.00    +0.000 C 
ATOM      2  H   UNL     1       7.196   0.003  -3.315  0.00  0.00    +0.000 HD
ATOM      3  H   UNL     1       6.858  -1.708  -3.589  0.00  0.00    +0.000 HD
ENDROOT
BRANCH   1   4
ATOM      4  C   UNL     1       6.115  -0.402  -5.141  0.00  0.00    +0.000 C 
ATOM      5  H   UNL     1       5.574  -1.302  -5.462  0.00  0.00    +0.000 HD
ATOM      6  H   UNL     1       6.620   0.003  -6.026  0.00  0.00    +0.000 HD
BRANCH   4   7
ATOM      7  C   UNL     1       5.119   0.624  -4.599  0.00  0.00    +0.000 C 
ATOM      8  H   UNL     1       5.028   1.460  -5.301  0.00  0.00    +0.000 HD
ATOM      9  H   UNL     1       4.127   0.166  -4.507  0.00  0.00    +0.000 HD
BRANCH   7  10
ATOM     10  C   UNL     1       5.550   1.154  -3.241  0.00  0.00    +0.000 C 
ATOM     11  H   UNL     1       6.472   1.737  -3.322  0.00  0.00    +0.000 HD
ATOM     12  H   UNL     1       4.775   1.794  -2.806  0.00  0.00    +0.000 HD
ATOM     13  H   UNL     1       5.732   0.324  -2.551  0.00  0.00    +0.000 HD
ENDBRANCH   7  10
ENDBRANCH   4   7
ENDBRANCH   1   4
BRANCH   1  14
ATOM     14  C   UNL     1       8.543  -0.958  -4.714  0.00  0.00    +0.000 C 
ATOM     15  H   UNL     1       8.862   0.009  -5.125  0.00  0.00    +0.000 HD
ATOM     16  H   UNL     1       8.467  -1.657  -5.557  0.00  0.00    +0.000 HD
BRANCH  14  17
ATOM     17  C   UNL     1       9.607  -1.469  -3.732  0.00  0.00    +0.000 C 
ATOM     18  H   UNL     1       9.218  -2.364  -3.230  0.00  0.00    +0.000 HD
BRANCH  17  19
ATOM     19  C   UNL     1      10.918  -1.793  -4.400  0.00  0.00    +0.000 C 
ATOM     20  C   UNL     1      11.974  -0.978  -4.522  0.00  0.00    +0.000 C 
ATOM     21  H   UNL     1      11.000  -2.787  -4.833  0.00  0.00    +0.000 HD
ATOM     22  H   UNL     1      12.871  -1.312  -5.030  0.00  0.00    +0.000 HD
ATOM     23  H   UNL     1      11.958   0.028  -4.119  0.00  0.00    +0.000 HD
ENDBRANCH  17  19
BRANCH  17  24
ATOM     24  O   UNL     1       9.790  -0.477  -2.721  0.00  0.00    +0.000 OA
ATOM     25  H   UNL     1       8.949  -0.386  -2.242  0.00  0.00    +0.000 HD
ENDBRANCH  17  24
ENDBRANCH  14  17
ENDBRANCH   1  14
TORSDOF 7
ENDMDL
MODEL 6
REMARK VINA RESULT:    -4.538      8.623      9.987
REMARK INTER + INTRA:          -6.305
REMARK INTER:                  -5.964
REMARK INTRA:                  -0.342
REMARK UNBOUND:                -0.176
REMARK  Name = 18827
REMARK  7 active torsions:
REMARK  status: ('A' for Active; 'I' for Inactive)
REMARK    1  A    between atoms: O_1  and  C_6
REMARK    2  A    between atoms: C_2  and  C_3
REMARK    3  A    between atoms: C_2  and  C_4
REMARK    4  A    between atoms: C_3  and  C_5
REMARK    5  A    between atoms: C_4  and  C_6
REMARK    6  A    between atoms: C_5  and  C_7
REMARK    7  A    between atoms: C_6  and  C_8
REMARK                            x       y       z     vdW  Elec       q    Type
REMARK                         _______ _______ _______ _____ _____    ______ ____
ROOT
ATOM      1  C   UNL     1      11.178   6.624  -2.229  0.00  0.00    +0.000 C 
ATOM      2  H   UNL     1      11.546   5.635  -1.930  0.00  0.00    +0.000 HD
ATOM      3  H   UNL     1      10.163   6.487  -2.622  0.00  0.00    +0.000 HD
ENDROOT
BRANCH   1   4
ATOM      4  C   UNL     1      11.133   7.543  -1.006  0.00  0.00    +0.000 C 
ATOM      5  H   UNL     1      11.412   8.563  -1.300  0.00  0.00    +0.000 HD
ATOM      6  H   UNL     1      11.872   7.207  -0.268  0.00  0.00    +0.000 HD
BRANCH   4   7
ATOM      7  C   UNL     1       9.741   7.560  -0.373  0.00  0.00    +0.000 C 
ATOM      8  H   UNL     1       9.807   7.918   0.661  0.00  0.00    +0.000 HD
ATOM      9  H   UNL     1       9.093   8.255  -0.918  0.00  0.00    +0.000 HD
BRANCH   7  10
ATOM     10  C   UNL     1       9.109   6.177  -0.385  0.00  0.00    +0.000 C 
ATOM     11  H   UNL     1       8.092   6.214  -0.786  0.00  0.00    +0.000 HD
ATOM     12  H   UNL     1       9.695   5.483  -0.995  0.00  0.00    +0.000 HD
ATOM     13  H   UNL     1       9.058   5.775   0.633  0.00  0.00    +0.000 HD
ENDBRANCH   7  10
ENDBRANCH   4   7
ENDBRANCH   1   4
BRANCH   1  14
ATOM     14  C   UNL     1      12.074   7.205  -3.327  0.00  0.00    +0.000 C 
ATOM     15  H   UNL     1      12.753   6.413  -3.670  0.00  0.00    +0.000 HD
ATOM     16  H   UNL     1      12.698   8.000  -2.899  0.00  0.00    +0.000 HD
BRANCH  14  17
ATOM     17  C   UNL     1      11.299   7.764  -4.528  0.00  0.00    +0.000 C 
ATOM     18  H   UNL     1      11.793   7.430  -5.449  0.00  0.00    +0.000 HD
BRANCH  17  19
ATOM     19  C   UNL     1       9.853   7.339  -4.547  0.00  0.00    +0.000 C 
ATOM     20  C   UNL     1       9.056   7.268  -5.621  0.00  0.00    +0.000 C 
ATOM     21  H   UNL     1       9.421   7.076  -3.584  0.00  0.00    +0.000 HD
ATOM     22  H   UNL     1       8.025   6.953  -5.521  0.00  0.00    +0.000 HD
ATOM     23  H   UNL     1       9.421   7.521  -6.610  0.00  0.00    +0.000 HD
ENDBRANCH  17  19
BRANCH  17  24
ATOM     24  O   UNL     1      11.403   9.188  -4.499  0.00  0.00    +0.000 OA
ATOM     25  H   UNL     1      10.559   9.553  -4.814  0.00  0.00    +0.000 HD
ENDBRANCH  17  24
ENDBRANCH  14  17
ENDBRANCH   1  14
TORSDOF 7
ENDMDL
MODEL 7
REMARK VINA RESULT:    -4.388      2.627      4.479
REMARK INTER + INTRA:          -6.103
REMARK INTER:                  -5.829
REMARK INTRA:                  -0.274
REMARK UNBOUND:                -0.176
REMARK  Name = 18827
REMARK  7 active torsions:
REMARK  status: ('A' for Active; 'I' for Inactive)
REMARK    1  A    between atoms: O_1  and  C_6
REMARK    2  A    between atoms: C_2  and  C_3
REMARK    3  A    between atoms: C_2  and  C_4
REMARK    4  A    between atoms: C_3  and  C_5
REMARK    5  A    between atoms: C_4  and  C_6
REMARK    6  A    between atoms: C_5  and  C_7
REMARK    7  A    between atoms: C_6  and  C_8
REMARK                            x       y       z     vdW  Elec       q    Type
REMARK                         _______ _______ _______ _____ _____    ______ ____
ROOT
ATOM      1  C   UNL     1       6.672   1.102  -1.265  0.00  0.00    +0.000 C 
ATOM      2  H   UNL     1       6.229   0.172  -0.888  0.00  0.00    +0.000 HD
ATOM      3  H   UNL     1       6.108   1.932  -0.824  0.00  0.00    +0.000 HD
ENDROOT
BRANCH   1   4
ATOM      4  C   UNL     1       8.135   1.186  -0.821  0.00  0.00    +0.000 C 
ATOM      5  H   UNL     1       8.791   1.141  -1.700  0.00  0.00    +0.000 HD
ATOM      6  H   UNL     1       8.377   0.319  -0.194  0.00  0.00    +0.000 HD
BRANCH   4   7
ATOM      7  C   UNL     1       8.409   2.476  -0.048  0.00  0.00    +0.000 C 
ATOM      8  H   UNL     1       8.899   2.242   0.904  0.00  0.00    +0.000 HD
ATOM      9  H   UNL     1       9.093   3.114  -0.619  0.00  0.00    +0.000 HD
BRANCH   7  10
ATOM     10  C   UNL     1       7.125   3.244   0.225  0.00  0.00    +0.000 C 
ATOM     11  H   UNL     1       6.374   3.039  -0.543  0.00  0.00    +0.000 HD
ATOM     12  H   UNL     1       6.705   2.972   1.199  0.00  0.00    +0.000 HD
ATOM     13  H   UNL     1       7.323   4.321   0.230  0.00  0.00    +0.000 HD
ENDBRANCH   7  10
ENDBRANCH   4   7
ENDBRANCH   1   4
BRANCH   1  14
ATOM     14  C   UNL     1       6.552   1.158  -2.791  0.00  0.00    +0.000 C 
ATOM     15  H   UNL     1       7.564   1.119  -3.216  0.00  0.00    +0.000 HD
ATOM     16  H   UNL     1       6.117   2.122  -3.082  0.00  0.00    +0.000 HD
BRANCH  14  17
ATOM     17  C   UNL     1       5.706   0.024  -3.388  0.00  0.00    +0.000 C 
ATOM     18  H   UNL     1       6.180  -0.312  -4.319  0.00  0.00    +0.000 HD
BRANCH  17  19
ATOM     19  C   UNL     1       5.545  -1.147  -2.452  0.00  0.00    +0.000 C 
ATOM     20  C   UNL     1       6.092  -2.361  -2.592  0.00  0.00    +0.000 C 
ATOM     21  H   UNL     1       4.909  -0.980  -1.585  0.00  0.00    +0.000 HD
ATOM     22  H   UNL     1       5.904  -3.137  -1.860  0.00  0.00    +0.000 HD
ATOM     23  H   UNL     1       6.731  -2.596  -3.436  0.00  0.00    +0.000 HD
ENDBRANCH  17  19
BRANCH  17  24
ATOM     24  O   UNL     1       4.432   0.561  -3.744  0.00  0.00    +0.000 OA
ATOM     25  H   UNL     1       3.849   0.475  -2.972  0.00  0.00    +0.000 HD
ENDBRANCH  17  24
ENDBRANCH  14  17
ENDBRANCH   1  14
TORSDOF 7
ENDMDL
MODEL 8
REMARK VINA RESULT:    -4.337      1.995      2.631
REMARK INTER + INTRA:          -6.034
REMARK INTER:                  -5.486
REMARK INTRA:                  -0.548
REMARK UNBOUND:                -0.176
REMARK  Name = 18827
REMARK  7 active torsions:
REMARK  status: ('A' for Active; 'I' for Inactive)
REMARK    1  A    between atoms: O_1  and  C_6
REMARK    2  A    between atoms: C_2  and  C_3
REMARK    3  A    between atoms: C_2  and  C_4
REMARK    4  A    between atoms: C_3  and  C_5
REMARK    5  A    between atoms: C_4  and  C_6
REMARK    6  A    between atoms: C_5  and  C_7
REMARK    7  A    between atoms: C_6  and  C_8
REMARK                            x       y       z     vdW  Elec       q    Type
REMARK                         _______ _______ _______ _____ _____    ______ ____
ROOT
ATOM      1  C   UNL     1       6.824   0.786  -1.752  0.00  0.00    +0.000 C 
ATOM      2  H   UNL     1       7.667   1.469  -1.590  0.00  0.00    +0.000 HD
ATOM      3  H   UNL     1       6.244   0.761  -0.821  0.00  0.00    +0.000 HD
ENDROOT
BRANCH   1   4
ATOM      4  C   UNL     1       5.946   1.319  -2.887  0.00  0.00    +0.000 C 
ATOM      5  H   UNL     1       6.560   1.895  -3.590  0.00  0.00    +0.000 HD
ATOM      6  H   UNL     1       5.195   2.006  -2.477  0.00  0.00    +0.000 HD
BRANCH   4   7
ATOM      7  C   UNL     1       5.250   0.181  -3.634  0.00  0.00    +0.000 C 
ATOM      8  H   UNL     1       5.787  -0.759  -3.463  0.00  0.00    +0.000 HD
ATOM      9  H   UNL     1       4.233   0.049  -3.248  0.00  0.00    +0.000 HD
BRANCH   7  10
ATOM     10  C   UNL     1       5.184   0.455  -5.128  0.00  0.00    +0.000 C 
ATOM     11  H   UNL     1       4.267   0.992  -5.388  0.00  0.00    +0.000 HD
ATOM     12  H   UNL     1       6.039   1.055  -5.455  0.00  0.00    +0.000 HD
ATOM     13  H   UNL     1       5.196  -0.487  -5.686  0.00  0.00    +0.000 HD
ENDBRANCH   7  10
ENDBRANCH   4   7
ENDBRANCH   1   4
BRANCH   1  14
ATOM     14  C   UNL     1       7.342  -0.620  -2.066  0.00  0.00    +0.000 C 
ATOM     15  H   UNL     1       6.762  -1.019  -2.909  0.00  0.00    +0.000 HD
ATOM     16  H   UNL     1       7.152  -1.275  -1.206  0.00  0.00    +0.000 HD
BRANCH  14  17
ATOM     17  C   UNL     1       8.838  -0.666  -2.413  0.00  0.00    +0.000 C 
ATOM     18  H   UNL     1       9.360  -1.232  -1.631  0.00  0.00    +0.000 HD
BRANCH  17  19
ATOM     19  C   UNL     1       9.112  -1.289  -3.757  0.00  0.00    +0.000 C 
ATOM     20  C   UNL     1       8.600  -0.906  -4.933  0.00  0.00    +0.000 C 
ATOM     21  H   UNL     1       9.787  -2.143  -3.758  0.00  0.00    +0.000 HD
ATOM     22  H   UNL     1       8.861  -1.431  -5.844  0.00  0.00    +0.000 HD
ATOM     23  H   UNL     1       7.917  -0.067  -5.003  0.00  0.00    +0.000 HD
ENDBRANCH  17  19
BRANCH  17  24
ATOM     24  O   UNL     1       9.345   0.668  -2.364  0.00  0.00    +0.000 OA
ATOM     25  H   UNL     1      10.283   0.618  -2.115  0.00  0.00    +0.000 HD
ENDBRANCH  17  24
ENDBRANCH  14  17
ENDBRANCH   1  14
TORSDOF 7
ENDMDL
MODEL 9
REMARK VINA RESULT:    -4.324      2.695      3.123
REMARK INTER + INTRA:          -6.016
REMARK INTER:                  -5.804
REMARK INTRA:                  -0.212
REMARK UNBOUND:                -0.176
REMARK  Name = 18827
REMARK  7 active torsions:
REMARK  status: ('A' for Active; 'I' for Inactive)
REMARK    1  A    between atoms: O_1  and  C_6
REMARK    2  A    between atoms: C_2  and  C_3
REMARK    3  A    between atoms: C_2  and  C_4
REMARK    4  A    between atoms: C_3  and  C_5
REMARK    5  A    between atoms: C_4  and  C_6
REMARK    6  A    between atoms: C_5  and  C_7
REMARK    7  A    between atoms: C_6  and  C_8
REMARK                            x       y       z     vdW  Elec       q    Type
REMARK                         _______ _______ _______ _____ _____    ______ ____
ROOT
ATOM      1  C   UNL     1       6.359   1.037  -2.686  0.00  0.00    +0.000 C 
ATOM      2  H   UNL     1       7.281   0.893  -3.263  0.00  0.00    +0.000 HD
ATOM      3  H   UNL     1       6.323   2.092  -2.390  0.00  0.00    +0.000 HD
ENDROOT
BRANCH   1   4
ATOM      4  C   UNL     1       5.150   0.713  -3.567  0.00  0.00    +0.000 C 
ATOM      5  H   UNL     1       4.509   1.600  -3.656  0.00  0.00    +0.000 HD
ATOM      6  H   UNL     1       4.550  -0.072  -3.091  0.00  0.00    +0.000 HD
BRANCH   4   7
ATOM      7  C   UNL     1       5.582   0.257  -4.961  0.00  0.00    +0.000 C 
ATOM      8  H   UNL     1       4.772  -0.307  -5.436  0.00  0.00    +0.000 HD
ATOM      9  H   UNL     1       5.784   1.131  -5.592  0.00  0.00    +0.000 HD
BRANCH   7  10
ATOM     10  C   UNL     1       6.829  -0.611  -4.900  0.00  0.00    +0.000 C 
ATOM     11  H   UNL     1       7.655  -0.151  -5.450  0.00  0.00    +0.000 HD
ATOM     12  H   UNL     1       7.149  -0.766  -3.865  0.00  0.00    +0.000 HD
ATOM     13  H   UNL     1       6.629  -1.592  -5.344  0.00  0.00    +0.000 HD
ENDBRANCH   7  10
ENDBRANCH   4   7
ENDBRANCH   1   4
BRANCH   1  14
ATOM     14  C   UNL     1       6.383   0.157  -1.433  0.00  0.00    +0.000 C 
ATOM     15  H   UNL     1       7.037  -0.703  -1.630  0.00  0.00    +0.000 HD
ATOM     16  H   UNL     1       5.376  -0.240  -1.252  0.00  0.00    +0.000 HD
BRANCH  14  17
ATOM     17  C   UNL     1       6.871   0.887  -0.173  0.00  0.00    +0.000 C 
ATOM     18  H   UNL     1       7.877   0.524   0.073  0.00  0.00    +0.000 HD
BRANCH  17  19
ATOM     19  C   UNL     1       6.898   2.385  -0.333  0.00  0.00    +0.000 C 
ATOM     20  C   UNL     1       6.164   3.274   0.349  0.00  0.00    +0.000 C 
ATOM     21  H   UNL     1       7.578   2.772  -1.089  0.00  0.00    +0.000 HD
ATOM     22  H   UNL     1       6.258   4.335   0.149  0.00  0.00    +0.000 HD
ATOM     23  H   UNL     1       5.462   2.957   1.112  0.00  0.00    +0.000 HD
ENDBRANCH  17  19
BRANCH  17  24
ATOM     24  O   UNL     1       6.021   0.513   0.912  0.00  0.00    +0.000 OA
ATOM     25  H   UNL     1       5.371   1.225   1.037  0.00  0.00    +0.000 HD
ENDBRANCH  17  24
ENDBRANCH  14  17
ENDBRANCH   1  14
TORSDOF 7
ENDMDL
MODEL 10
REMARK VINA RESULT:    -4.297      8.724      9.847
REMARK INTER + INTRA:          -5.980
REMARK INTER:                  -5.804
REMARK INTRA:                  -0.176
REMARK UNBOUND:                -0.176
REMARK  Name = 18827
REMARK  7 active torsions:
REMARK  status: ('A' for Active; 'I' for Inactive)
REMARK    1  A    between atoms: O_1  and  C_6
REMARK    2  A    between atoms: C_2  and  C_3
REMARK    3  A    between atoms: C_2  and  C_4
REMARK    4  A    between atoms: C_3  and  C_5
REMARK    5  A    between atoms: C_4  and  C_6
REMARK    6  A    between atoms: C_5  and  C_7
REMARK    7  A    between atoms: C_6  and  C_8
REMARK                            x       y       z     vdW  Elec       q    Type
REMARK                         _______ _______ _______ _____ _____    ______ ____
ROOT
ATOM      1  C   UNL     1      12.179   4.985  -4.099  0.00  0.00    +0.000 C 
ATOM      2  H   UNL     1      12.438   5.081  -5.160  0.00  0.00    +0.000 HD
ATOM      3  H   UNL     1      11.331   4.292  -4.034  0.00  0.00    +0.000 HD
ENDROOT
BRANCH   1   4
ATOM      4  C   UNL     1      13.371   4.406  -3.333  0.00  0.00    +0.000 C 
ATOM      5  H   UNL     1      13.011   3.758  -2.524  0.00  0.00    +0.000 HD
ATOM      6  H   UNL     1      13.937   5.221  -2.866  0.00  0.00    +0.000 HD
BRANCH   4   7
ATOM      7  C   UNL     1      14.289   3.604  -4.256  0.00  0.00    +0.000 C 
ATOM      8  H   UNL     1      15.232   3.382  -3.743  0.00  0.00    +0.000 HD
ATOM      9  H   UNL     1      13.821   2.645  -4.505  0.00  0.00    +0.000 HD
BRANCH   7  10
ATOM     10  C   UNL     1      14.585   4.361  -5.541  0.00  0.00    +0.000 C 
ATOM     11  H   UNL     1      15.434   5.039  -5.412  0.00  0.00    +0.000 HD
ATOM     12  H   UNL     1      14.818   3.671  -6.358  0.00  0.00    +0.000 HD
ATOM     13  H   UNL     1      13.715   4.957  -5.838  0.00  0.00    +0.000 HD
ENDBRANCH   7  10
ENDBRANCH   4   7
ENDBRANCH   1   4
BRANCH   1  14
ATOM     14  C   UNL     1      11.767   6.347  -3.535  0.00  0.00    +0.000 C 
ATOM     15  H   UNL     1      12.639   6.789  -3.034  0.00  0.00    +0.000 HD
ATOM     16  H   UNL     1      10.996   6.202  -2.768  0.00  0.00    +0.000 HD
BRANCH  14  17
ATOM     17  C   UNL     1      11.242   7.324  -4.598  0.00  0.00    +0.000 C 
ATOM     18  H   UNL     1      11.639   7.023  -5.575  0.00  0.00    +0.000 HD
BRANCH  17  19
ATOM     19  C   UNL     1       9.738   7.378  -4.657  0.00  0.00    +0.000 C 
ATOM     20  C   UNL     1       8.976   7.209  -5.746  0.00  0.00    +0.000 C 
ATOM     21  H   UNL     1       9.230   7.587  -3.718  0.00  0.00    +0.000 HD
ATOM     22  H   UNL     1       7.897   7.275  -5.678  0.00  0.00    +0.000 HD
ATOM     23  H   UNL     1       9.417   7.003  -6.715  0.00  0.00    +0.000 HD
ENDBRANCH  17  19
BRANCH  17  24
ATOM     24  O   UNL     1      11.781   8.617  -4.316  0.00  0.00    +0.000 OA
ATOM     25  H   UNL     1      12.587   8.723  -4.848  0.00  0.00    +0.000 HD
ENDBRANCH  17  24
ENDBRANCH  14  17
ENDBRANCH   1  14
TORSDOF 7
ENDMDL
