MODEL 1
REMARK VINA RESULT:    -4.533      0.000      0.000
REMARK INTER + INTRA:          -6.703
REMARK INTER:                  -6.465
REMARK INTRA:                  -0.238
REMARK UNBOUND:                -0.315
REMARK  Name = 957
REMARK  8 active torsions:
REMARK  status: ('A' for Active; 'I' for Inactive)
REMARK    1  A    between atoms: O_1  and  C_8
REMARK    2  A    between atoms: C_2  and  C_3
REMARK    3  A    between atoms: C_2  and  C_4
REMARK    4  A    between atoms: C_3  and  C_5
REMARK    5  A    between atoms: C_4  and  C_6
REMARK    6  A    between atoms: C_5  and  C_7
REMARK    7  A    between atoms: C_6  and  C_8
REMARK    8  A    between atoms: C_7  and  C_9
REMARK                            x       y       z     vdW  Elec       q    Type
REMARK                         _______ _______ _______ _____ _____    ______ ____
ROOT
ATOM      1  C   UNL     1       9.135  -0.361  -3.061  0.00  0.00    +0.000 C 
ATOM      2  H   UNL     1       9.680   0.271  -3.774  0.00  0.00    +0.000 HD
ATOM      3  H   UNL     1       9.419  -0.023  -2.057  0.00  0.00    +0.000 HD
ENDROOT
BRANCH   1   4
ATOM      4  C   UNL     1       7.631  -0.144  -3.251  0.00  0.00    +0.000 C 
ATOM      5  H   UNL     1       7.102  -0.479  -2.349  0.00  0.00    +0.000 HD
ATOM      6  H   UNL     1       7.438   0.931  -3.349  0.00  0.00    +0.000 HD
BRANCH   4   7
ATOM      7  C   UNL     1       7.061  -0.869  -4.472  0.00  0.00    +0.000 C 
ATOM      8  H   UNL     1       6.726  -1.872  -4.181  0.00  0.00    +0.000 HD
ATOM      9  H   UNL     1       7.851  -0.996  -5.222  0.00  0.00    +0.000 HD
BRANCH   7  10
ATOM     10  C   UNL     1       5.895  -0.090  -5.083  0.00  0.00    +0.000 C 
ATOM     11  H   UNL     1       6.269   0.598  -5.850  0.00  0.00    +0.000 HD
ATOM     12  H   UNL     1       5.203  -0.781  -5.578  0.00  0.00    +0.000 HD
BRANCH  10  13
ATOM     13  C   UNL     1       5.139   0.700  -4.027  0.00  0.00    +0.000 C 
ATOM     14  H   UNL     1       5.628   1.659  -3.828  0.00  0.00    +0.000 HD
ATOM     15  H   UNL     1       5.080   0.142  -3.086  0.00  0.00    +0.000 HD
ATOM     16  H   UNL     1       4.118   0.904  -4.365  0.00  0.00    +0.000 HD
ENDBRANCH  10  13
ENDBRANCH   7  10
ENDBRANCH   4   7
ENDBRANCH   1   4
BRANCH   1  17
ATOM     17  C   UNL     1       9.567  -1.819  -3.237  0.00  0.00    +0.000 C 
ATOM     18  H   UNL     1       8.686  -2.436  -3.449  0.00  0.00    +0.000 HD
ATOM     19  H   UNL     1      10.006  -2.188  -2.303  0.00  0.00    +0.000 HD
BRANCH  17  20
ATOM     20  C   UNL     1      10.581  -1.961  -4.372  0.00  0.00    +0.000 C 
ATOM     21  H   UNL     1      10.070  -1.919  -5.342  0.00  0.00    +0.000 HD
ATOM     22  H   UNL     1      11.064  -2.945  -4.330  0.00  0.00    +0.000 HD
BRANCH  20  23
ATOM     23  C   UNL     1      11.647  -0.877  -4.311  0.00  0.00    +0.000 C 
ATOM     24  H   UNL     1      11.493  -0.207  -3.458  0.00  0.00    +0.000 HD
ATOM     25  H   UNL     1      12.648  -1.313  -4.232  0.00  0.00    +0.000 HD
BRANCH  23  26
ATOM     26  O   UNL     1      11.591  -0.110  -5.506  0.00  0.00    +0.000 OA
ATOM     27  H   UNL     1      10.661  -0.072  -5.787  0.00  0.00    +0.000 HD
ENDBRANCH  23  26
ENDBRANCH  20  23
ENDBRANCH  17  20
ENDBRANCH   1  17
TORSDOF 8
ENDMDL
MODEL 2
REMARK VINA RESULT:    -4.310      8.660      9.297
REMARK INTER + INTRA:          -6.389
REMARK INTER:                  -5.984
REMARK INTRA:                  -0.404
REMARK UNBOUND:                -0.315
REMARK  Name = 957
REMARK  8 active torsions:
REMARK  status: ('A' for Active; 'I' for Inactive)
REMARK    1  A    between atoms: O_1  and  C_8
REMARK    2  A    between atoms: C_2  and  C_3
REMARK    3  A    between atoms: C_2  and  C_4
REMARK    4  A    between atoms: C_3  and  C_5
REMARK    5  A    between atoms: C_4  and  C_6
REMARK    6  A    between atoms: C_5  and  C_7
REMARK    7  A    between atoms: C_6  and  C_8
REMARK    8  A    between atoms: C_7  and  C_9
REMARK                            x       y       z     vdW  Elec       q    Type
REMARK                         _______ _______ _______ _____ _____    ______ ____
ROOT
ATOM      1  C   UNL     1      11.694   7.024  -3.251  0.00  0.00    +0.000 C 
ATOM      2  H   UNL     1      11.008   6.360  -3.791  0.00  0.00    +0.000 HD
ATOM      3  H   UNL     1      12.712   6.717  -3.523  0.00  0.00    +0.000 HD
ENDROOT
BRANCH   1   4
ATOM      4  C   UNL     1      11.468   8.465  -3.720  0.00  0.00    +0.000 C 
ATOM      5  H   UNL     1      11.317   9.108  -2.843  0.00  0.00    +0.000 HD
ATOM      6  H   UNL     1      12.377   8.821  -4.220  0.00  0.00    +0.000 HD
BRANCH   4   7
ATOM      7  C   UNL     1      10.280   8.615  -4.672  0.00  0.00    +0.000 C 
ATOM      8  H   UNL     1      10.645   8.817  -5.686  0.00  0.00    +0.000 HD
ATOM      9  H   UNL     1       9.676   9.478  -4.368  0.00  0.00    +0.000 HD
BRANCH   7  10
ATOM     10  C   UNL     1       9.410   7.357  -4.675  0.00  0.00    +0.000 C 
ATOM     11  H   UNL     1      10.036   6.472  -4.515  0.00  0.00    +0.000 HD
ATOM     12  H   UNL     1       8.690   7.399  -3.849  0.00  0.00    +0.000 HD
BRANCH  10  13
ATOM     13  C   UNL     1       8.654   7.206  -5.985  0.00  0.00    +0.000 C 
ATOM     14  H   UNL     1       7.594   7.449  -5.857  0.00  0.00    +0.000 HD
ATOM     15  H   UNL     1       8.728   6.182  -6.366  0.00  0.00    +0.000 HD
ATOM     16  H   UNL     1       9.067   7.880  -6.742  0.00  0.00    +0.000 HD
ENDBRANCH  10  13
ENDBRANCH   7  10
ENDBRANCH   4   7
ENDBRANCH   1   4
BRANCH   1  17
ATOM     17  C   UNL     1      11.504   6.838  -1.744  0.00  0.00    +0.000 C 
ATOM     18  H   UNL     1      12.433   6.459  -1.304  0.00  0.00    +0.000 HD
ATOM     19  H   UNL     1      10.728   6.085  -1.561  0.00  0.00    +0.000 HD
BRANCH  17  20
ATOM     20  C   UNL     1      11.112   8.152  -1.069  0.00  0.00    +0.000 C 
ATOM     21  H   UNL     1      11.065   8.957  -1.813  0.00  0.00    +0.000 HD
ATOM     22  H   UNL     1      11.881   8.454  -0.347  0.00  0.00    +0.000 HD
BRANCH  20  23
ATOM     23  C   UNL     1       9.772   8.039  -0.355  0.00  0.00    +0.000 C 
ATOM     24  H   UNL     1       9.410   7.005  -0.340  0.00  0.00    +0.000 HD
ATOM     25  H   UNL     1       9.844   8.396   0.677  0.00  0.00    +0.000 HD
BRANCH  23  26
ATOM     26  O   UNL     1       8.819   8.843  -1.037  0.00  0.00    +0.000 OA
ATOM     27  H   UNL     1       9.186   9.741  -1.102  0.00  0.00    +0.000 HD
ENDBRANCH  23  26
ENDBRANCH  20  23
ENDBRANCH  17  20
ENDBRANCH   1  17
TORSDOF 8
ENDMDL
MODEL 3
REMARK VINA RESULT:    -4.210      4.008      5.055
REMARK INTER + INTRA:          -6.248
REMARK INTER:                  -6.068
REMARK INTRA:                  -0.180
REMARK UNBOUND:                -0.315
REMARK  Name = 957
REMARK  8 active torsions:
REMARK  status: ('A' for Active; 'I' for Inactive)
REMARK    1  A    between atoms: O_1  and  C_8
REMARK    2  A    between atoms: C_2  and  C_3
REMARK    3  A    between atoms: C_2  and  C_4
REMARK    4  A    between atoms: C_3  and  C_5
REMARK    5  A    between atoms: C_4  and  C_6
REMARK    6  A    between atoms: C_5  and  C_7
REMARK    7  A    between atoms: C_6  and  C_8
REMARK    8  A    between atoms: C_7  and  C_9
REMARK                            x       y       z     vdW  Elec       q    Type
REMARK                         _______ _______ _______ _____ _____    ______ ____
ROOT
ATOM      1  C   UNL     1       6.893   1.558  -1.282  0.00  0.00    +0.000 C 
ATOM      2  H   UNL     1       6.408   2.540  -1.354  0.00  0.00    +0.000 HD
ATOM      3  H   UNL     1       6.342   0.988  -0.524  0.00  0.00    +0.000 HD
ENDROOT
BRANCH   1   4
ATOM      4  C   UNL     1       6.772   0.841  -2.630  0.00  0.00    +0.000 C 
ATOM      5  H   UNL     1       7.642   1.094  -3.251  0.00  0.00    +0.000 HD
ATOM      6  H   UNL     1       6.812  -0.242  -2.458  0.00  0.00    +0.000 HD
BRANCH   4   7
ATOM      7  C   UNL     1       5.489   1.182  -3.388  0.00  0.00    +0.000 C 
ATOM      8  H   UNL     1       5.486   2.249  -3.644  0.00  0.00    +0.000 HD
ATOM      9  H   UNL     1       4.623   1.002  -2.740  0.00  0.00    +0.000 HD
BRANCH   7  10
ATOM     10  C   UNL     1       5.358   0.343  -4.660  0.00  0.00    +0.000 C 
ATOM     11  H   UNL     1       4.354  -0.091  -4.718  0.00  0.00    +0.000 HD
ATOM     12  H   UNL     1       5.488   0.980  -5.543  0.00  0.00    +0.000 HD
BRANCH  10  13
ATOM     13  C   UNL     1       6.389  -0.774  -4.698  0.00  0.00    +0.000 C 
ATOM     14  H   UNL     1       7.351  -0.434  -4.301  0.00  0.00    +0.000 HD
ATOM     15  H   UNL     1       6.546  -1.129  -5.722  0.00  0.00    +0.000 HD
ATOM     16  H   UNL     1       6.053  -1.621  -4.093  0.00  0.00    +0.000 HD
ENDBRANCH  10  13
ENDBRANCH   7  10
ENDBRANCH   4   7
ENDBRANCH   1   4
BRANCH   1  17
ATOM     17  C   UNL     1       8.340   1.738  -0.816  0.00  0.00    +0.000 C 
ATOM     18  H   UNL     1       8.966   2.017  -1.672  0.00  0.00    +0.000 HD
ATOM     19  H   UNL     1       8.723   0.786  -0.430  0.00  0.00    +0.000 HD
BRANCH  17  20
ATOM     20  C   UNL     1       8.442   2.809   0.269  0.00  0.00    +0.000 C 
ATOM     21  H   UNL     1       9.394   3.347   0.179  0.00  0.00    +0.000 HD
ATOM     22  H   UNL     1       8.453   2.345   1.264  0.00  0.00    +0.000 HD
BRANCH  20  23
ATOM     23  C   UNL     1       7.288   3.798   0.191  0.00  0.00    +0.000 C 
ATOM     24  H   UNL     1       6.669   3.627  -0.696  0.00  0.00    +0.000 HD
ATOM     25  H   UNL     1       6.649   3.729   1.077  0.00  0.00    +0.000 HD
BRANCH  23  26
ATOM     26  O   UNL     1       7.816   5.116   0.128  0.00  0.00    +0.000 OA
ATOM     27  H   UNL     1       8.411   5.231   0.889  0.00  0.00    +0.000 HD
ENDBRANCH  23  26
ENDBRANCH  20  23
ENDBRANCH  17  20
ENDBRANCH   1  17
TORSDOF 8
ENDMDL
MODEL 4
REMARK VINA RESULT:    -4.105      7.856      9.495
REMARK INTER + INTRA:          -6.100
REMARK INTER:                  -5.696
REMARK INTRA:                  -0.403
REMARK UNBOUND:                -0.315
REMARK  Name = 957
REMARK  8 active torsions:
REMARK  status: ('A' for Active; 'I' for Inactive)
REMARK    1  A    between atoms: O_1  and  C_8
REMARK    2  A    between atoms: C_2  and  C_3
REMARK    3  A    between atoms: C_2  and  C_4
REMARK    4  A    between atoms: C_3  and  C_5
REMARK    5  A    between atoms: C_4  and  C_6
REMARK    6  A    between atoms: C_5  and  C_7
REMARK    7  A    between atoms: C_6  and  C_8
REMARK    8  A    between atoms: C_7  and  C_9
REMARK                            x       y       z     vdW  Elec       q    Type
REMARK                         _______ _______ _______ _____ _____    ______ ____
ROOT
ATOM      1  C   UNL     1      13.509   7.732  -4.381  0.00  0.00    +0.000 C 
ATOM      2  H   UNL     1      14.232   8.087  -3.635  0.00  0.00    +0.000 HD
ATOM      3  H   UNL     1      13.071   8.624  -4.847  0.00  0.00    +0.000 HD
ENDROOT
BRANCH   1   4
ATOM      4  C   UNL     1      14.250   6.925  -5.451  0.00  0.00    +0.000 C 
ATOM      5  H   UNL     1      13.534   6.599  -6.216  0.00  0.00    +0.000 HD
ATOM      6  H   UNL     1      14.971   7.582  -5.953  0.00  0.00    +0.000 HD
BRANCH   4   7
ATOM      7  C   UNL     1      14.988   5.707  -4.892  0.00  0.00    +0.000 C 
ATOM      8  H   UNL     1      14.745   5.585  -3.830  0.00  0.00    +0.000 HD
ATOM      9  H   UNL     1      16.070   5.873  -4.960  0.00  0.00    +0.000 HD
BRANCH   7  10
ATOM     10  C   UNL     1      14.617   4.436  -5.658  0.00  0.00    +0.000 C 
ATOM     11  H   UNL     1      14.201   4.700  -6.637  0.00  0.00    +0.000 HD
ATOM     12  H   UNL     1      15.514   3.833  -5.838  0.00  0.00    +0.000 HD
BRANCH  10  13
ATOM     13  C   UNL     1      13.603   3.601  -4.892  0.00  0.00    +0.000 C 
ATOM     14  H   UNL     1      14.098   2.803  -4.328  0.00  0.00    +0.000 HD
ATOM     15  H   UNL     1      12.878   3.142  -5.572  0.00  0.00    +0.000 HD
ATOM     16  H   UNL     1      13.054   4.227  -4.183  0.00  0.00    +0.000 HD
ENDBRANCH  10  13
ENDBRANCH   7  10
ENDBRANCH   4   7
ENDBRANCH   1   4
BRANCH   1  17
ATOM     17  C   UNL     1      12.402   6.941  -3.680  0.00  0.00    +0.000 C 
ATOM     18  H   UNL     1      12.311   7.283  -2.642  0.00  0.00    +0.000 HD
ATOM     19  H   UNL     1      12.671   5.879  -3.650  0.00  0.00    +0.000 HD
BRANCH  17  20
ATOM     20  C   UNL     1      11.063   7.110  -4.397  0.00  0.00    +0.000 C 
ATOM     21  H   UNL     1      10.327   6.403  -3.994  0.00  0.00    +0.000 HD
ATOM     22  H   UNL     1      11.166   6.862  -5.462  0.00  0.00    +0.000 HD
BRANCH  20  23
ATOM     23  C   UNL     1      10.531   8.530  -4.264  0.00  0.00    +0.000 C 
ATOM     24  H   UNL     1       9.645   8.570  -3.622  0.00  0.00    +0.000 HD
ATOM     25  H   UNL     1      11.291   9.198  -3.847  0.00  0.00    +0.000 HD
BRANCH  23  26
ATOM     26  O   UNL     1      10.179   9.011  -5.555  0.00  0.00    +0.000 OA
ATOM     27  H   UNL     1      10.957   9.464  -5.921  0.00  0.00    +0.000 HD
ENDBRANCH  23  26
ENDBRANCH  20  23
ENDBRANCH  17  20
ENDBRANCH   1  17
TORSDOF 8
ENDMDL
MODEL 5
REMARK VINA RESULT:    -4.097     16.186     17.311
REMARK INTER + INTRA:          -6.089
REMARK INTER:                  -5.793
REMARK INTRA:                  -0.296
REMARK UNBOUND:                -0.315
REMARK  Name = 957
REMARK  8 active torsions:
REMARK  status: ('A' for Active; 'I' for Inactive)
REMARK    1  A    between atoms: O_1  and  C_8
REMARK    2  A    between atoms: C_2  and  C_3
REMARK    3  A    between atoms: C_2  and  C_4
REMARK    4  A    between atoms: C_3  and  C_5
REMARK    5  A    between atoms: C_4  and  C_6
REMARK    6  A    between atoms: C_5  and  C_7
REMARK    7  A    between atoms: C_6  and  C_8
REMARK    8  A    between atoms: C_7  and  C_9
REMARK                            x       y       z     vdW  Elec       q    Type
REMARK                         _______ _______ _______ _____ _____    ______ ____
ROOT
ATOM      1  C   UNL     1      -1.630 -14.916  -9.701  0.00  0.00    +0.000 C 
ATOM      2  H   UNL     1      -2.434 -15.644  -9.873  0.00  0.00    +0.000 HD
ATOM      3  H   UNL     1      -0.683 -15.455  -9.830  0.00  0.00    +0.000 HD
ENDROOT
BRANCH   1   4
ATOM      4  C   UNL     1      -1.722 -13.811 -10.757  0.00  0.00    +0.000 C 
ATOM      5  H   UNL     1      -2.733 -13.381 -10.740  0.00  0.00    +0.000 HD
ATOM      6  H   UNL     1      -1.032 -13.004 -10.485  0.00  0.00    +0.000 HD
BRANCH   4   7
ATOM      7  C   UNL     1      -1.398 -14.293 -12.172  0.00  0.00    +0.000 C 
ATOM      8  H   UNL     1      -2.263 -14.125 -12.825  0.00  0.00    +0.000 HD
ATOM      9  H   UNL     1      -1.210 -15.373 -12.155  0.00  0.00    +0.000 HD
BRANCH   7  10
ATOM     10  C   UNL     1      -0.174 -13.570 -12.735  0.00  0.00    +0.000 C 
ATOM     11  H   UNL     1       0.538 -14.300 -13.137  0.00  0.00    +0.000 HD
ATOM     12  H   UNL     1      -0.474 -12.918 -13.564  0.00  0.00    +0.000 HD
BRANCH  10  13
ATOM     13  C   UNL     1       0.516 -12.731 -11.671  0.00  0.00    +0.000 C 
ATOM     14  H   UNL     1       1.603 -12.746 -11.804  0.00  0.00    +0.000 HD
ATOM     15  H   UNL     1       0.287 -13.104 -10.667  0.00  0.00    +0.000 HD
ATOM     16  H   UNL     1       0.182 -11.691 -11.732  0.00  0.00    +0.000 HD
ENDBRANCH  10  13
ENDBRANCH   7  10
ENDBRANCH   4   7
ENDBRANCH   1   4
BRANCH   1  17
ATOM     17  C   UNL     1      -1.715 -14.393  -8.264  0.00  0.00    +0.000 C 
ATOM     18  H   UNL     1      -1.240 -15.113  -7.587  0.00  0.00    +0.000 HD
ATOM     19  H   UNL     1      -2.766 -14.310  -7.964  0.00  0.00    +0.000 HD
BRANCH  17  20
ATOM     20  C   UNL     1      -1.033 -13.032  -8.130  0.00  0.00    +0.000 C 
ATOM     21  H   UNL     1      -1.636 -12.259  -8.623  0.00  0.00    +0.000 HD
ATOM     22  H   UNL     1      -0.067 -13.037  -8.651  0.00  0.00    +0.000 HD
BRANCH  20  23
ATOM     23  C   UNL     1      -0.814 -12.656  -6.672  0.00  0.00    +0.000 C 
ATOM     24  H   UNL     1      -1.743 -12.327  -6.197  0.00  0.00    +0.000 HD
ATOM     25  H   UNL     1      -0.413 -13.501  -6.103  0.00  0.00    +0.000 HD
BRANCH  23  26
ATOM     26  O   UNL     1       0.129 -11.594  -6.609  0.00  0.00    +0.000 OA
ATOM     27  H   UNL     1       0.357 -11.459  -5.674  0.00  0.00    +0.000 HD
ENDBRANCH  23  26
ENDBRANCH  20  23
ENDBRANCH  17  20
ENDBRANCH   1  17
TORSDOF 8
ENDMDL
MODEL 6
REMARK VINA RESULT:    -4.080      7.112      7.590
REMARK INTER + INTRA:          -6.065
REMARK INTER:                  -5.725
REMARK INTRA:                  -0.340
REMARK UNBOUND:                -0.315
REMARK  Name = 957
REMARK  8 active torsions:
REMARK  status: ('A' for Active; 'I' for Inactive)
REMARK    1  A    between atoms: O_1  and  C_8
REMARK    2  A    between atoms: C_2  and  C_3
REMARK    3  A    between atoms: C_2  and  C_4
REMARK    4  A    between atoms: C_3  and  C_5
REMARK    5  A    between atoms: C_4  and  C_6
REMARK    6  A    between atoms: C_5  and  C_7
REMARK    7  A    between atoms: C_6  and  C_8
REMARK    8  A    between atoms: C_7  and  C_9
REMARK                            x       y       z     vdW  Elec       q    Type
REMARK                         _______ _______ _______ _____ _____    ______ ____
ROOT
ATOM      1  C   UNL     1      11.484   6.416  -2.939  0.00  0.00    +0.000 C 
ATOM      2  H   UNL     1      12.320   7.098  -2.736  0.00  0.00    +0.000 HD
ATOM      3  H   UNL     1      11.248   5.915  -1.991  0.00  0.00    +0.000 HD
ENDROOT
BRANCH   1   4
ATOM      4  C   UNL     1      10.269   7.235  -3.385  0.00  0.00    +0.000 C 
ATOM      5  H   UNL     1       9.558   6.573  -3.897  0.00  0.00    +0.000 HD
ATOM      6  H   UNL     1       9.756   7.620  -2.495  0.00  0.00    +0.000 HD
BRANCH   4   7
ATOM      7  C   UNL     1      10.627   8.404  -4.303  0.00  0.00    +0.000 C 
ATOM      8  H   UNL     1      11.710   8.421  -4.472  0.00  0.00    +0.000 HD
ATOM      9  H   UNL     1      10.362   9.348  -3.811  0.00  0.00    +0.000 HD
BRANCH   7  10
ATOM     10  C   UNL     1       9.894   8.301  -5.641  0.00  0.00    +0.000 C 
ATOM     11  H   UNL     1       9.319   9.217  -5.822  0.00  0.00    +0.000 HD
ATOM     12  H   UNL     1      10.619   8.206  -6.458  0.00  0.00    +0.000 HD
BRANCH  10  13
ATOM     13  C   UNL     1       8.953   7.107  -5.670  0.00  0.00    +0.000 C 
ATOM     14  H   UNL     1       7.934   7.403  -5.402  0.00  0.00    +0.000 HD
ATOM     15  H   UNL     1       9.281   6.331  -4.971  0.00  0.00    +0.000 HD
ATOM     16  H   UNL     1       8.926   6.670  -6.674  0.00  0.00    +0.000 HD
ENDBRANCH  10  13
ENDBRANCH   7  10
ENDBRANCH   4   7
ENDBRANCH   1   4
BRANCH   1  17
ATOM     17  C   UNL     1      11.919   5.365  -3.963  0.00  0.00    +0.000 C 
ATOM     18  H   UNL     1      11.468   5.596  -4.935  0.00  0.00    +0.000 HD
ATOM     19  H   UNL     1      11.549   4.380  -3.659  0.00  0.00    +0.000 HD
BRANCH  17  20
ATOM     20  C   UNL     1      13.441   5.322  -4.098  0.00  0.00    +0.000 C 
ATOM     21  H   UNL     1      13.907   5.317  -3.105  0.00  0.00    +0.000 HD
ATOM     22  H   UNL     1      13.805   6.230  -4.596  0.00  0.00    +0.000 HD
BRANCH  20  23
ATOM     23  C   UNL     1      13.900   4.102  -4.883  0.00  0.00    +0.000 C 
ATOM     24  H   UNL     1      14.193   4.367  -5.904  0.00  0.00    +0.000 HD
ATOM     25  H   UNL     1      14.750   3.616  -4.394  0.00  0.00    +0.000 HD
BRANCH  23  26
ATOM     26  O   UNL     1      12.832   3.167  -4.944  0.00  0.00    +0.000 OA
ATOM     27  H   UNL     1      12.661   2.857  -4.039  0.00  0.00    +0.000 HD
ENDBRANCH  23  26
ENDBRANCH  20  23
ENDBRANCH  17  20
ENDBRANCH   1  17
TORSDOF 8
ENDMDL
MODEL 7
REMARK VINA RESULT:    -4.011     16.003     17.081
REMARK INTER + INTRA:          -5.968
REMARK INTER:                  -5.733
REMARK INTRA:                  -0.235
REMARK UNBOUND:                -0.315
REMARK  Name = 957
REMARK  8 active torsions:
REMARK  status: ('A' for Active; 'I' for Inactive)
REMARK    1  A    between atoms: O_1  and  C_8
REMARK    2  A    between atoms: C_2  and  C_3
REMARK    3  A    between atoms: C_2  and  C_4
REMARK    4  A    between atoms: C_3  and  C_5
REMARK    5  A    between atoms: C_4  and  C_6
REMARK    6  A    between atoms: C_5  and  C_7
REMARK    7  A    between atoms: C_6  and  C_8
REMARK    8  A    between atoms: C_7  and  C_9
REMARK                            x       y       z     vdW  Elec       q    Type
REMARK                         _______ _______ _______ _____ _____    ______ ____
ROOT
ATOM      1  C   UNL     1      -0.205 -12.220  -9.407  0.00  0.00    +0.000 C 
ATOM      2  H   UNL     1      -0.178 -11.124  -9.437  0.00  0.00    +0.000 HD
ATOM      3  H   UNL     1       0.632 -12.539  -8.774  0.00  0.00    +0.000 HD
ENDROOT
BRANCH   1   4
ATOM      4  C   UNL     1      -1.518 -12.671  -8.761  0.00  0.00    +0.000 C 
ATOM      5  H   UNL     1      -2.242 -11.846  -8.806  0.00  0.00    +0.000 HD
ATOM      6  H   UNL     1      -1.940 -13.492  -9.354  0.00  0.00    +0.000 HD
BRANCH   4   7
ATOM      7  C   UNL     1      -1.358 -13.129  -7.311  0.00  0.00    +0.000 C 
ATOM      8  H   UNL     1      -0.984 -14.160  -7.291  0.00  0.00    +0.000 HD
ATOM      9  H   UNL     1      -2.338 -13.131  -6.819  0.00  0.00    +0.000 HD
BRANCH   7  10
ATOM     10  C   UNL     1      -0.401 -12.216  -6.545  0.00  0.00    +0.000 C 
ATOM     11  H   UNL     1       0.551 -12.137  -7.084  0.00  0.00    +0.000 HD
ATOM     12  H   UNL     1      -0.821 -11.205  -6.479  0.00  0.00    +0.000 HD
BRANCH  10  13
ATOM     13  C   UNL     1      -0.139 -12.736  -5.140  0.00  0.00    +0.000 C 
ATOM     14  H   UNL     1       0.496 -13.628  -5.164  0.00  0.00    +0.000 HD
ATOM     15  H   UNL     1      -1.075 -12.993  -4.635  0.00  0.00    +0.000 HD
ATOM     16  H   UNL     1       0.371 -11.974  -4.543  0.00  0.00    +0.000 HD
ENDBRANCH  10  13
ENDBRANCH   7  10
ENDBRANCH   4   7
ENDBRANCH   1   4
BRANCH   1  17
ATOM     17  C   UNL     1       0.000 -12.774 -10.820  0.00  0.00    +0.000 C 
ATOM     18  H   UNL     1       0.980 -13.261 -10.881  0.00  0.00    +0.000 HD
ATOM     19  H   UNL     1       0.003 -11.949 -11.541  0.00  0.00    +0.000 HD
BRANCH  17  20
ATOM     20  C   UNL     1      -1.097 -13.773 -11.186  0.00  0.00    +0.000 C 
ATOM     21  H   UNL     1      -2.081 -13.364 -10.927  0.00  0.00    +0.000 HD
ATOM     22  H   UNL     1      -0.988 -14.692 -10.595  0.00  0.00    +0.000 HD
BRANCH  20  23
ATOM     23  C   UNL     1      -1.064 -14.124 -12.667  0.00  0.00    +0.000 C 
ATOM     24  H   UNL     1      -1.719 -13.469 -13.251  0.00  0.00    +0.000 HD
ATOM     25  H   UNL     1      -0.049 -14.045 -13.068  0.00  0.00    +0.000 HD
BRANCH  23  26
ATOM     26  O   UNL     1      -1.502 -15.466 -12.831  0.00  0.00    +0.000 OA
ATOM     27  H   UNL     1      -1.361 -15.926 -11.986  0.00  0.00    +0.000 HD
ENDBRANCH  23  26
ENDBRANCH  20  23
ENDBRANCH  17  20
ENDBRANCH   1  17
TORSDOF 8
ENDMDL
MODEL 8
REMARK VINA RESULT:    -3.996      2.990      4.216
REMARK INTER + INTRA:          -5.946
REMARK INTER:                  -5.742
REMARK INTRA:                  -0.204
REMARK UNBOUND:                -0.315
REMARK  Name = 957
REMARK  8 active torsions:
REMARK  status: ('A' for Active; 'I' for Inactive)
REMARK    1  A    between atoms: O_1  and  C_8
REMARK    2  A    between atoms: C_2  and  C_3
REMARK    3  A    between atoms: C_2  and  C_4
REMARK    4  A    between atoms: C_3  and  C_5
REMARK    5  A    between atoms: C_4  and  C_6
REMARK    6  A    between atoms: C_5  and  C_7
REMARK    7  A    between atoms: C_6  and  C_8
REMARK    8  A    between atoms: C_7  and  C_9
REMARK                            x       y       z     vdW  Elec       q    Type
REMARK                         _______ _______ _______ _____ _____    ______ ____
ROOT
ATOM      1  C   UNL     1       6.984   1.002  -2.603  0.00  0.00    +0.000 C 
ATOM      2  H   UNL     1       6.863   1.949  -3.144  0.00  0.00    +0.000 HD
ATOM      3  H   UNL     1       8.032   0.701  -2.724  0.00  0.00    +0.000 HD
ENDROOT
BRANCH   1   4
ATOM      4  C   UNL     1       6.703   1.238  -1.116  0.00  0.00    +0.000 C 
ATOM      5  H   UNL     1       6.001   2.075  -1.011  0.00  0.00    +0.000 HD
ATOM      6  H   UNL     1       6.201   0.352  -0.707  0.00  0.00    +0.000 HD
BRANCH   4   7
ATOM      7  C   UNL     1       7.962   1.524  -0.296  0.00  0.00    +0.000 C 
ATOM      8  H   UNL     1       8.848   1.217  -0.864  0.00  0.00    +0.000 HD
ATOM      9  H   UNL     1       7.943   0.925   0.623  0.00  0.00    +0.000 HD
BRANCH   7  10
ATOM     10  C   UNL     1       8.063   3.007   0.062  0.00  0.00    +0.000 C 
ATOM     11  H   UNL     1       8.565   3.123   1.029  0.00  0.00    +0.000 HD
ATOM     12  H   UNL     1       8.672   3.531  -0.684  0.00  0.00    +0.000 HD
BRANCH  10  13
ATOM     13  C   UNL     1       6.691   3.659   0.129  0.00  0.00    +0.000 C 
ATOM     14  H   UNL     1       6.747   4.643   0.606  0.00  0.00    +0.000 HD
ATOM     15  H   UNL     1       5.989   3.041   0.698  0.00  0.00    +0.000 HD
ATOM     16  H   UNL     1       6.286   3.794  -0.879  0.00  0.00    +0.000 HD
ENDBRANCH  10  13
ENDBRANCH   7  10
ENDBRANCH   4   7
ENDBRANCH   1   4
BRANCH   1  17
ATOM     17  C   UNL     1       6.083  -0.063  -3.232  0.00  0.00    +0.000 C 
ATOM     18  H   UNL     1       5.085   0.357  -3.398  0.00  0.00    +0.000 HD
ATOM     19  H   UNL     1       5.970  -0.905  -2.538  0.00  0.00    +0.000 HD
BRANCH  17  20
ATOM     20  C   UNL     1       6.660  -0.564  -4.556  0.00  0.00    +0.000 C 
ATOM     21  H   UNL     1       6.478   0.173  -5.348  0.00  0.00    +0.000 HD
ATOM     22  H   UNL     1       6.146  -1.480  -4.873  0.00  0.00    +0.000 HD
BRANCH  20  23
ATOM     23  C   UNL     1       8.153  -0.839  -4.449  0.00  0.00    +0.000 C 
ATOM     24  H   UNL     1       8.597  -0.325  -3.590  0.00  0.00    +0.000 HD
ATOM     25  H   UNL     1       8.350  -1.911  -4.350  0.00  0.00    +0.000 HD
BRANCH  23  26
ATOM     26  O   UNL     1       8.791  -0.379  -5.633  0.00  0.00    +0.000 OA
ATOM     27  H   UNL     1       8.235  -0.641  -6.386  0.00  0.00    +0.000 HD
ENDBRANCH  23  26
ENDBRANCH  20  23
ENDBRANCH  17  20
ENDBRANCH   1  17
TORSDOF 8
ENDMDL
MODEL 9
REMARK VINA RESULT:    -3.809     16.640     17.707
REMARK INTER + INTRA:          -5.683
REMARK INTER:                  -5.368
REMARK INTRA:                  -0.315
REMARK UNBOUND:                -0.315
REMARK  Name = 957
REMARK  8 active torsions:
REMARK  status: ('A' for Active; 'I' for Inactive)
REMARK    1  A    between atoms: O_1  and  C_8
REMARK    2  A    between atoms: C_2  and  C_3
REMARK    3  A    between atoms: C_2  and  C_4
REMARK    4  A    between atoms: C_3  and  C_5
REMARK    5  A    between atoms: C_4  and  C_6
REMARK    6  A    between atoms: C_5  and  C_7
REMARK    7  A    between atoms: C_6  and  C_8
REMARK    8  A    between atoms: C_7  and  C_9
REMARK                            x       y       z     vdW  Elec       q    Type
REMARK                         _______ _______ _______ _____ _____    ______ ____
ROOT
ATOM      1  C   UNL     1      -1.265 -15.554 -10.658  0.00  0.00    +0.000 C 
ATOM      2  H   UNL     1      -0.334 -15.780 -10.123  0.00  0.00    +0.000 HD
ATOM      3  H   UNL     1      -1.949 -16.390 -10.468  0.00  0.00    +0.000 HD
ENDROOT
BRANCH   1   4
ATOM      4  C   UNL     1      -1.874 -14.272 -10.082  0.00  0.00    +0.000 C 
ATOM      5  H   UNL     1      -1.693 -13.444 -10.780  0.00  0.00    +0.000 HD
ATOM      6  H   UNL     1      -2.961 -14.397 -10.015  0.00  0.00    +0.000 HD
BRANCH   4   7
ATOM      7  C   UNL     1      -1.325 -13.904  -8.703  0.00  0.00    +0.000 C 
ATOM      8  H   UNL     1      -0.588 -14.653  -8.389  0.00  0.00    +0.000 HD
ATOM      9  H   UNL     1      -2.140 -13.924  -7.969  0.00  0.00    +0.000 HD
BRANCH   7  10
ATOM     10  C   UNL     1      -0.682 -12.516  -8.716  0.00  0.00    +0.000 C 
ATOM     11  H   UNL     1       0.228 -12.533  -9.326  0.00  0.00    +0.000 HD
ATOM     12  H   UNL     1      -1.367 -11.792  -9.173  0.00  0.00    +0.000 HD
BRANCH  10  13
ATOM     13  C   UNL     1      -0.334 -12.051  -7.311  0.00  0.00    +0.000 C 
ATOM     14  H   UNL     1       0.492 -11.332  -7.329  0.00  0.00    +0.000 HD
ATOM     15  H   UNL     1      -0.041 -12.895  -6.678  0.00  0.00    +0.000 HD
ATOM     16  H   UNL     1      -1.198 -11.563  -6.848  0.00  0.00    +0.000 HD
ENDBRANCH  10  13
ENDBRANCH   7  10
ENDBRANCH   4   7
ENDBRANCH   1   4
BRANCH   1  17
ATOM     17  C   UNL     1      -0.983 -15.472 -12.160  0.00  0.00    +0.000 C 
ATOM     18  H   UNL     1      -1.651 -16.159 -12.694  0.00  0.00    +0.000 HD
ATOM     19  H   UNL     1       0.044 -15.799 -12.360  0.00  0.00    +0.000 HD
BRANCH  17  20
ATOM     20  C   UNL     1      -1.180 -14.050 -12.683  0.00  0.00    +0.000 C 
ATOM     21  H   UNL     1      -1.692 -13.439 -11.930  0.00  0.00    +0.000 HD
ATOM     22  H   UNL     1      -1.837 -14.055 -13.563  0.00  0.00    +0.000 HD
BRANCH  20  23
ATOM     23  C   UNL     1       0.145 -13.399 -13.052  0.00  0.00    +0.000 C 
ATOM     24  H   UNL     1       0.874 -14.138 -13.400  0.00  0.00    +0.000 HD
ATOM     25  H   UNL     1       0.011 -12.648 -13.837  0.00  0.00    +0.000 HD
BRANCH  23  26
ATOM     26  O   UNL     1       0.672 -12.748 -11.903  0.00  0.00    +0.000 OA
ATOM     27  H   UNL     1       1.525 -13.166 -11.694  0.00  0.00    +0.000 HD
ENDBRANCH  23  26
ENDBRANCH  20  23
ENDBRANCH  17  20
ENDBRANCH   1  17
TORSDOF 8
ENDMDL
MODEL 10
REMARK VINA RESULT:    -3.803      8.037      9.382
REMARK INTER + INTRA:          -5.674
REMARK INTER:                  -5.319
REMARK INTRA:                  -0.355
REMARK UNBOUND:                -0.315
REMARK  Name = 957
REMARK  8 active torsions:
REMARK  status: ('A' for Active; 'I' for Inactive)
REMARK    1  A    between atoms: O_1  and  C_8
REMARK    2  A    between atoms: C_2  and  C_3
REMARK    3  A    between atoms: C_2  and  C_4
REMARK    4  A    between atoms: C_3  and  C_5
REMARK    5  A    between atoms: C_4  and  C_6
REMARK    6  A    between atoms: C_5  and  C_7
REMARK    7  A    between atoms: C_6  and  C_8
REMARK    8  A    between atoms: C_7  and  C_9
REMARK                            x       y       z     vdW  Elec       q    Type
REMARK                         _______ _______ _______ _____ _____    ______ ____
ROOT
ATOM      1  C   UNL     1      10.939   7.866  -4.317  0.00  0.00    +0.000 C 
ATOM      2  H   UNL     1      10.774   8.810  -4.852  0.00  0.00    +0.000 HD
ATOM      3  H   UNL     1      10.734   7.058  -5.031  0.00  0.00    +0.000 HD
ENDROOT
BRANCH   1   4
ATOM      4  C   UNL     1      12.406   7.788  -3.884  0.00  0.00    +0.000 C 
ATOM      5  H   UNL     1      12.737   8.782  -3.553  0.00  0.00    +0.000 HD
ATOM      6  H   UNL     1      12.483   7.124  -3.014  0.00  0.00    +0.000 HD
BRANCH   4   7
ATOM      7  C   UNL     1      13.340   7.282  -4.985  0.00  0.00    +0.000 C 
ATOM      8  H   UNL     1      14.063   8.064  -5.242  0.00  0.00    +0.000 HD
ATOM      9  H   UNL     1      12.756   7.071  -5.890  0.00  0.00    +0.000 HD
BRANCH   7  10
ATOM     10  C   UNL     1      14.077   6.016  -4.546  0.00  0.00    +0.000 C 
ATOM     11  H   UNL     1      14.630   5.595  -5.393  0.00  0.00    +0.000 HD
ATOM     12  H   UNL     1      14.811   6.262  -3.769  0.00  0.00    +0.000 HD
BRANCH  10  13
ATOM     13  C   UNL     1      13.115   4.970  -4.006  0.00  0.00    +0.000 C 
ATOM     14  H   UNL     1      12.947   4.176  -4.741  0.00  0.00    +0.000 HD
ATOM     15  H   UNL     1      12.148   5.417  -3.756  0.00  0.00    +0.000 HD
ATOM     16  H   UNL     1      13.523   4.511  -3.100  0.00  0.00    +0.000 HD
ENDBRANCH  10  13
ENDBRANCH   7  10
ENDBRANCH   4   7
ENDBRANCH   1   4
BRANCH   1  17
ATOM     17  C   UNL     1       9.954   7.763  -3.150  0.00  0.00    +0.000 C 
ATOM     18  H   UNL     1       8.981   7.425  -3.525  0.00  0.00    +0.000 HD
ATOM     19  H   UNL     1       9.804   8.753  -2.706  0.00  0.00    +0.000 HD
BRANCH  17  20
ATOM     20  C   UNL     1      10.461   6.793  -2.083  0.00  0.00    +0.000 C 
ATOM     21  H   UNL     1      11.415   6.353  -2.397  0.00  0.00    +0.000 HD
ATOM     22  H   UNL     1       9.764   5.952  -1.971  0.00  0.00    +0.000 HD
BRANCH  20  23
ATOM     23  C   UNL     1      10.636   7.482  -0.737  0.00  0.00    +0.000 C 
ATOM     24  H   UNL     1      10.315   8.528  -0.775  0.00  0.00    +0.000 HD
ATOM     25  H   UNL     1      10.063   6.972   0.044  0.00  0.00    +0.000 HD
BRANCH  23  26
ATOM     26  O   UNL     1      12.010   7.441  -0.376  0.00  0.00    +0.000 OA
ATOM     27  H   UNL     1      12.173   8.175   0.240  0.00  0.00    +0.000 HD
ENDBRANCH  23  26
ENDBRANCH  20  23
ENDBRANCH  17  20
ENDBRANCH   1  17
TORSDOF 8
ENDMDL
