MODEL 1
REMARK VINA RESULT:    -5.335      0.000      0.000
REMARK INTER + INTRA:          -8.723
REMARK INTER:                  -7.960
REMARK INTRA:                  -0.763
REMARK UNBOUND:                -0.269
REMARK  Name = 22556
REMARK  11 active torsions:
REMARK  status: ('A' for Active; 'I' for Inactive)
REMARK    1  A    between atoms: C_2  and  C_3
REMARK    2  A    between atoms: C_2  and  C_4
REMARK    3  A    between atoms: C_3  and  C_5
REMARK    4  A    between atoms: C_4  and  C_6
REMARK    5  A    between atoms: C_5  and  C_7
REMARK    6  A    between atoms: C_6  and  C_8
REMARK    7  A    between atoms: C_7  and  C_9
REMARK    8  A    between atoms: C_8  and  C_10
REMARK    9  A    between atoms: C_9  and  C_11
REMARK   10  A    between atoms: C_10  and  C_12
REMARK   11  A    between atoms: C_12  and  C_13
REMARK                            x       y       z     vdW  Elec       q    Type
REMARK                         _______ _______ _______ _____ _____    ______ ____
ROOT
ATOM      1  C   UNL     1       9.028   0.267  -1.836  0.00  0.00    +0.000 C 
ATOM      2  H   UNL     1       8.117   0.636  -2.322  0.00  0.00    +0.000 HD
ATOM      3  H   UNL     1       9.839   0.340  -2.573  0.00  0.00    +0.000 HD
ENDROOT
BRANCH   1   4
ATOM      4  C   UNL     1       9.357   1.138  -0.621  0.00  0.00    +0.000 C 
ATOM      5  H   UNL     1      10.108   1.889  -0.894  0.00  0.00    +0.000 HD
ATOM      6  H   UNL     1       9.791   0.517   0.170  0.00  0.00    +0.000 HD
BRANCH   4   7
ATOM      7  C   UNL     1       8.106   1.843  -0.090  0.00  0.00    +0.000 C 
ATOM      8  H   UNL     1       7.350   1.892  -0.884  0.00  0.00    +0.000 HD
ATOM      9  H   UNL     1       7.674   1.242   0.721  0.00  0.00    +0.000 HD
BRANCH   7  10
ATOM     10  C   UNL     1       8.378   3.258   0.428  0.00  0.00    +0.000 C 
ATOM     11  H   UNL     1       9.171   3.716  -0.176  0.00  0.00    +0.000 HD
ATOM     12  H   UNL     1       8.762   3.191   1.454  0.00  0.00    +0.000 HD
BRANCH  10  13
ATOM     13  C   UNL     1       7.143   4.159   0.415  0.00  0.00    +0.000 C 
ATOM     14  H   UNL     1       6.802   4.336   1.443  0.00  0.00    +0.000 HD
ATOM     15  H   UNL     1       7.398   5.134  -0.015  0.00  0.00    +0.000 HD
BRANCH  13  16
ATOM     16  C   UNL     1       6.012   3.538  -0.393  0.00  0.00    +0.000 C 
ATOM     17  H   UNL     1       6.156   2.459  -0.502  0.00  0.00    +0.000 HD
ATOM     18  H   UNL     1       5.956   3.981  -1.392  0.00  0.00    +0.000 HD
ATOM     19  H   UNL     1       5.053   3.705   0.108  0.00  0.00    +0.000 HD
ENDBRANCH  13  16
ENDBRANCH  10  13
ENDBRANCH   7  10
ENDBRANCH   4   7
ENDBRANCH   1   4
BRANCH   1  20
ATOM     20  C   UNL     1       8.837  -1.197  -1.433  0.00  0.00    +0.000 C 
ATOM     21  H   UNL     1       8.166  -1.251  -0.567  0.00  0.00    +0.000 HD
ATOM     22  H   UNL     1       9.802  -1.609  -1.113  0.00  0.00    +0.000 HD
BRANCH  20  23
ATOM     23  C   UNL     1       8.274  -2.069  -2.559  0.00  0.00    +0.000 C 
ATOM     24  H   UNL     1       8.310  -3.121  -2.250  0.00  0.00    +0.000 HD
ATOM     25  H   UNL     1       8.919  -1.977  -3.442  0.00  0.00    +0.000 HD
BRANCH  23  26
ATOM     26  C   UNL     1       6.835  -1.710  -2.943  0.00  0.00    +0.000 C 
ATOM     27  H   UNL     1       6.464  -0.918  -2.281  0.00  0.00    +0.000 HD
ATOM     28  H   UNL     1       6.189  -2.582  -2.780  0.00  0.00    +0.000 HD
BRANCH  26  29
ATOM     29  C   UNL     1       6.719  -1.253  -4.397  0.00  0.00    +0.000 C 
ATOM     30  H   UNL     1       6.273  -2.053  -5.000  0.00  0.00    +0.000 HD
ATOM     31  H   UNL     1       7.717  -1.037  -4.794  0.00  0.00    +0.000 HD
BRANCH  29  33
ATOM     32  O   UNL     1       5.304   0.261  -5.645  0.00  0.00    +0.000 OA
ATOM     33  C   UNL     1       5.863  -0.011  -4.584  0.00  0.00    +0.000 C 
BRANCH  33  34
ATOM     34  C   UNL     1       5.759   0.908  -3.395  0.00  0.00    +0.000 C 
ATOM     35  H   UNL     1       5.868   0.329  -2.474  0.00  0.00    +0.000 HD
ATOM     36  H   UNL     1       4.779   1.394  -3.388  0.00  0.00    +0.000 HD
ATOM     37  H   UNL     1       6.536   1.674  -3.455  0.00  0.00    +0.000 HD
ENDBRANCH  33  34
ENDBRANCH  29  33
ENDBRANCH  26  29
ENDBRANCH  23  26
ENDBRANCH  20  23
ENDBRANCH   1  20
TORSDOF 11
ENDMDL
MODEL 2
REMARK VINA RESULT:    -5.327      1.618      2.794
REMARK INTER + INTRA:          -8.711
REMARK INTER:                  -8.052
REMARK INTRA:                  -0.660
REMARK UNBOUND:                -0.269
REMARK  Name = 22556
REMARK  11 active torsions:
REMARK  status: ('A' for Active; 'I' for Inactive)
REMARK    1  A    between atoms: C_2  and  C_3
REMARK    2  A    between atoms: C_2  and  C_4
REMARK    3  A    between atoms: C_3  and  C_5
REMARK    4  A    between atoms: C_4  and  C_6
REMARK    5  A    between atoms: C_5  and  C_7
REMARK    6  A    between atoms: C_6  and  C_8
REMARK    7  A    between atoms: C_7  and  C_9
REMARK    8  A    between atoms: C_8  and  C_10
REMARK    9  A    between atoms: C_9  and  C_11
REMARK   10  A    between atoms: C_10  and  C_12
REMARK   11  A    between atoms: C_12  and  C_13
REMARK                            x       y       z     vdW  Elec       q    Type
REMARK                         _______ _______ _______ _____ _____    ______ ____
ROOT
ATOM      1  C   UNL     1       7.030   1.287  -1.831  0.00  0.00    +0.000 C 
ATOM      2  H   UNL     1       6.755   2.297  -2.157  0.00  0.00    +0.000 HD
ATOM      3  H   UNL     1       7.952   1.016  -2.360  0.00  0.00    +0.000 HD
ENDROOT
BRANCH   1   4
ATOM      4  C   UNL     1       7.281   1.279  -0.321  0.00  0.00    +0.000 C 
ATOM      5  H   UNL     1       8.331   1.520  -0.118  0.00  0.00    +0.000 HD
ATOM      6  H   UNL     1       7.096   0.275   0.078  0.00  0.00    +0.000 HD
BRANCH   4   7
ATOM      7  C   UNL     1       6.382   2.289   0.396  0.00  0.00    +0.000 C 
ATOM      8  H   UNL     1       5.332   1.995   0.274  0.00  0.00    +0.000 HD
ATOM      9  H   UNL     1       6.596   2.258   1.472  0.00  0.00    +0.000 HD
BRANCH   7  10
ATOM     10  C   UNL     1       6.559   3.725  -0.106  0.00  0.00    +0.000 C 
ATOM     11  H   UNL     1       5.795   4.364   0.354  0.00  0.00    +0.000 HD
ATOM     12  H   UNL     1       6.379   3.747  -1.188  0.00  0.00    +0.000 HD
BRANCH  10  13
ATOM     13  C   UNL     1       7.945   4.303   0.182  0.00  0.00    +0.000 C 
ATOM     14  H   UNL     1       8.690   3.498   0.181  0.00  0.00    +0.000 HD
ATOM     15  H   UNL     1       8.226   5.007  -0.611  0.00  0.00    +0.000 HD
BRANCH  13  16
ATOM     16  C   UNL     1       7.979   5.023   1.522  0.00  0.00    +0.000 C 
ATOM     17  H   UNL     1       7.744   6.085   1.401  0.00  0.00    +0.000 HD
ATOM     18  H   UNL     1       8.966   4.940   1.987  0.00  0.00    +0.000 HD
ATOM     19  H   UNL     1       7.244   4.587   2.205  0.00  0.00    +0.000 HD
ENDBRANCH  13  16
ENDBRANCH  10  13
ENDBRANCH   7  10
ENDBRANCH   4   7
ENDBRANCH   1   4
BRANCH   1  20
ATOM     20  C   UNL     1       5.919   0.306  -2.212  0.00  0.00    +0.000 C 
ATOM     21  H   UNL     1       5.129   0.337  -1.451  0.00  0.00    +0.000 HD
ATOM     22  H   UNL     1       6.323  -0.714  -2.208  0.00  0.00    +0.000 HD
BRANCH  20  23
ATOM     23  C   UNL     1       5.302   0.589  -3.585  0.00  0.00    +0.000 C 
ATOM     24  H   UNL     1       5.257   1.674  -3.742  0.00  0.00    +0.000 HD
ATOM     25  H   UNL     1       4.266   0.225  -3.595  0.00  0.00    +0.000 HD
BRANCH  23  26
ATOM     26  C   UNL     1       6.075  -0.052  -4.743  0.00  0.00    +0.000 C 
ATOM     27  H   UNL     1       6.779   0.677  -5.163  0.00  0.00    +0.000 HD
ATOM     28  H   UNL     1       5.375  -0.308  -5.547  0.00  0.00    +0.000 HD
BRANCH  26  29
ATOM     29  C   UNL     1       6.837  -1.303  -4.309  0.00  0.00    +0.000 C 
ATOM     30  H   UNL     1       6.583  -2.138  -4.972  0.00  0.00    +0.000 HD
ATOM     31  H   UNL     1       6.548  -1.574  -3.287  0.00  0.00    +0.000 HD
BRANCH  29  33
ATOM     32  O   UNL     1       8.953  -0.680  -5.304  0.00  0.00    +0.000 OA
ATOM     33  C   UNL     1       8.348  -1.143  -4.338  0.00  0.00    +0.000 C 
BRANCH  33  34
ATOM     34  C   UNL     1       9.090  -1.620  -3.117  0.00  0.00    +0.000 C 
ATOM     35  H   UNL     1       9.976  -1.000  -2.959  0.00  0.00    +0.000 HD
ATOM     36  H   UNL     1       9.409  -2.656  -3.260  0.00  0.00    +0.000 HD
ATOM     37  H   UNL     1       8.432  -1.568  -2.245  0.00  0.00    +0.000 HD
ENDBRANCH  33  34
ENDBRANCH  29  33
ENDBRANCH  26  29
ENDBRANCH  23  26
ENDBRANCH  20  23
ENDBRANCH   1  20
TORSDOF 11
ENDMDL
MODEL 3
REMARK VINA RESULT:    -4.694     16.808     18.687
REMARK INTER + INTRA:          -7.708
REMARK INTER:                  -6.819
REMARK INTRA:                  -0.889
REMARK UNBOUND:                -0.269
REMARK  Name = 22556
REMARK  11 active torsions:
REMARK  status: ('A' for Active; 'I' for Inactive)
REMARK    1  A    between atoms: C_2  and  C_3
REMARK    2  A    between atoms: C_2  and  C_4
REMARK    3  A    between atoms: C_3  and  C_5
REMARK    4  A    between atoms: C_4  and  C_6
REMARK    5  A    between atoms: C_5  and  C_7
REMARK    6  A    between atoms: C_6  and  C_8
REMARK    7  A    between atoms: C_7  and  C_9
REMARK    8  A    between atoms: C_8  and  C_10
REMARK    9  A    between atoms: C_9  and  C_11
REMARK   10  A    between atoms: C_10  and  C_12
REMARK   11  A    between atoms: C_12  and  C_13
REMARK                            x       y       z     vdW  Elec       q    Type
REMARK                         _______ _______ _______ _____ _____    ______ ____
ROOT
ATOM      1  C   UNL     1      -0.777 -12.886  -6.446  0.00  0.00    +0.000 C 
ATOM      2  H   UNL     1      -0.597 -11.926  -5.948  0.00  0.00    +0.000 HD
ATOM      3  H   UNL     1       0.198 -13.376  -6.564  0.00  0.00    +0.000 HD
ENDROOT
BRANCH   1   4
ATOM      4  C   UNL     1      -1.689 -13.757  -5.580  0.00  0.00    +0.000 C 
ATOM      5  H   UNL     1      -2.723 -13.683  -5.937  0.00  0.00    +0.000 HD
ATOM      6  H   UNL     1      -1.676 -13.390  -4.547  0.00  0.00    +0.000 HD
BRANCH   4   7
ATOM      7  C   UNL     1      -1.247 -15.222  -5.608  0.00  0.00    +0.000 C 
ATOM      8  H   UNL     1      -0.173 -15.275  -5.824  0.00  0.00    +0.000 HD
ATOM      9  H   UNL     1      -1.391 -15.659  -4.612  0.00  0.00    +0.000 HD
BRANCH   7  10
ATOM     10  C   UNL     1      -2.005 -16.067  -6.637  0.00  0.00    +0.000 C 
ATOM     11  H   UNL     1      -2.918 -15.536  -6.936  0.00  0.00    +0.000 HD
ATOM     12  H   UNL     1      -2.325 -17.002  -6.160  0.00  0.00    +0.000 HD
BRANCH  10  13
ATOM     13  C   UNL     1      -1.178 -16.397  -7.880  0.00  0.00    +0.000 C 
ATOM     14  H   UNL     1      -0.257 -15.802  -7.881  0.00  0.00    +0.000 HD
ATOM     15  H   UNL     1      -0.883 -17.453  -7.860  0.00  0.00    +0.000 HD
BRANCH  13  16
ATOM     16  C   UNL     1      -1.960 -16.122  -9.156  0.00  0.00    +0.000 C 
ATOM     17  H   UNL     1      -1.294 -15.795  -9.960  0.00  0.00    +0.000 HD
ATOM     18  H   UNL     1      -2.713 -15.344  -8.995  0.00  0.00    +0.000 HD
ATOM     19  H   UNL     1      -2.475 -17.029  -9.487  0.00  0.00    +0.000 HD
ENDBRANCH  13  16
ENDBRANCH  10  13
ENDBRANCH   7  10
ENDBRANCH   4   7
ENDBRANCH   1   4
BRANCH   1  20
ATOM     20  C   UNL     1      -1.392 -12.640  -7.826  0.00  0.00    +0.000 C 
ATOM     21  H   UNL     1      -2.095 -11.800  -7.766  0.00  0.00    +0.000 HD
ATOM     22  H   UNL     1      -1.975 -13.521  -8.120  0.00  0.00    +0.000 HD
BRANCH  20  23
ATOM     23  C   UNL     1      -0.353 -12.347  -8.912  0.00  0.00    +0.000 C 
ATOM     24  H   UNL     1       0.623 -12.732  -8.589  0.00  0.00    +0.000 HD
ATOM     25  H   UNL     1      -0.244 -11.260  -9.021  0.00  0.00    +0.000 HD
BRANCH  23  26
ATOM     26  C   UNL     1      -0.706 -12.959 -10.272  0.00  0.00    +0.000 C 
ATOM     27  H   UNL     1      -1.636 -12.513 -10.646  0.00  0.00    +0.000 HD
ATOM     28  H   UNL     1      -0.903 -14.031 -10.145  0.00  0.00    +0.000 HD
BRANCH  26  29
ATOM     29  C   UNL     1       0.403 -12.761 -11.303  0.00  0.00    +0.000 C 
ATOM     30  H   UNL     1       1.304 -13.299 -10.984  0.00  0.00    +0.000 HD
ATOM     31  H   UNL     1       0.647 -11.695 -11.380  0.00  0.00    +0.000 HD
BRANCH  29  33
ATOM     32  O   UNL     1       0.619 -12.872 -13.710  0.00  0.00    +0.000 OA
ATOM     33  C   UNL     1       0.045 -13.259 -12.694  0.00  0.00    +0.000 C 
BRANCH  33  34
ATOM     34  C   UNL     1      -1.093 -14.241 -12.774  0.00  0.00    +0.000 C 
ATOM     35  H   UNL     1      -0.698 -15.249 -12.928  0.00  0.00    +0.000 HD
ATOM     36  H   UNL     1      -1.742 -13.988 -13.617  0.00  0.00    +0.000 HD
ATOM     37  H   UNL     1      -1.677 -14.201 -11.851  0.00  0.00    +0.000 HD
ENDBRANCH  33  34
ENDBRANCH  29  33
ENDBRANCH  26  29
ENDBRANCH  23  26
ENDBRANCH  20  23
ENDBRANCH   1  20
TORSDOF 11
ENDMDL
MODEL 4
REMARK VINA RESULT:    -4.622     16.343     18.769
REMARK INTER + INTRA:          -7.594
REMARK INTER:                  -6.911
REMARK INTRA:                  -0.683
REMARK UNBOUND:                -0.269
REMARK  Name = 22556
REMARK  11 active torsions:
REMARK  status: ('A' for Active; 'I' for Inactive)
REMARK    1  A    between atoms: C_2  and  C_3
REMARK    2  A    between atoms: C_2  and  C_4
REMARK    3  A    between atoms: C_3  and  C_5
REMARK    4  A    between atoms: C_4  and  C_6
REMARK    5  A    between atoms: C_5  and  C_7
REMARK    6  A    between atoms: C_6  and  C_8
REMARK    7  A    between atoms: C_7  and  C_9
REMARK    8  A    between atoms: C_8  and  C_10
REMARK    9  A    between atoms: C_9  and  C_11
REMARK   10  A    between atoms: C_10  and  C_12
REMARK   11  A    between atoms: C_12  and  C_13
REMARK                            x       y       z     vdW  Elec       q    Type
REMARK                         _______ _______ _______ _____ _____    ______ ____
ROOT
ATOM      1  C   UNL     1      -1.561 -14.054  -9.018  0.00  0.00    +0.000 C 
ATOM      2  H   UNL     1      -2.597 -13.778  -8.789  0.00  0.00    +0.000 HD
ATOM      3  H   UNL     1      -1.193 -14.653  -8.175  0.00  0.00    +0.000 HD
ENDROOT
BRANCH   1   4
ATOM      4  C   UNL     1      -1.516 -14.888 -10.301  0.00  0.00    +0.000 C 
ATOM      5  H   UNL     1      -2.274 -15.679 -10.256  0.00  0.00    +0.000 HD
ATOM      6  H   UNL     1      -0.540 -15.378 -10.387  0.00  0.00    +0.000 HD
BRANCH   4   7
ATOM      7  C   UNL     1      -1.764 -14.018 -11.536  0.00  0.00    +0.000 C 
ATOM      8  H   UNL     1      -2.818 -14.095 -11.831  0.00  0.00    +0.000 HD
ATOM      9  H   UNL     1      -1.586 -12.967 -11.275  0.00  0.00    +0.000 HD
BRANCH   7  10
ATOM     10  C   UNL     1      -0.882 -14.391 -12.730  0.00  0.00    +0.000 C 
ATOM     11  H   UNL     1      -1.363 -14.048 -13.654  0.00  0.00    +0.000 HD
ATOM     12  H   UNL     1      -0.818 -15.485 -12.795  0.00  0.00    +0.000 HD
BRANCH  10  13
ATOM     13  C   UNL     1       0.531 -13.813 -12.647  0.00  0.00    +0.000 C 
ATOM     14  H   UNL     1       0.716 -13.430 -11.636  0.00  0.00    +0.000 HD
ATOM     15  H   UNL     1       1.268 -14.602 -12.836  0.00  0.00    +0.000 HD
BRANCH  13  16
ATOM     16  C   UNL     1       0.732 -12.693 -13.657  0.00  0.00    +0.000 C 
ATOM     17  H   UNL     1       1.342 -13.032 -14.501  0.00  0.00    +0.000 HD
ATOM     18  H   UNL     1       1.229 -11.833 -13.197  0.00  0.00    +0.000 HD
ATOM     19  H   UNL     1      -0.233 -12.358 -14.049  0.00  0.00    +0.000 HD
ENDBRANCH  13  16
ENDBRANCH  10  13
ENDBRANCH   7  10
ENDBRANCH   4   7
ENDBRANCH   1   4
BRANCH   1  20
ATOM     20  C   UNL     1      -0.711 -12.788  -9.150  0.00  0.00    +0.000 C 
ATOM     21  H   UNL     1      -1.247 -12.052  -9.761  0.00  0.00    +0.000 HD
ATOM     22  H   UNL     1       0.214 -13.031  -9.687  0.00  0.00    +0.000 HD
BRANCH  20  23
ATOM     23  C   UNL     1      -0.350 -12.153  -7.803  0.00  0.00    +0.000 C 
ATOM     24  H   UNL     1      -0.505 -11.069  -7.864  0.00  0.00    +0.000 HD
ATOM     25  H   UNL     1       0.719 -12.310  -7.607  0.00  0.00    +0.000 HD
BRANCH  23  26
ATOM     26  C   UNL     1      -1.167 -12.709  -6.632  0.00  0.00    +0.000 C 
ATOM     27  H   UNL     1      -1.636 -13.656  -6.927  0.00  0.00    +0.000 HD
ATOM     28  H   UNL     1      -1.984 -12.015  -6.400  0.00  0.00    +0.000 HD
BRANCH  26  29
ATOM     29  C   UNL     1      -0.314 -12.931  -5.384  0.00  0.00    +0.000 C 
ATOM     30  H   UNL     1      -0.571 -12.182  -4.625  0.00  0.00    +0.000 HD
ATOM     31  H   UNL     1       0.745 -12.816  -5.637  0.00  0.00    +0.000 HD
BRANCH  29  33
ATOM     32  O   UNL     1       0.302 -14.775  -3.945  0.00  0.00    +0.000 OA
ATOM     33  C   UNL     1      -0.496 -14.301  -4.751  0.00  0.00    +0.000 C 
BRANCH  33  34
ATOM     34  C   UNL     1      -1.705 -15.082  -5.195  0.00  0.00    +0.000 C 
ATOM     35  H   UNL     1      -2.463 -14.395  -5.582  0.00  0.00    +0.000 HD
ATOM     36  H   UNL     1      -2.127 -15.625  -4.345  0.00  0.00    +0.000 HD
ATOM     37  H   UNL     1      -1.415 -15.799  -5.967  0.00  0.00    +0.000 HD
ENDBRANCH  33  34
ENDBRANCH  29  33
ENDBRANCH  26  29
ENDBRANCH  23  26
ENDBRANCH  20  23
ENDBRANCH   1  20
TORSDOF 11
ENDMDL
MODEL 5
REMARK VINA RESULT:    -4.543      4.160      6.309
REMARK INTER + INTRA:          -7.468
REMARK INTER:                  -7.092
REMARK INTRA:                  -0.376
REMARK UNBOUND:                -0.269
REMARK  Name = 22556
REMARK  11 active torsions:
REMARK  status: ('A' for Active; 'I' for Inactive)
REMARK    1  A    between atoms: C_2  and  C_3
REMARK    2  A    between atoms: C_2  and  C_4
REMARK    3  A    between atoms: C_3  and  C_5
REMARK    4  A    between atoms: C_4  and  C_6
REMARK    5  A    between atoms: C_5  and  C_7
REMARK    6  A    between atoms: C_6  and  C_8
REMARK    7  A    between atoms: C_7  and  C_9
REMARK    8  A    between atoms: C_8  and  C_10
REMARK    9  A    between atoms: C_9  and  C_11
REMARK   10  A    between atoms: C_10  and  C_12
REMARK   11  A    between atoms: C_12  and  C_13
REMARK                            x       y       z     vdW  Elec       q    Type
REMARK                         _______ _______ _______ _____ _____    ______ ____
ROOT
ATOM      1  C   UNL     1       8.711  -0.458  -1.169  0.00  0.00    +0.000 C 
ATOM      2  H   UNL     1       8.014  -1.254  -0.880  0.00  0.00    +0.000 HD
ATOM      3  H   UNL     1       9.567  -0.940  -1.659  0.00  0.00    +0.000 HD
ENDROOT
BRANCH   1   4
ATOM      4  C   UNL     1       8.028   0.499  -2.149  0.00  0.00    +0.000 C 
ATOM      5  H   UNL     1       8.502   0.423  -3.135  0.00  0.00    +0.000 HD
ATOM      6  H   UNL     1       8.158   1.532  -1.806  0.00  0.00    +0.000 HD
BRANCH   4   7
ATOM      7  C   UNL     1       6.535   0.187  -2.280  0.00  0.00    +0.000 C 
ATOM      8  H   UNL     1       6.408  -0.803  -2.735  0.00  0.00    +0.000 HD
ATOM      9  H   UNL     1       6.092   0.132  -1.277  0.00  0.00    +0.000 HD
BRANCH   7  10
ATOM     10  C   UNL     1       5.767   1.220  -3.108  0.00  0.00    +0.000 C 
ATOM     11  H   UNL     1       6.469   1.979  -3.477  0.00  0.00    +0.000 HD
ATOM     12  H   UNL     1       5.055   1.740  -2.454  0.00  0.00    +0.000 HD
BRANCH  10  13
ATOM     13  C   UNL     1       5.009   0.612  -4.288  0.00  0.00    +0.000 C 
ATOM     14  H   UNL     1       4.242  -0.079  -3.920  0.00  0.00    +0.000 HD
ATOM     15  H   UNL     1       4.493   1.402  -4.847  0.00  0.00    +0.000 HD
BRANCH  13  16
ATOM     16  C   UNL     1       5.948  -0.130  -5.228  0.00  0.00    +0.000 C 
ATOM     17  H   UNL     1       5.398  -0.844  -5.848  0.00  0.00    +0.000 HD
ATOM     18  H   UNL     1       6.712  -0.678  -4.668  0.00  0.00    +0.000 HD
ATOM     19  H   UNL     1       6.455   0.577  -5.892  0.00  0.00    +0.000 HD
ENDBRANCH  13  16
ENDBRANCH  10  13
ENDBRANCH   7  10
ENDBRANCH   4   7
ENDBRANCH   1   4
BRANCH   1  20
ATOM     20  C   UNL     1       9.193   0.281   0.082  0.00  0.00    +0.000 C 
ATOM     21  H   UNL     1       8.772   1.294   0.090  0.00  0.00    +0.000 HD
ATOM     22  H   UNL     1      10.283   0.391   0.036  0.00  0.00    +0.000 HD
BRANCH  20  23
ATOM     23  C   UNL     1       8.819  -0.427   1.388  0.00  0.00    +0.000 C 
ATOM     24  H   UNL     1       8.041  -1.172   1.183  0.00  0.00    +0.000 HD
ATOM     25  H   UNL     1       8.383   0.305   2.080  0.00  0.00    +0.000 HD
BRANCH  23  26
ATOM     26  C   UNL     1      10.007  -1.120   2.064  0.00  0.00    +0.000 C 
ATOM     27  H   UNL     1      10.365  -0.505   2.900  0.00  0.00    +0.000 HD
ATOM     28  H   UNL     1      10.837  -1.191   1.352  0.00  0.00    +0.000 HD
BRANCH  26  29
ATOM     29  C   UNL     1       9.651  -2.514   2.576  0.00  0.00    +0.000 C 
ATOM     30  H   UNL     1      10.569  -3.077   2.783  0.00  0.00    +0.000 HD
ATOM     31  H   UNL     1       9.082  -3.053   1.810  0.00  0.00    +0.000 HD
BRANCH  29  33
ATOM     32  O   UNL     1       7.932  -3.325   4.074  0.00  0.00    +0.000 OA
ATOM     33  C   UNL     1       8.824  -2.508   3.852  0.00  0.00    +0.000 C 
BRANCH  33  34
ATOM     34  C   UNL     1       9.131  -1.410   4.835  0.00  0.00    +0.000 C 
ATOM     35  H   UNL     1       9.039  -1.794   5.855  0.00  0.00    +0.000 HD
ATOM     36  H   UNL     1       8.420  -0.589   4.707  0.00  0.00    +0.000 HD
ATOM     37  H   UNL     1      10.143  -1.035   4.663  0.00  0.00    +0.000 HD
ENDBRANCH  33  34
ENDBRANCH  29  33
ENDBRANCH  26  29
ENDBRANCH  23  26
ENDBRANCH  20  23
ENDBRANCH   1  20
TORSDOF 11
ENDMDL
MODEL 6
REMARK VINA RESULT:    -4.501     30.331     31.557
REMARK INTER + INTRA:          -7.402
REMARK INTER:                  -6.816
REMARK INTRA:                  -0.586
REMARK UNBOUND:                -0.269
REMARK  Name = 22556
REMARK  11 active torsions:
REMARK  status: ('A' for Active; 'I' for Inactive)
REMARK    1  A    between atoms: C_2  and  C_3
REMARK    2  A    between atoms: C_2  and  C_4
REMARK    3  A    between atoms: C_3  and  C_5
REMARK    4  A    between atoms: C_4  and  C_6
REMARK    5  A    between atoms: C_5  and  C_7
REMARK    6  A    between atoms: C_6  and  C_8
REMARK    7  A    between atoms: C_7  and  C_9
REMARK    8  A    between atoms: C_8  and  C_10
REMARK    9  A    between atoms: C_9  and  C_11
REMARK   10  A    between atoms: C_10  and  C_12
REMARK   11  A    between atoms: C_12  and  C_13
REMARK                            x       y       z     vdW  Elec       q    Type
REMARK                         _______ _______ _______ _____ _____    ______ ____
ROOT
ATOM      1  C   UNL     1     -19.506 -13.062   5.050  0.00  0.00    +0.000 C 
ATOM      2  H   UNL     1     -20.576 -13.128   4.819  0.00  0.00    +0.000 HD
ATOM      3  H   UNL     1     -19.129 -14.090   5.130  0.00  0.00    +0.000 HD
ENDROOT
BRANCH   1   4
ATOM      4  C   UNL     1     -18.775 -12.331   3.922  0.00  0.00    +0.000 C 
ATOM      5  H   UNL     1     -19.451 -12.190   3.071  0.00  0.00    +0.000 HD
ATOM      6  H   UNL     1     -17.935 -12.942   3.572  0.00  0.00    +0.000 HD
BRANCH   4   7
ATOM      7  C   UNL     1     -18.257 -10.968   4.389  0.00  0.00    +0.000 C 
ATOM      8  H   UNL     1     -18.941 -10.557   5.143  0.00  0.00    +0.000 HD
ATOM      9  H   UNL     1     -17.287 -11.104   4.884  0.00  0.00    +0.000 HD
BRANCH   7  10
ATOM     10  C   UNL     1     -18.099  -9.954   3.252  0.00  0.00    +0.000 C 
ATOM     11  H   UNL     1     -18.477  -8.979   3.584  0.00  0.00    +0.000 HD
ATOM     12  H   UNL     1     -18.730 -10.266   2.409  0.00  0.00    +0.000 HD
BRANCH  10  13
ATOM     13  C   UNL     1     -16.657  -9.803   2.768  0.00  0.00    +0.000 C 
ATOM     14  H   UNL     1     -16.000  -9.594   3.621  0.00  0.00    +0.000 HD
ATOM     15  H   UNL     1     -16.315 -10.743   2.318  0.00  0.00    +0.000 HD
BRANCH  13  16
ATOM     16  C   UNL     1     -16.529  -8.685   1.744  0.00  0.00    +0.000 C 
ATOM     17  H   UNL     1     -17.303  -7.926   1.896  0.00  0.00    +0.000 HD
ATOM     18  H   UNL     1     -16.623  -9.073   0.725  0.00  0.00    +0.000 HD
ATOM     19  H   UNL     1     -15.553  -8.199   1.834  0.00  0.00    +0.000 HD
ENDBRANCH  13  16
ENDBRANCH  10  13
ENDBRANCH   7  10
ENDBRANCH   4   7
ENDBRANCH   1   4
BRANCH   1  20
ATOM     20  C   UNL     1     -19.315 -12.346   6.390  0.00  0.00    +0.000 C 
ATOM     21  H   UNL     1     -18.820 -11.382   6.220  0.00  0.00    +0.000 HD
ATOM     22  H   UNL     1     -18.644 -12.940   7.021  0.00  0.00    +0.000 HD
BRANCH  20  23
ATOM     23  C   UNL     1     -20.627 -12.108   7.145  0.00  0.00    +0.000 C 
ATOM     24  H   UNL     1     -21.171 -11.284   6.668  0.00  0.00    +0.000 HD
ATOM     25  H   UNL     1     -20.397 -11.786   8.169  0.00  0.00    +0.000 HD
BRANCH  23  26
ATOM     26  C   UNL     1     -21.533 -13.343   7.193  0.00  0.00    +0.000 C 
ATOM     27  H   UNL     1     -21.221 -13.997   8.017  0.00  0.00    +0.000 HD
ATOM     28  H   UNL     1     -21.404 -13.922   6.270  0.00  0.00    +0.000 HD
BRANCH  26  29
ATOM     29  C   UNL     1     -23.006 -12.976   7.364  0.00  0.00    +0.000 C 
ATOM     30  H   UNL     1     -23.088 -11.939   7.711  0.00  0.00    +0.000 HD
ATOM     31  H   UNL     1     -23.463 -13.628   8.116  0.00  0.00    +0.000 HD
BRANCH  29  33
ATOM     32  O   UNL     1     -24.880 -12.495   5.912  0.00  0.00    +0.000 OA
ATOM     33  C   UNL     1     -23.821 -13.095   6.087  0.00  0.00    +0.000 C 
BRANCH  33  34
ATOM     34  C   UNL     1     -23.278 -14.029   5.038  0.00  0.00    +0.000 C 
ATOM     35  H   UNL     1     -24.013 -14.812   4.829  0.00  0.00    +0.000 HD
ATOM     36  H   UNL     1     -22.360 -14.499   5.401  0.00  0.00    +0.000 HD
ATOM     37  H   UNL     1     -23.055 -13.468   4.127  0.00  0.00    +0.000 HD
ENDBRANCH  33  34
ENDBRANCH  29  33
ENDBRANCH  26  29
ENDBRANCH  23  26
ENDBRANCH  20  23
ENDBRANCH   1  20
TORSDOF 11
ENDMDL
MODEL 7
REMARK VINA RESULT:    -4.406     20.268     22.679
REMARK INTER + INTRA:          -7.250
REMARK INTER:                  -6.739
REMARK INTRA:                  -0.511
REMARK UNBOUND:                -0.269
REMARK  Name = 22556
REMARK  11 active torsions:
REMARK  status: ('A' for Active; 'I' for Inactive)
REMARK    1  A    between atoms: C_2  and  C_3
REMARK    2  A    between atoms: C_2  and  C_4
REMARK    3  A    between atoms: C_3  and  C_5
REMARK    4  A    between atoms: C_4  and  C_6
REMARK    5  A    between atoms: C_5  and  C_7
REMARK    6  A    between atoms: C_6  and  C_8
REMARK    7  A    between atoms: C_7  and  C_9
REMARK    8  A    between atoms: C_8  and  C_10
REMARK    9  A    between atoms: C_9  and  C_11
REMARK   10  A    between atoms: C_10  and  C_12
REMARK   11  A    between atoms: C_12  and  C_13
REMARK                            x       y       z     vdW  Elec       q    Type
REMARK                         _______ _______ _______ _____ _____    ______ ____
ROOT
ATOM      1  C   UNL     1      -2.370   9.953  16.529  0.00  0.00    +0.000 C 
ATOM      2  H   UNL     1      -1.829  10.898  16.399  0.00  0.00    +0.000 HD
ATOM      3  H   UNL     1      -2.996  10.058  17.423  0.00  0.00    +0.000 HD
ENDROOT
BRANCH   1   4
ATOM      4  C   UNL     1      -3.255   9.690  15.308  0.00  0.00    +0.000 C 
ATOM      5  H   UNL     1      -3.143  10.506  14.584  0.00  0.00    +0.000 HD
ATOM      6  H   UNL     1      -4.308   9.671  15.614  0.00  0.00    +0.000 HD
BRANCH   4   7
ATOM      7  C   UNL     1      -2.894   8.363  14.636  0.00  0.00    +0.000 C 
ATOM      8  H   UNL     1      -1.980   7.961  15.091  0.00  0.00    +0.000 HD
ATOM      9  H   UNL     1      -3.690   7.634  14.832  0.00  0.00    +0.000 HD
BRANCH   7  10
ATOM     10  C   UNL     1      -2.688   8.483  13.123  0.00  0.00    +0.000 C 
ATOM     11  H   UNL     1      -3.612   8.186  12.610  0.00  0.00    +0.000 HD
ATOM     12  H   UNL     1      -1.912   7.770  12.814  0.00  0.00    +0.000 HD
BRANCH  10  13
ATOM     13  C   UNL     1      -2.284   9.887  12.674  0.00  0.00    +0.000 C 
ATOM     14  H   UNL     1      -2.349  10.580  13.521  0.00  0.00    +0.000 HD
ATOM     15  H   UNL     1      -1.241   9.884  12.335  0.00  0.00    +0.000 HD
BRANCH  13  16
ATOM     16  C   UNL     1      -3.173  10.385  11.543  0.00  0.00    +0.000 C 
ATOM     17  H   UNL     1      -3.750   9.562  11.109  0.00  0.00    +0.000 HD
ATOM     18  H   UNL     1      -2.577  10.845  10.749  0.00  0.00    +0.000 HD
ATOM     19  H   UNL     1      -3.877  11.134  11.917  0.00  0.00    +0.000 HD
ENDBRANCH  13  16
ENDBRANCH  10  13
ENDBRANCH   7  10
ENDBRANCH   4   7
ENDBRANCH   1   4
BRANCH   1  20
ATOM     20  C   UNL     1      -1.368   8.815  16.741  0.00  0.00    +0.000 C 
ATOM     21  H   UNL     1      -0.691   8.761  15.880  0.00  0.00    +0.000 HD
ATOM     22  H   UNL     1      -1.910   7.862  16.779  0.00  0.00    +0.000 HD
BRANCH  20  23
ATOM     23  C   UNL     1      -0.539   8.965  18.020  0.00  0.00    +0.000 C 
ATOM     24  H   UNL     1      -1.110   9.552  18.751  0.00  0.00    +0.000 HD
ATOM     25  H   UNL     1       0.369   9.539  17.794  0.00  0.00    +0.000 HD
BRANCH  23  26
ATOM     26  C   UNL     1      -0.148   7.625  18.652  0.00  0.00    +0.000 C 
ATOM     27  H   UNL     1       0.377   7.009  17.912  0.00  0.00    +0.000 HD
ATOM     28  H   UNL     1      -1.057   7.076  18.926  0.00  0.00    +0.000 HD
BRANCH  26  29
ATOM     29  C   UNL     1       0.735   7.801  19.886  0.00  0.00    +0.000 C 
ATOM     30  H   UNL     1       0.410   7.110  20.673  0.00  0.00    +0.000 HD
ATOM     31  H   UNL     1       0.638   8.825  20.265  0.00  0.00    +0.000 HD
BRANCH  29  33
ATOM     32  O   UNL     1       2.644   7.185  18.534  0.00  0.00    +0.000 OA
ATOM     33  C   UNL     1       2.210   7.537  19.629  0.00  0.00    +0.000 C 
BRANCH  33  34
ATOM     34  C   UNL     1       3.128   7.695  20.812  0.00  0.00    +0.000 C 
ATOM     35  H   UNL     1       2.580   7.482  21.733  0.00  0.00    +0.000 HD
ATOM     36  H   UNL     1       3.500   8.723  20.857  0.00  0.00    +0.000 HD
ATOM     37  H   UNL     1       3.977   7.014  20.711  0.00  0.00    +0.000 HD
ENDBRANCH  33  34
ENDBRANCH  29  33
ENDBRANCH  26  29
ENDBRANCH  23  26
ENDBRANCH  20  23
ENDBRANCH   1  20
TORSDOF 11
ENDMDL
MODEL 8
REMARK VINA RESULT:    -4.366     16.654     19.991
REMARK INTER + INTRA:          -7.188
REMARK INTER:                  -6.648
REMARK INTRA:                  -0.541
REMARK UNBOUND:                -0.269
REMARK  Name = 22556
REMARK  11 active torsions:
REMARK  status: ('A' for Active; 'I' for Inactive)
REMARK    1  A    between atoms: C_2  and  C_3
REMARK    2  A    between atoms: C_2  and  C_4
REMARK    3  A    between atoms: C_3  and  C_5
REMARK    4  A    between atoms: C_4  and  C_6
REMARK    5  A    between atoms: C_5  and  C_7
REMARK    6  A    between atoms: C_6  and  C_8
REMARK    7  A    between atoms: C_7  and  C_9
REMARK    8  A    between atoms: C_8  and  C_10
REMARK    9  A    between atoms: C_9  and  C_11
REMARK   10  A    between atoms: C_10  and  C_12
REMARK   11  A    between atoms: C_12  and  C_13
REMARK                            x       y       z     vdW  Elec       q    Type
REMARK                         _______ _______ _______ _____ _____    ______ ____
ROOT
ATOM      1  C   UNL     1      -1.619 -14.105 -10.868  0.00  0.00    +0.000 C 
ATOM      2  H   UNL     1      -2.297 -13.795 -11.672  0.00  0.00    +0.000 HD
ATOM      3  H   UNL     1      -2.125 -13.892  -9.918  0.00  0.00    +0.000 HD
ENDROOT
BRANCH   1   4
ATOM      4  C   UNL     1      -1.337 -15.606 -10.977  0.00  0.00    +0.000 C 
ATOM      5  H   UNL     1      -2.282 -16.156 -11.056  0.00  0.00    +0.000 HD
ATOM      6  H   UNL     1      -0.835 -15.952 -10.066  0.00  0.00    +0.000 HD
BRANCH   4   7
ATOM      7  C   UNL     1      -0.465 -15.919 -12.195  0.00  0.00    +0.000 C 
ATOM      8  H   UNL     1      -0.909 -15.464 -13.089  0.00  0.00    +0.000 HD
ATOM      9  H   UNL     1       0.520 -15.453 -12.059  0.00  0.00    +0.000 HD
BRANCH   7  10
ATOM     10  C   UNL     1      -0.276 -17.419 -12.438  0.00  0.00    +0.000 C 
ATOM     11  H   UNL     1       0.583 -17.773 -11.854  0.00  0.00    +0.000 HD
ATOM     12  H   UNL     1      -0.026 -17.577 -13.495  0.00  0.00    +0.000 HD
BRANCH  10  13
ATOM     13  C   UNL     1      -1.509 -18.252 -12.087  0.00  0.00    +0.000 C 
ATOM     14  H   UNL     1      -1.254 -18.982 -11.310  0.00  0.00    +0.000 HD
ATOM     15  H   UNL     1      -2.293 -17.603 -11.678  0.00  0.00    +0.000 HD
BRANCH  13  16
ATOM     16  C   UNL     1      -2.053 -18.980 -13.307  0.00  0.00    +0.000 C 
ATOM     17  H   UNL     1      -2.965 -18.500 -13.675  0.00  0.00    +0.000 HD
ATOM     18  H   UNL     1      -2.285 -20.024 -13.071  0.00  0.00    +0.000 HD
ATOM     19  H   UNL     1      -1.314 -18.971 -14.114  0.00  0.00    +0.000 HD
ENDBRANCH  13  16
ENDBRANCH  10  13
ENDBRANCH   7  10
ENDBRANCH   4   7
ENDBRANCH   1   4
BRANCH   1  20
ATOM     20  C   UNL     1      -0.325 -13.292 -10.947  0.00  0.00    +0.000 C 
ATOM     21  H   UNL     1      -0.226 -12.862 -11.951  0.00  0.00    +0.000 HD
ATOM     22  H   UNL     1       0.530 -13.963 -10.805  0.00  0.00    +0.000 HD
BRANCH  20  23
ATOM     23  C   UNL     1      -0.249 -12.166  -9.911  0.00  0.00    +0.000 C 
ATOM     24  H   UNL     1      -0.643 -11.243 -10.354  0.00  0.00    +0.000 HD
ATOM     25  H   UNL     1       0.804 -11.975  -9.665  0.00  0.00    +0.000 HD
BRANCH  23  26
ATOM     26  C   UNL     1      -1.023 -12.472  -8.624  0.00  0.00    +0.000 C 
ATOM     27  H   UNL     1      -1.216 -13.550  -8.559  0.00  0.00    +0.000 HD
ATOM     28  H   UNL     1      -2.002 -11.981  -8.666  0.00  0.00    +0.000 HD
BRANCH  26  29
ATOM     29  C   UNL     1      -0.273 -12.014  -7.374  0.00  0.00    +0.000 C 
ATOM     30  H   UNL     1      -0.465 -10.949  -7.199  0.00  0.00    +0.000 HD
ATOM     31  H   UNL     1       0.804 -12.151  -7.520  0.00  0.00    +0.000 HD
BRANCH  29  33
ATOM     32  O   UNL     1      -0.222 -12.482  -5.001  0.00  0.00    +0.000 OA
ATOM     33  C   UNL     1      -0.671 -12.760  -6.111  0.00  0.00    +0.000 C 
BRANCH  33  34
ATOM     34  C   UNL     1      -1.634 -13.904  -6.292  0.00  0.00    +0.000 C 
ATOM     35  H   UNL     1      -2.200 -13.764  -7.217  0.00  0.00    +0.000 HD
ATOM     36  H   UNL     1      -2.336 -13.932  -5.454  0.00  0.00    +0.000 HD
ATOM     37  H   UNL     1      -1.081 -14.847  -6.325  0.00  0.00    +0.000 HD
ENDBRANCH  33  34
ENDBRANCH  29  33
ENDBRANCH  26  29
ENDBRANCH  23  26
ENDBRANCH  20  23
ENDBRANCH   1  20
TORSDOF 11
ENDMDL
MODEL 9
REMARK VINA RESULT:    -4.167     15.474     17.041
REMARK INTER + INTRA:          -6.872
REMARK INTER:                  -5.881
REMARK INTRA:                  -0.992
REMARK UNBOUND:                -0.269
REMARK  Name = 22556
REMARK  11 active torsions:
REMARK  status: ('A' for Active; 'I' for Inactive)
REMARK    1  A    between atoms: C_2  and  C_3
REMARK    2  A    between atoms: C_2  and  C_4
REMARK    3  A    between atoms: C_3  and  C_5
REMARK    4  A    between atoms: C_4  and  C_6
REMARK    5  A    between atoms: C_5  and  C_7
REMARK    6  A    between atoms: C_6  and  C_8
REMARK    7  A    between atoms: C_7  and  C_9
REMARK    8  A    between atoms: C_8  and  C_10
REMARK    9  A    between atoms: C_9  and  C_11
REMARK   10  A    between atoms: C_10  and  C_12
REMARK   11  A    between atoms: C_12  and  C_13
REMARK                            x       y       z     vdW  Elec       q    Type
REMARK                         _______ _______ _______ _____ _____    ______ ____
ROOT
ATOM      1  C   UNL     1       2.301  14.317 -10.739  0.00  0.00    +0.000 C 
ATOM      2  H   UNL     1       2.365  14.285 -11.833  0.00  0.00    +0.000 HD
ATOM      3  H   UNL     1       1.437  14.944 -10.485  0.00  0.00    +0.000 HD
ENDROOT
BRANCH   1   4
ATOM      4  C   UNL     1       2.091  12.904 -10.189  0.00  0.00    +0.000 C 
ATOM      5  H   UNL     1       1.096  12.825  -9.736  0.00  0.00    +0.000 HD
ATOM      6  H   UNL     1       2.824  12.704  -9.399  0.00  0.00    +0.000 HD
BRANCH   4   7
ATOM      7  C   UNL     1       2.229  11.854 -11.295  0.00  0.00    +0.000 C 
ATOM      8  H   UNL     1       1.712  10.935 -10.991  0.00  0.00    +0.000 HD
ATOM      9  H   UNL     1       1.723  12.216 -12.199  0.00  0.00    +0.000 HD
BRANCH   7  10
ATOM     10  C   UNL     1       3.683  11.519 -11.638  0.00  0.00    +0.000 C 
ATOM     11  H   UNL     1       3.850  10.445 -11.488  0.00  0.00    +0.000 HD
ATOM     12  H   UNL     1       4.343  12.042 -10.933  0.00  0.00    +0.000 HD
BRANCH  10  13
ATOM     13  C   UNL     1       4.074  11.901 -13.066  0.00  0.00    +0.000 C 
ATOM     14  H   UNL     1       4.542  11.043 -13.564  0.00  0.00    +0.000 HD
ATOM     15  H   UNL     1       3.177  12.161 -13.640  0.00  0.00    +0.000 HD
BRANCH  13  16
ATOM     16  C   UNL     1       5.034  13.081 -13.081  0.00  0.00    +0.000 C 
ATOM     17  H   UNL     1       4.674  13.887 -12.435  0.00  0.00    +0.000 HD
ATOM     18  H   UNL     1       5.151  13.479 -14.094  0.00  0.00    +0.000 HD
ATOM     19  H   UNL     1       6.021  12.772 -12.722  0.00  0.00    +0.000 HD
ENDBRANCH  13  16
ENDBRANCH  10  13
ENDBRANCH   7  10
ENDBRANCH   4   7
ENDBRANCH   1   4
BRANCH   1  20
ATOM     20  C   UNL     1       3.572  14.950 -10.169  0.00  0.00    +0.000 C 
ATOM     21  H   UNL     1       3.356  15.977  -9.850  0.00  0.00    +0.000 HD
ATOM     22  H   UNL     1       4.326  15.017 -10.962  0.00  0.00    +0.000 HD
BRANCH  20  23
ATOM     23  C   UNL     1       4.162  14.173  -8.988  0.00  0.00    +0.000 C 
ATOM     24  H   UNL     1       4.926  13.479  -9.360  0.00  0.00    +0.000 HD
ATOM     25  H   UNL     1       3.373  13.561  -8.532  0.00  0.00    +0.000 HD
BRANCH  23  26
ATOM     26  C   UNL     1       4.786  15.075  -7.918  0.00  0.00    +0.000 C 
ATOM     27  H   UNL     1       4.582  14.662  -6.923  0.00  0.00    +0.000 HD
ATOM     28  H   UNL     1       4.306  16.060  -7.952  0.00  0.00    +0.000 HD
BRANCH  26  29
ATOM     29  C   UNL     1       6.295  15.234  -8.102  0.00  0.00    +0.000 C 
ATOM     30  H   UNL     1       6.692  14.372  -8.651  0.00  0.00    +0.000 HD
ATOM     31  H   UNL     1       6.783  15.274  -7.122  0.00  0.00    +0.000 HD
BRANCH  29  33
ATOM     32  O   UNL     1       6.530  17.620  -8.428  0.00  0.00    +0.000 OA
ATOM     33  C   UNL     1       6.691  16.485  -8.871  0.00  0.00    +0.000 C 
BRANCH  33  34
ATOM     34  C   UNL     1       7.270  16.264 -10.244  0.00  0.00    +0.000 C 
ATOM     35  H   UNL     1       6.466  16.257 -10.984  0.00  0.00    +0.000 HD
ATOM     36  H   UNL     1       7.784  15.299 -10.278  0.00  0.00    +0.000 HD
ATOM     37  H   UNL     1       7.987  17.057 -10.471  0.00  0.00    +0.000 HD
ENDBRANCH  33  34
ENDBRANCH  29  33
ENDBRANCH  26  29
ENDBRANCH  23  26
ENDBRANCH  20  23
ENDBRANCH   1  20
TORSDOF 11
ENDMDL
MODEL 10
REMARK VINA RESULT:    -4.134     20.336     21.507
REMARK INTER + INTRA:          -6.821
REMARK INTER:                  -6.551
REMARK INTRA:                  -0.269
REMARK UNBOUND:                -0.269
REMARK  Name = 22556
REMARK  11 active torsions:
REMARK  status: ('A' for Active; 'I' for Inactive)
REMARK    1  A    between atoms: C_2  and  C_3
REMARK    2  A    between atoms: C_2  and  C_4
REMARK    3  A    between atoms: C_3  and  C_5
REMARK    4  A    between atoms: C_4  and  C_6
REMARK    5  A    between atoms: C_5  and  C_7
REMARK    6  A    between atoms: C_6  and  C_8
REMARK    7  A    between atoms: C_7  and  C_9
REMARK    8  A    between atoms: C_8  and  C_10
REMARK    9  A    between atoms: C_9  and  C_11
REMARK   10  A    between atoms: C_10  and  C_12
REMARK   11  A    between atoms: C_12  and  C_13
REMARK                            x       y       z     vdW  Elec       q    Type
REMARK                         _______ _______ _______ _____ _____    ______ ____
ROOT
ATOM      1  C   UNL     1       3.548  -4.906  16.517  0.00  0.00    +0.000 C 
ATOM      2  H   UNL     1       3.363  -5.935  16.187  0.00  0.00    +0.000 HD
ATOM      3  H   UNL     1       4.617  -4.828  16.752  0.00  0.00    +0.000 HD
ENDROOT
BRANCH   1   4
ATOM      4  C   UNL     1       3.196  -3.929  15.392  0.00  0.00    +0.000 C 
ATOM      5  H   UNL     1       2.376  -3.274  15.710  0.00  0.00    +0.000 HD
ATOM      6  H   UNL     1       2.843  -4.488  14.517  0.00  0.00    +0.000 HD
BRANCH   4   7
ATOM      7  C   UNL     1       4.405  -3.075  15.001  0.00  0.00    +0.000 C 
ATOM      8  H   UNL     1       4.281  -2.062  15.405  0.00  0.00    +0.000 HD
ATOM      9  H   UNL     1       5.305  -3.494  15.468  0.00  0.00    +0.000 HD
BRANCH   7  10
ATOM     10  C   UNL     1       4.624  -2.985  13.488  0.00  0.00    +0.000 C 
ATOM     11  H   UNL     1       5.264  -2.122  13.268  0.00  0.00    +0.000 HD
ATOM     12  H   UNL     1       3.659  -2.796  13.001  0.00  0.00    +0.000 HD
BRANCH  10  13
ATOM     13  C   UNL     1       5.246  -4.246  12.889  0.00  0.00    +0.000 C 
ATOM     14  H   UNL     1       6.279  -4.353  13.241  0.00  0.00    +0.000 HD
ATOM     15  H   UNL     1       4.694  -5.131  13.227  0.00  0.00    +0.000 HD
BRANCH  13  16
ATOM     16  C   UNL     1       5.233  -4.203  11.368  0.00  0.00    +0.000 C 
ATOM     17  H   UNL     1       6.102  -3.659  10.984  0.00  0.00    +0.000 HD
ATOM     18  H   UNL     1       4.328  -3.710  10.997  0.00  0.00    +0.000 HD
ATOM     19  H   UNL     1       5.258  -5.218  10.959  0.00  0.00    +0.000 HD
ENDBRANCH  13  16
ENDBRANCH  10  13
ENDBRANCH   7  10
ENDBRANCH   4   7
ENDBRANCH   1   4
BRANCH   1  20
ATOM     20  C   UNL     1       2.729  -4.616  17.777  0.00  0.00    +0.000 C 
ATOM     21  H   UNL     1       1.669  -4.529  17.510  0.00  0.00    +0.000 HD
ATOM     22  H   UNL     1       3.033  -3.646  18.188  0.00  0.00    +0.000 HD
BRANCH  20  23
ATOM     23  C   UNL     1       2.885  -5.685  18.863  0.00  0.00    +0.000 C 
ATOM     24  H   UNL     1       3.179  -5.202  19.803  0.00  0.00    +0.000 HD
ATOM     25  H   UNL     1       3.704  -6.362  18.585  0.00  0.00    +0.000 HD
BRANCH  23  26
ATOM     26  C   UNL     1       1.611  -6.503  19.099  0.00  0.00    +0.000 C 
ATOM     27  H   UNL     1       1.783  -7.546  18.806  0.00  0.00    +0.000 HD
ATOM     28  H   UNL     1       0.813  -6.124  18.448  0.00  0.00    +0.000 HD
BRANCH  26  29
ATOM     29  C   UNL     1       1.151  -6.453  20.555  0.00  0.00    +0.000 C 
ATOM     30  H   UNL     1       0.904  -5.420  20.828  0.00  0.00    +0.000 HD
ATOM     31  H   UNL     1       1.959  -6.799  21.208  0.00  0.00    +0.000 HD
BRANCH  29  33
ATOM     32  O   UNL     1      -0.008  -8.492  21.151  0.00  0.00    +0.000 OA
ATOM     33  C   UNL     1      -0.076  -7.304  20.841  0.00  0.00    +0.000 C 
BRANCH  33  34
ATOM     34  C   UNL     1      -1.409  -6.619  20.689  0.00  0.00    +0.000 C 
ATOM     35  H   UNL     1      -1.887  -6.525  21.668  0.00  0.00    +0.000 HD
ATOM     36  H   UNL     1      -2.058  -7.211  20.039  0.00  0.00    +0.000 HD
ATOM     37  H   UNL     1      -1.264  -5.631  20.244  0.00  0.00    +0.000 HD
ENDBRANCH  33  34
ENDBRANCH  29  33
ENDBRANCH  26  29
ENDBRANCH  23  26
ENDBRANCH  20  23
ENDBRANCH   1  20
TORSDOF 11
ENDMDL
