MODEL 1
REMARK VINA RESULT:    -4.055      0.000      0.000
REMARK INTER + INTRA:          -5.361
REMARK INTER:                  -5.175
REMARK INTRA:                  -0.185
REMARK UNBOUND:                -0.239
REMARK  Name = 32594
REMARK  6 active torsions:
REMARK  status: ('A' for Active; 'I' for Inactive)
REMARK    1  A    between atoms: O_1  and  C_9
REMARK    2  A    between atoms: O_1  and  C_12
REMARK    3  A    between atoms: C_4  and  C_5
REMARK    4  A    between atoms: C_4  and  C_6
REMARK    5  A    between atoms: C_4  and  C_7
REMARK    6  A    between atoms: C_5  and  C_8
REMARK                            x       y       z     vdW  Elec       q    Type
REMARK                         _______ _______ _______ _____ _____    ______ ____
ROOT
ATOM      1  C   UNL     1      -1.584 -13.594 -10.351  0.00  0.00    +0.000 C 
ATOM      2  H   UNL     1      -2.622 -13.493 -10.698  0.00  0.00    +0.000 HD
ATOM      3  H   UNL     1      -1.305 -12.596  -9.989  0.00  0.00    +0.000 HD
ENDROOT
BRANCH   1   6
ATOM      4  N   UNL     1      -1.512 -15.877  -9.553  0.00  0.00    +0.000 NA
ATOM      5  N   UNL     1      -1.535 -15.017  -6.884  0.00  0.00    +0.000 NA
ATOM      6  C   UNL     1      -1.551 -14.582  -9.211  0.00  0.00    +0.000 A 
ATOM      7  C   UNL     1      -1.563 -14.148  -7.914  0.00  0.00    +0.000 A 
ATOM      8  C   UNL     1      -1.485 -16.746  -8.524  0.00  0.00    +0.000 A 
ATOM      9  C   UNL     1      -1.496 -16.324  -7.212  0.00  0.00    +0.000 A 
ATOM     10  H   UNL     1      -1.453 -17.796  -8.787  0.00  0.00    +0.000 HD
ATOM     11  H   UNL     1      -1.473 -17.023  -6.385  0.00  0.00    +0.000 HD
BRANCH   7  12
ATOM     12  O   UNL     1      -1.603 -12.817  -7.604  0.00  0.00    +0.000 OA
BRANCH  12  13
ATOM     13  C   UNL     1      -0.490 -12.290  -6.887  0.00  0.00    +0.000 C 
ATOM     14  H   UNL     1       0.194 -11.761  -7.559  0.00  0.00    +0.000 HD
ATOM     15  H   UNL     1       0.034 -13.081  -6.340  0.00  0.00    +0.000 HD
ATOM     16  H   UNL     1      -0.872 -11.569  -6.158  0.00  0.00    +0.000 HD
ENDBRANCH  12  13
ENDBRANCH   7  12
ENDBRANCH   1   6
BRANCH   1  17
ATOM     17  C   UNL     1      -0.683 -13.984 -11.539  0.00  0.00    +0.000 C 
ATOM     18  H   UNL     1      -0.107 -14.873 -11.252  0.00  0.00    +0.000 HD
BRANCH  17  19
ATOM     19  C   UNL     1      -1.496 -14.307 -12.794  0.00  0.00    +0.000 C 
ATOM     20  H   UNL     1      -2.555 -14.051 -12.695  0.00  0.00    +0.000 HD
ATOM     21  H   UNL     1      -1.403 -15.364 -13.061  0.00  0.00    +0.000 HD
ATOM     22  H   UNL     1      -1.111 -13.729 -13.643  0.00  0.00    +0.000 HD
ENDBRANCH  17  19
BRANCH  17  23
ATOM     23  C   UNL     1       0.298 -12.848 -11.838  0.00  0.00    +0.000 C 
ATOM     24  H   UNL     1       0.683 -12.943 -12.859  0.00  0.00    +0.000 HD
ATOM     25  H   UNL     1      -0.168 -11.861 -11.760  0.00  0.00    +0.000 HD
ATOM     26  H   UNL     1       1.159 -12.880 -11.160  0.00  0.00    +0.000 HD
ENDBRANCH  17  23
ENDBRANCH   1  17
TORSDOF 6
ENDMDL
MODEL 2
REMARK VINA RESULT:    -3.804     17.556     18.543
REMARK INTER + INTRA:          -5.044
REMARK INTER:                  -4.815
REMARK INTRA:                  -0.230
REMARK UNBOUND:                -0.239
REMARK  Name = 32594
REMARK  6 active torsions:
REMARK  status: ('A' for Active; 'I' for Inactive)
REMARK    1  A    between atoms: O_1  and  C_9
REMARK    2  A    between atoms: O_1  and  C_12
REMARK    3  A    between atoms: C_4  and  C_5
REMARK    4  A    between atoms: C_4  and  C_6
REMARK    5  A    between atoms: C_4  and  C_7
REMARK    6  A    between atoms: C_5  and  C_8
REMARK                            x       y       z     vdW  Elec       q    Type
REMARK                         _______ _______ _______ _____ _____    ______ ____
ROOT
ATOM      1  C   UNL     1     -18.095  -9.199  -1.947  0.00  0.00    +0.000 C 
ATOM      2  H   UNL     1     -18.349  -8.517  -1.124  0.00  0.00    +0.000 HD
ATOM      3  H   UNL     1     -17.897  -8.547  -2.808  0.00  0.00    +0.000 HD
ENDROOT
BRANCH   1   6
ATOM      4  N   UNL     1     -16.235 -10.612  -2.574  0.00  0.00    +0.000 NA
ATOM      5  N   UNL     1     -15.273 -10.631   0.060  0.00  0.00    +0.000 NA
ATOM      6  C   UNL     1     -16.844  -9.957  -1.577  0.00  0.00    +0.000 A 
ATOM      7  C   UNL     1     -16.387  -9.957  -0.288  0.00  0.00    +0.000 A 
ATOM      8  C   UNL     1     -15.121 -11.286  -2.227  0.00  0.00    +0.000 A 
ATOM      9  C   UNL     1     -14.647 -11.295  -0.933  0.00  0.00    +0.000 A 
ATOM     10  H   UNL     1     -14.618 -11.818  -3.024  0.00  0.00    +0.000 HD
ATOM     11  H   UNL     1     -13.751 -11.835  -0.655  0.00  0.00    +0.000 HD
BRANCH   7  12
ATOM     12  O   UNL     1     -17.037  -9.276   0.703  0.00  0.00    +0.000 OA
BRANCH  12  13
ATOM     13  C   UNL     1     -16.228  -8.693   1.720  0.00  0.00    +0.000 C 
ATOM     14  H   UNL     1     -16.165  -7.606   1.595  0.00  0.00    +0.000 HD
ATOM     15  H   UNL     1     -15.230  -9.143   1.734  0.00  0.00    +0.000 HD
ATOM     16  H   UNL     1     -16.704  -8.894   2.685  0.00  0.00    +0.000 HD
ENDBRANCH  12  13
ENDBRANCH   7  12
ENDBRANCH   1   6
BRANCH   1  17
ATOM     17  C   UNL     1     -19.305 -10.104  -2.252  0.00  0.00    +0.000 C 
ATOM     18  H   UNL     1     -18.962 -10.925  -2.894  0.00  0.00    +0.000 HD
BRANCH  17  19
ATOM     19  C   UNL     1     -19.915 -10.695  -0.979  0.00  0.00    +0.000 C 
ATOM     20  H   UNL     1     -20.445 -11.637  -1.158  0.00  0.00    +0.000 HD
ATOM     21  H   UNL     1     -20.595  -9.984  -0.502  0.00  0.00    +0.000 HD
ATOM     22  H   UNL     1     -19.122 -10.914  -0.255  0.00  0.00    +0.000 HD
ENDBRANCH  17  19
BRANCH  17  23
ATOM     23  C   UNL     1     -20.368  -9.308  -3.012  0.00  0.00    +0.000 C 
ATOM     24  H   UNL     1     -20.669  -8.431  -2.429  0.00  0.00    +0.000 HD
ATOM     25  H   UNL     1     -20.007  -8.944  -3.979  0.00  0.00    +0.000 HD
ATOM     26  H   UNL     1     -21.267  -9.912  -3.182  0.00  0.00    +0.000 HD
ENDBRANCH  17  23
ENDBRANCH   1  17
TORSDOF 6
ENDMDL
MODEL 3
REMARK VINA RESULT:    -3.705     26.698     28.219
REMARK INTER + INTRA:          -4.918
REMARK INTER:                  -4.682
REMARK INTRA:                  -0.236
REMARK UNBOUND:                -0.239
REMARK  Name = 32594
REMARK  6 active torsions:
REMARK  status: ('A' for Active; 'I' for Inactive)
REMARK    1  A    between atoms: O_1  and  C_9
REMARK    2  A    between atoms: O_1  and  C_12
REMARK    3  A    between atoms: C_4  and  C_5
REMARK    4  A    between atoms: C_4  and  C_6
REMARK    5  A    between atoms: C_4  and  C_7
REMARK    6  A    between atoms: C_5  and  C_8
REMARK                            x       y       z     vdW  Elec       q    Type
REMARK                         _______ _______ _______ _____ _____    ______ ____
ROOT
ATOM      1  C   UNL     1       3.514  11.755 -11.531  0.00  0.00    +0.000 C 
ATOM      2  H   UNL     1       3.475  10.661 -11.617  0.00  0.00    +0.000 HD
ATOM      3  H   UNL     1       4.135  11.950 -10.647  0.00  0.00    +0.000 HD
ENDROOT
BRANCH   1   6
ATOM      4  N   UNL     1       3.968  11.645 -13.904  0.00  0.00    +0.000 NA
ATOM      5  N   UNL     1       5.570  13.944 -13.773  0.00  0.00    +0.000 NA
ATOM      6  C   UNL     1       4.184  12.312 -12.763  0.00  0.00    +0.000 A 
ATOM      7  C   UNL     1       4.963  13.434 -12.684  0.00  0.00    +0.000 A 
ATOM      8  C   UNL     1       4.575  12.155 -14.995  0.00  0.00    +0.000 A 
ATOM      9  C   UNL     1       5.361  13.284 -14.931  0.00  0.00    +0.000 A 
ATOM     10  H   UNL     1       4.407  11.626 -15.924  0.00  0.00    +0.000 HD
ATOM     11  H   UNL     1       5.848  13.694 -15.807  0.00  0.00    +0.000 HD
BRANCH   7  12
ATOM     12  O   UNL     1       5.160  14.087 -11.499  0.00  0.00    +0.000 OA
BRANCH  12  13
ATOM     13  C   UNL     1       5.791  15.363 -11.565  0.00  0.00    +0.000 C 
ATOM     14  H   UNL     1       6.817  15.313 -11.185  0.00  0.00    +0.000 HD
ATOM     15  H   UNL     1       5.210  16.116 -11.022  0.00  0.00    +0.000 HD
ATOM     16  H   UNL     1       5.835  15.662 -12.616  0.00  0.00    +0.000 HD
ENDBRANCH  12  13
ENDBRANCH   7  12
ENDBRANCH   1   6
BRANCH   1  17
ATOM     17  C   UNL     1       2.093  12.301 -11.294  0.00  0.00    +0.000 C 
ATOM     18  H   UNL     1       1.831  12.946 -12.143  0.00  0.00    +0.000 HD
BRANCH  17  19
ATOM     19  C   UNL     1       1.057  11.180 -11.189  0.00  0.00    +0.000 C 
ATOM     20  H   UNL     1       0.056  11.493 -11.501  0.00  0.00    +0.000 HD
ATOM     21  H   UNL     1       1.009  10.783 -10.170  0.00  0.00    +0.000 HD
ATOM     22  H   UNL     1       1.344  10.348 -11.842  0.00  0.00    +0.000 HD
ENDBRANCH  17  19
BRANCH  17  23
ATOM     23  C   UNL     1       2.069  13.147 -10.019  0.00  0.00    +0.000 C 
ATOM     24  H   UNL     1       1.710  14.157 -10.245  0.00  0.00    +0.000 HD
ATOM     25  H   UNL     1       1.405  12.732  -9.254  0.00  0.00    +0.000 HD
ATOM     26  H   UNL     1       3.073  13.245  -9.590  0.00  0.00    +0.000 HD
ENDBRANCH  17  23
ENDBRANCH   1  17
TORSDOF 6
ENDMDL
MODEL 4
REMARK VINA RESULT:    -3.612     28.150     29.703
REMARK INTER + INTRA:          -4.802
REMARK INTER:                  -4.596
REMARK INTRA:                  -0.206
REMARK UNBOUND:                -0.239
REMARK  Name = 32594
REMARK  6 active torsions:
REMARK  status: ('A' for Active; 'I' for Inactive)
REMARK    1  A    between atoms: O_1  and  C_9
REMARK    2  A    between atoms: O_1  and  C_12
REMARK    3  A    between atoms: C_4  and  C_5
REMARK    4  A    between atoms: C_4  and  C_6
REMARK    5  A    between atoms: C_4  and  C_7
REMARK    6  A    between atoms: C_5  and  C_8
REMARK                            x       y       z     vdW  Elec       q    Type
REMARK                         _______ _______ _______ _____ _____    ______ ____
ROOT
ATOM      1  C   UNL     1       3.515  14.122 -10.923  0.00  0.00    +0.000 C 
ATOM      2  H   UNL     1       2.686  14.842 -10.924  0.00  0.00    +0.000 HD
ATOM      3  H   UNL     1       3.862  14.084 -11.964  0.00  0.00    +0.000 HD
ENDROOT
BRANCH   1   6
ATOM      4  N   UNL     1       4.405  14.555  -8.716  0.00  0.00    +0.000 NA
ATOM      5  N   UNL     1       6.735  15.678  -9.801  0.00  0.00    +0.000 NA
ATOM      6  C   UNL     1       4.614  14.653 -10.035  0.00  0.00    +0.000 A 
ATOM      7  C   UNL     1       5.745  15.198 -10.579  0.00  0.00    +0.000 A 
ATOM      8  C   UNL     1       5.394  15.035  -7.937  0.00  0.00    +0.000 A 
ATOM      9  C   UNL     1       6.539  15.586  -8.470  0.00  0.00    +0.000 A 
ATOM     10  H   UNL     1       5.238  14.960  -6.868  0.00  0.00    +0.000 HD
ATOM     11  H   UNL     1       7.335  15.971  -7.844  0.00  0.00    +0.000 HD
BRANCH   7  12
ATOM     12  O   UNL     1       5.921  15.280 -11.932  0.00  0.00    +0.000 OA
BRANCH  12  13
ATOM     13  C   UNL     1       6.596  16.434 -12.423  0.00  0.00    +0.000 C 
ATOM     14  H   UNL     1       5.997  17.337 -12.264  0.00  0.00    +0.000 HD
ATOM     15  H   UNL     1       6.852  16.318 -13.482  0.00  0.00    +0.000 HD
ATOM     16  H   UNL     1       7.528  16.544 -11.860  0.00  0.00    +0.000 HD
ENDBRANCH  12  13
ENDBRANCH   7  12
ENDBRANCH   1   6
BRANCH   1  17
ATOM     17  C   UNL     1       2.989  12.736 -10.502  0.00  0.00    +0.000 C 
ATOM     18  H   UNL     1       3.402  12.502  -9.513  0.00  0.00    +0.000 HD
BRANCH  17  19
ATOM     19  C   UNL     1       1.462  12.702 -10.419  0.00  0.00    +0.000 C 
ATOM     20  H   UNL     1       1.035  13.631 -10.027  0.00  0.00    +0.000 HD
ATOM     21  H   UNL     1       1.119  11.862  -9.808  0.00  0.00    +0.000 HD
ATOM     22  H   UNL     1       1.039  12.561 -11.421  0.00  0.00    +0.000 HD
ENDBRANCH  17  19
BRANCH  17  23
ATOM     23  C   UNL     1       3.475  11.675 -11.493  0.00  0.00    +0.000 C 
ATOM     24  H   UNL     1       3.067  11.876 -12.489  0.00  0.00    +0.000 HD
ATOM     25  H   UNL     1       4.565  11.660 -11.588  0.00  0.00    +0.000 HD
ATOM     26  H   UNL     1       3.139  10.675 -11.197  0.00  0.00    +0.000 HD
ENDBRANCH  17  23
ENDBRANCH   1  17
TORSDOF 6
ENDMDL
MODEL 5
REMARK VINA RESULT:    -3.582     23.550     26.533
REMARK INTER + INTRA:          -4.764
REMARK INTER:                  -4.551
REMARK INTRA:                  -0.214
REMARK UNBOUND:                -0.239
REMARK  Name = 32594
REMARK  6 active torsions:
REMARK  status: ('A' for Active; 'I' for Inactive)
REMARK    1  A    between atoms: O_1  and  C_9
REMARK    2  A    between atoms: O_1  and  C_12
REMARK    3  A    between atoms: C_4  and  C_5
REMARK    4  A    between atoms: C_4  and  C_6
REMARK    5  A    between atoms: C_4  and  C_7
REMARK    6  A    between atoms: C_5  and  C_8
REMARK                            x       y       z     vdW  Elec       q    Type
REMARK                         _______ _______ _______ _____ _____    ______ ____
ROOT
ATOM      1  C   UNL     1       3.624  -4.061  14.509  0.00  0.00    +0.000 C 
ATOM      2  H   UNL     1       2.739  -3.443  14.304  0.00  0.00    +0.000 HD
ATOM      3  H   UNL     1       3.413  -5.030  14.037  0.00  0.00    +0.000 HD
ENDROOT
BRANCH   1   6
ATOM      4  N   UNL     1       5.255  -2.279  14.401  0.00  0.00    +0.000 NA
ATOM      5  N   UNL     1       6.475  -3.438  12.157  0.00  0.00    +0.000 NA
ATOM      6  C   UNL     1       4.822  -3.420  13.851  0.00  0.00    +0.000 A 
ATOM      7  C   UNL     1       5.406  -3.997  12.757  0.00  0.00    +0.000 A 
ATOM      8  C   UNL     1       6.324  -1.718  13.802  0.00  0.00    +0.000 A 
ATOM      9  C   UNL     1       6.924  -2.287  12.700  0.00  0.00    +0.000 A 
ATOM     10  H   UNL     1       6.685  -0.795  14.237  0.00  0.00    +0.000 HD
ATOM     11  H   UNL     1       7.784  -1.838  12.218  0.00  0.00    +0.000 HD
BRANCH   7  12
ATOM     12  O   UNL     1       4.934  -5.164  12.225  0.00  0.00    +0.000 OA
BRANCH  12  13
ATOM     13  C   UNL     1       4.945  -5.274  10.805  0.00  0.00    +0.000 C 
ATOM     14  H   UNL     1       4.267  -4.545  10.349  0.00  0.00    +0.000 HD
ATOM     15  H   UNL     1       4.693  -6.292  10.488  0.00  0.00    +0.000 HD
ATOM     16  H   UNL     1       5.960  -5.054  10.459  0.00  0.00    +0.000 HD
ENDBRANCH  12  13
ENDBRANCH   7  12
ENDBRANCH   1   6
BRANCH   1  17
ATOM     17  C   UNL     1       3.776  -4.250  16.030  0.00  0.00    +0.000 C 
ATOM     18  H   UNL     1       4.606  -3.618  16.371  0.00  0.00    +0.000 HD
BRANCH  17  19
ATOM     19  C   UNL     1       2.509  -3.850  16.788  0.00  0.00    +0.000 C 
ATOM     20  H   UNL     1       2.690  -3.657  17.851  0.00  0.00    +0.000 HD
ATOM     21  H   UNL     1       1.732  -4.613  16.688  0.00  0.00    +0.000 HD
ATOM     22  H   UNL     1       2.101  -2.924  16.366  0.00  0.00    +0.000 HD
ENDBRANCH  17  19
BRANCH  17  23
ATOM     23  C   UNL     1       4.122  -5.709  16.339  0.00  0.00    +0.000 C 
ATOM     24  H   UNL     1       5.171  -5.907  16.094  0.00  0.00    +0.000 HD
ATOM     25  H   UNL     1       3.987  -5.956  17.397  0.00  0.00    +0.000 HD
ATOM     26  H   UNL     1       3.511  -6.395  15.742  0.00  0.00    +0.000 HD
ENDBRANCH  17  23
ENDBRANCH   1  17
TORSDOF 6
ENDMDL
MODEL 6
REMARK VINA RESULT:    -3.550     28.435     30.764
REMARK INTER + INTRA:          -4.723
REMARK INTER:                  -4.516
REMARK INTRA:                  -0.207
REMARK UNBOUND:                -0.239
REMARK  Name = 32594
REMARK  6 active torsions:
REMARK  status: ('A' for Active; 'I' for Inactive)
REMARK    1  A    between atoms: O_1  and  C_9
REMARK    2  A    between atoms: O_1  and  C_12
REMARK    3  A    between atoms: C_4  and  C_5
REMARK    4  A    between atoms: C_4  and  C_6
REMARK    5  A    between atoms: C_4  and  C_7
REMARK    6  A    between atoms: C_5  and  C_8
REMARK                            x       y       z     vdW  Elec       q    Type
REMARK                         _______ _______ _______ _____ _____    ______ ____
ROOT
ATOM      1  C   UNL     1       0.626  -7.448  19.922  0.00  0.00    +0.000 C 
ATOM      2  H   UNL     1       0.144  -7.126  18.988  0.00  0.00    +0.000 HD
ATOM      3  H   UNL     1       1.035  -8.443  19.704  0.00  0.00    +0.000 HD
ENDROOT
BRANCH   1   6
ATOM      4  N   UNL     1       1.965  -6.250  21.541  0.00  0.00    +0.000 NA
ATOM      5  N   UNL     1       3.481  -5.057  19.505  0.00  0.00    +0.000 NA
ATOM      6  C   UNL     1       1.747  -6.490  20.241  0.00  0.00    +0.000 A 
ATOM      7  C   UNL     1       2.478  -5.916  19.238  0.00  0.00    +0.000 A 
ATOM      8  C   UNL     1       2.968  -5.391  21.809  0.00  0.00    +0.000 A 
ATOM      9  C   UNL     1       3.714  -4.805  20.810  0.00  0.00    +0.000 A 
ATOM     10  H   UNL     1       3.155  -5.189  22.856  0.00  0.00    +0.000 HD
ATOM     11  H   UNL     1       4.520  -4.116  21.025  0.00  0.00    +0.000 HD
BRANCH   7  12
ATOM     12  O   UNL     1       2.225  -6.187  17.922  0.00  0.00    +0.000 OA
BRANCH  12  13
ATOM     13  C   UNL     1       3.272  -6.805  17.180  0.00  0.00    +0.000 C 
ATOM     14  H   UNL     1       3.094  -7.880  17.072  0.00  0.00    +0.000 HD
ATOM     15  H   UNL     1       4.246  -6.615  17.643  0.00  0.00    +0.000 HD
ATOM     16  H   UNL     1       3.281  -6.362  16.179  0.00  0.00    +0.000 HD
ENDBRANCH  12  13
ENDBRANCH   7  12
ENDBRANCH   1   6
BRANCH   1  17
ATOM     17  C   UNL     1      -0.436  -7.557  21.034  0.00  0.00    +0.000 C 
ATOM     18  H   UNL     1       0.049  -7.325  21.991  0.00  0.00    +0.000 HD
BRANCH  17  19
ATOM     19  C   UNL     1      -1.596  -6.583  20.818  0.00  0.00    +0.000 C 
ATOM     20  H   UNL     1      -1.948  -6.126  21.749  0.00  0.00    +0.000 HD
ATOM     21  H   UNL     1      -2.435  -7.075  20.318  0.00  0.00    +0.000 HD
ATOM     22  H   UNL     1      -1.274  -5.762  20.167  0.00  0.00    +0.000 HD
ENDBRANCH  17  19
BRANCH  17  23
ATOM     23  C   UNL     1      -0.971  -8.990  21.099  0.00  0.00    +0.000 C 
ATOM     24  H   UNL     1      -0.925  -9.362  22.129  0.00  0.00    +0.000 HD
ATOM     25  H   UNL     1      -2.015  -9.061  20.777  0.00  0.00    +0.000 HD
ATOM     26  H   UNL     1      -0.370  -9.666  20.480  0.00  0.00    +0.000 HD
ENDBRANCH  17  23
ENDBRANCH   1  17
TORSDOF 6
ENDMDL
MODEL 7
REMARK VINA RESULT:    -3.495      2.123      4.150
REMARK INTER + INTRA:          -4.654
REMARK INTER:                  -4.419
REMARK INTRA:                  -0.235
REMARK UNBOUND:                -0.239
REMARK  Name = 32594
REMARK  6 active torsions:
REMARK  status: ('A' for Active; 'I' for Inactive)
REMARK    1  A    between atoms: O_1  and  C_9
REMARK    2  A    between atoms: O_1  and  C_12
REMARK    3  A    between atoms: C_4  and  C_5
REMARK    4  A    between atoms: C_4  and  C_6
REMARK    5  A    between atoms: C_4  and  C_7
REMARK    6  A    between atoms: C_5  and  C_8
REMARK                            x       y       z     vdW  Elec       q    Type
REMARK                         _______ _______ _______ _____ _____    ______ ____
ROOT
ATOM      1  C   UNL     1      -2.283 -15.450  -7.293  0.00  0.00    +0.000 C 
ATOM      2  H   UNL     1      -2.092 -16.349  -7.894  0.00  0.00    +0.000 HD
ATOM      3  H   UNL     1      -1.798 -15.642  -6.327  0.00  0.00    +0.000 HD
ENDROOT
BRANCH   1   6
ATOM      4  N   UNL     1      -1.572 -14.315  -9.307  0.00  0.00    +0.000 NA
ATOM      5  N   UNL     1      -0.550 -12.169  -7.818  0.00  0.00    +0.000 NA
ATOM      6  C   UNL     1      -1.631 -14.269  -7.969  0.00  0.00    +0.000 A 
ATOM      7  C   UNL     1      -1.137 -13.230  -7.230  0.00  0.00    +0.000 A 
ATOM      8  C   UNL     1      -0.985 -13.254  -9.895  0.00  0.00    +0.000 A 
ATOM      9  C   UNL     1      -0.483 -12.199  -9.164  0.00  0.00    +0.000 A 
ATOM     10  H   UNL     1      -0.932 -13.278 -10.976  0.00  0.00    +0.000 HD
ATOM     11  H   UNL     1      -0.012 -11.347  -9.637  0.00  0.00    +0.000 HD
BRANCH   7  12
ATOM     12  O   UNL     1      -1.216 -13.220  -5.865  0.00  0.00    +0.000 OA
BRANCH  12  13
ATOM     13  C   UNL     1      -0.136 -12.613  -5.162  0.00  0.00    +0.000 C 
ATOM     14  H   UNL     1      -0.503 -11.876  -4.440  0.00  0.00    +0.000 HD
ATOM     15  H   UNL     1       0.577 -12.157  -5.857  0.00  0.00    +0.000 HD
ATOM     16  H   UNL     1       0.387 -13.398  -4.607  0.00  0.00    +0.000 HD
ENDBRANCH  12  13
ENDBRANCH   7  12
ENDBRANCH   1   6
BRANCH   1  17
ATOM     17  C   UNL     1      -3.802 -15.287  -7.084  0.00  0.00    +0.000 C 
ATOM     18  H   UNL     1      -4.105 -14.328  -7.523  0.00  0.00    +0.000 HD
BRANCH  17  19
ATOM     19  C   UNL     1      -4.597 -16.409  -7.756  0.00  0.00    +0.000 C 
ATOM     20  H   UNL     1      -5.251 -16.048  -8.556  0.00  0.00    +0.000 HD
ATOM     21  H   UNL     1      -5.193 -16.961  -7.024  0.00  0.00    +0.000 HD
ATOM     22  H   UNL     1      -3.908 -17.129  -8.213  0.00  0.00    +0.000 HD
ENDBRANCH  17  19
BRANCH  17  23
ATOM     23  C   UNL     1      -4.119 -15.256  -5.588  0.00  0.00    +0.000 C 
ATOM     24  H   UNL     1      -5.042 -14.693  -5.410  0.00  0.00    +0.000 HD
ATOM     25  H   UNL     1      -4.267 -16.257  -5.170  0.00  0.00    +0.000 HD
ATOM     26  H   UNL     1      -3.320 -14.760  -5.024  0.00  0.00    +0.000 HD
ENDBRANCH  17  23
ENDBRANCH   1  17
TORSDOF 6
ENDMDL
MODEL 8
REMARK VINA RESULT:    -3.493     23.798     26.652
REMARK INTER + INTRA:          -4.651
REMARK INTER:                  -4.415
REMARK INTRA:                  -0.235
REMARK UNBOUND:                -0.239
REMARK  Name = 32594
REMARK  6 active torsions:
REMARK  status: ('A' for Active; 'I' for Inactive)
REMARK    1  A    between atoms: O_1  and  C_9
REMARK    2  A    between atoms: O_1  and  C_12
REMARK    3  A    between atoms: C_4  and  C_5
REMARK    4  A    between atoms: C_4  and  C_6
REMARK    5  A    between atoms: C_4  and  C_7
REMARK    6  A    between atoms: C_5  and  C_8
REMARK                            x       y       z     vdW  Elec       q    Type
REMARK                         _______ _______ _______ _____ _____    ______ ____
ROOT
ATOM      1  C   UNL     1       6.039  -1.833  13.589  0.00  0.00    +0.000 C 
ATOM      2  H   UNL     1       6.608  -2.054  12.675  0.00  0.00    +0.000 HD
ATOM      3  H   UNL     1       5.424  -0.959  13.340  0.00  0.00    +0.000 HD
ENDROOT
BRANCH   1   6
ATOM      4  N   UNL     1       4.381  -2.899  14.991  0.00  0.00    +0.000 NA
ATOM      5  N   UNL     1       4.377  -5.185  13.366  0.00  0.00    +0.000 NA
ATOM      6  C   UNL     1       5.152  -3.014  13.902  0.00  0.00    +0.000 A 
ATOM      7  C   UNL     1       5.161  -4.122  13.100  0.00  0.00    +0.000 A 
ATOM      8  C   UNL     1       3.597  -3.962  15.258  0.00  0.00    +0.000 A 
ATOM      9  C   UNL     1       3.594  -5.085  14.459  0.00  0.00    +0.000 A 
ATOM     10  H   UNL     1       2.968  -3.882  16.135  0.00  0.00    +0.000 HD
ATOM     11  H   UNL     1       2.963  -5.939  14.673  0.00  0.00    +0.000 HD
BRANCH   7  12
ATOM     12  O   UNL     1       5.963  -4.200  11.996  0.00  0.00    +0.000 OA
BRANCH  12  13
ATOM     13  C   UNL     1       5.326  -4.503  10.758  0.00  0.00    +0.000 C 
ATOM     14  H   UNL     1       5.055  -5.563  10.705  0.00  0.00    +0.000 HD
ATOM     15  H   UNL     1       5.959  -4.219   9.911  0.00  0.00    +0.000 HD
ATOM     16  H   UNL     1       4.404  -3.917  10.703  0.00  0.00    +0.000 HD
ENDBRANCH  12  13
ENDBRANCH   7  12
ENDBRANCH   1   6
BRANCH   1  17
ATOM     17  C   UNL     1       7.016  -1.471  14.724  0.00  0.00    +0.000 C 
ATOM     18  H   UNL     1       6.429  -1.280  15.631  0.00  0.00    +0.000 HD
BRANCH  17  19
ATOM     19  C   UNL     1       8.010  -2.599  15.010  0.00  0.00    +0.000 C 
ATOM     20  H   UNL     1       8.103  -2.826  16.077  0.00  0.00    +0.000 HD
ATOM     21  H   UNL     1       8.998  -2.365  14.603  0.00  0.00    +0.000 HD
ATOM     22  H   UNL     1       7.674  -3.521  14.520  0.00  0.00    +0.000 HD
ENDBRANCH  17  19
BRANCH  17  23
ATOM     23  C   UNL     1       7.777  -0.193  14.364  0.00  0.00    +0.000 C 
ATOM     24  H   UNL     1       7.179   0.421  13.681  0.00  0.00    +0.000 HD
ATOM     25  H   UNL     1       8.000   0.424  15.241  0.00  0.00    +0.000 HD
ATOM     26  H   UNL     1       8.720  -0.424  13.855  0.00  0.00    +0.000 HD
ENDBRANCH  17  23
ENDBRANCH   1  17
TORSDOF 6
ENDMDL
MODEL 9
REMARK VINA RESULT:    -3.420     18.498     19.330
REMARK INTER + INTRA:          -4.559
REMARK INTER:                  -4.320
REMARK INTRA:                  -0.239
REMARK UNBOUND:                -0.239
REMARK  Name = 32594
REMARK  6 active torsions:
REMARK  status: ('A' for Active; 'I' for Inactive)
REMARK    1  A    between atoms: O_1  and  C_9
REMARK    2  A    between atoms: O_1  and  C_12
REMARK    3  A    between atoms: C_4  and  C_5
REMARK    4  A    between atoms: C_4  and  C_6
REMARK    5  A    between atoms: C_4  and  C_7
REMARK    6  A    between atoms: C_5  and  C_8
REMARK                            x       y       z     vdW  Elec       q    Type
REMARK                         _______ _______ _______ _____ _____    ______ ____
ROOT
ATOM      1  C   UNL     1      -3.517   2.331 -15.861  0.00  0.00    +0.000 C 
ATOM      2  H   UNL     1      -3.037   1.345 -15.918  0.00  0.00    +0.000 HD
ATOM      3  H   UNL     1      -4.386   2.190 -15.206  0.00  0.00    +0.000 HD
ENDROOT
BRANCH   1   6
ATOM      4  N   UNL     1      -1.267   3.178 -15.594  0.00  0.00    +0.000 NA
ATOM      5  N   UNL     1      -2.140   5.114 -13.761  0.00  0.00    +0.000 NA
ATOM      6  C   UNL     1      -2.549   3.302 -15.229  0.00  0.00    +0.000 A 
ATOM      7  C   UNL     1      -2.990   4.240 -14.337  0.00  0.00    +0.000 A 
ATOM      8  C   UNL     1      -0.416   4.051 -15.019  0.00  0.00    +0.000 A 
ATOM      9  C   UNL     1      -0.844   5.002 -14.119  0.00  0.00    +0.000 A 
ATOM     10  H   UNL     1       0.624   3.962 -15.307  0.00  0.00    +0.000 HD
ATOM     11  H   UNL     1      -0.160   5.704 -13.658  0.00  0.00    +0.000 HD
BRANCH   7  12
ATOM     12  O   UNL     1      -4.308   4.335 -13.989  0.00  0.00    +0.000 OA
BRANCH  12  13
ATOM     13  C   UNL     1      -4.613   5.093 -12.822  0.00  0.00    +0.000 C 
ATOM     14  H   UNL     1      -3.747   5.150 -12.154  0.00  0.00    +0.000 HD
ATOM     15  H   UNL     1      -5.482   4.677 -12.300  0.00  0.00    +0.000 HD
ATOM     16  H   UNL     1      -4.863   6.110 -13.138  0.00  0.00    +0.000 HD
ENDBRANCH  12  13
ENDBRANCH   7  12
ENDBRANCH   1   6
BRANCH   1  17
ATOM     17  C   UNL     1      -3.991   2.752 -17.266  0.00  0.00    +0.000 C 
ATOM     18  H   UNL     1      -3.474   3.681 -17.536  0.00  0.00    +0.000 HD
BRANCH  17  19
ATOM     19  C   UNL     1      -3.678   1.688 -18.320  0.00  0.00    +0.000 C 
ATOM     20  H   UNL     1      -4.127   0.716 -18.093  0.00  0.00    +0.000 HD
ATOM     21  H   UNL     1      -2.598   1.566 -18.446  0.00  0.00    +0.000 HD
ATOM     22  H   UNL     1      -4.079   2.000 -19.292  0.00  0.00    +0.000 HD
ENDBRANCH  17  19
BRANCH  17  23
ATOM     23  C   UNL     1      -5.497   3.026 -17.243  0.00  0.00    +0.000 C 
ATOM     24  H   UNL     1      -5.966   2.481 -16.416  0.00  0.00    +0.000 HD
ATOM     25  H   UNL     1      -5.727   4.087 -17.101  0.00  0.00    +0.000 HD
ATOM     26  H   UNL     1      -5.975   2.689 -18.170  0.00  0.00    +0.000 HD
ENDBRANCH  17  23
ENDBRANCH   1  17
TORSDOF 6
ENDMDL
MODEL 10
REMARK VINA RESULT:    -3.415     17.228     18.536
REMARK INTER + INTRA:          -4.552
REMARK INTER:                  -4.327
REMARK INTRA:                  -0.226
REMARK UNBOUND:                -0.239
REMARK  Name = 32594
REMARK  6 active torsions:
REMARK  status: ('A' for Active; 'I' for Inactive)
REMARK    1  A    between atoms: O_1  and  C_9
REMARK    2  A    between atoms: O_1  and  C_12
REMARK    3  A    between atoms: C_4  and  C_5
REMARK    4  A    between atoms: C_4  and  C_6
REMARK    5  A    between atoms: C_4  and  C_7
REMARK    6  A    between atoms: C_5  and  C_8
REMARK                            x       y       z     vdW  Elec       q    Type
REMARK                         _______ _______ _______ _____ _____    ______ ____
ROOT
ATOM      1  C   UNL     1     -17.101 -10.519   1.037  0.00  0.00    +0.000 C 
ATOM      2  H   UNL     1     -18.112 -10.222   0.726  0.00  0.00    +0.000 HD
ATOM      3  H   UNL     1     -17.243 -11.424   1.643  0.00  0.00    +0.000 HD
ENDROOT
BRANCH   1   6
ATOM      4  N   UNL     1     -15.007 -11.160   0.010  0.00  0.00    +0.000 NA
ATOM      5  N   UNL     1     -16.164 -11.102  -2.544  0.00  0.00    +0.000 NA
ATOM      6  C   UNL     1     -16.294 -10.847  -0.195  0.00  0.00    +0.000 A 
ATOM      7  C   UNL     1     -16.871 -10.815  -1.434  0.00  0.00    +0.000 A 
ATOM      8  C   UNL     1     -14.299 -11.448  -1.100  0.00  0.00    +0.000 A 
ATOM      9  C   UNL     1     -14.867 -11.420  -2.355  0.00  0.00    +0.000 A 
ATOM     10  H   UNL     1     -13.258 -11.704  -0.948  0.00  0.00    +0.000 HD
ATOM     11  H   UNL     1     -14.299 -11.653  -3.247  0.00  0.00    +0.000 HD
BRANCH   7  12
ATOM     12  O   UNL     1     -18.189 -10.490  -1.602  0.00  0.00    +0.000 OA
BRANCH  12  13
ATOM     13  C   UNL     1     -18.469  -9.236  -2.217  0.00  0.00    +0.000 C 
ATOM     14  H   UNL     1     -19.535  -9.143  -2.449  0.00  0.00    +0.000 HD
ATOM     15  H   UNL     1     -17.860  -9.096  -3.117  0.00  0.00    +0.000 HD
ATOM     16  H   UNL     1     -18.208  -8.447  -1.506  0.00  0.00    +0.000 HD
ENDBRANCH  12  13
ENDBRANCH   7  12
ENDBRANCH   1   6
BRANCH   1  17
ATOM     17  C   UNL     1     -16.486  -9.406   1.907  0.00  0.00    +0.000 C 
ATOM     18  H   UNL     1     -15.490  -9.736   2.228  0.00  0.00    +0.000 HD
BRANCH  17  19
ATOM     19  C   UNL     1     -16.345  -8.089   1.140  0.00  0.00    +0.000 C 
ATOM     20  H   UNL     1     -15.348  -7.950   0.711  0.00  0.00    +0.000 HD
ATOM     21  H   UNL     1     -16.586  -7.234   1.778  0.00  0.00    +0.000 HD
ATOM     22  H   UNL     1     -17.053  -8.071   0.303  0.00  0.00    +0.000 HD
ENDBRANCH  17  19
BRANCH  17  23
ATOM     23  C   UNL     1     -17.348  -9.186   3.153  0.00  0.00    +0.000 C 
ATOM     24  H   UNL     1     -17.497 -10.136   3.679  0.00  0.00    +0.000 HD
ATOM     25  H   UNL     1     -16.887  -8.493   3.864  0.00  0.00    +0.000 HD
ATOM     26  H   UNL     1     -18.339  -8.801   2.886  0.00  0.00    +0.000 HD
ENDBRANCH  17  23
ENDBRANCH   1  17
TORSDOF 6
ENDMDL
