MODEL 1
REMARK VINA RESULT:    -4.102      0.000      0.000
REMARK INTER + INTRA:          -5.392
REMARK INTER:                  -5.172
REMARK INTRA:                  -0.220
REMARK UNBOUND:                -0.211
REMARK  Name = 32594
REMARK  6 active torsions:
REMARK  status: ('A' for Active; 'I' for Inactive)
REMARK    1  A    between atoms: O_1  and  C_9
REMARK    2  A    between atoms: O_1  and  C_12
REMARK    3  A    between atoms: C_4  and  C_5
REMARK    4  A    between atoms: C_4  and  C_6
REMARK    5  A    between atoms: C_4  and  C_7
REMARK    6  A    between atoms: C_5  and  C_8
REMARK                            x       y       z     vdW  Elec       q    Type
REMARK                         _______ _______ _______ _____ _____    ______ ____
ROOT
ATOM      1  C   UNL     1      -2.817   9.579  12.493  0.00  0.00    +0.000 C 
ATOM      2  H   UNL     1      -2.693  10.600  12.879  0.00  0.00    +0.000 HD
ATOM      3  H   UNL     1      -3.681   9.631  11.818  0.00  0.00    +0.000 HD
ENDROOT
BRANCH   1   6
ATOM      4  N   UNL     1      -1.479   7.919  11.351  0.00  0.00    +0.000 NA
ATOM      5  N   UNL     1       0.477   9.829  10.723  0.00  0.00    +0.000 NA
ATOM      6  C   UNL     1      -1.580   9.204  11.714  0.00  0.00    +0.000 A 
ATOM      7  C   UNL     1      -0.634  10.146  11.415  0.00  0.00    +0.000 A 
ATOM      8  C   UNL     1      -0.367   7.600  10.658  0.00  0.00    +0.000 A 
ATOM      9  C   UNL     1       0.593   8.538  10.349  0.00  0.00    +0.000 A 
ATOM     10  H   UNL     1      -0.274   6.564  10.358  0.00  0.00    +0.000 HD
ATOM     11  H   UNL     1       1.486   8.282   9.791  0.00  0.00    +0.000 HD
BRANCH   7  12
ATOM     12  O   UNL     1      -0.773  11.450  11.804  0.00  0.00    +0.000 OA
BRANCH  12  13
ATOM     13  C   UNL     1      -0.962  12.412  10.771  0.00  0.00    +0.000 C 
ATOM     14  H   UNL     1      -1.070  13.419  11.189  0.00  0.00    +0.000 HD
ATOM     15  H   UNL     1      -1.824  12.154  10.146  0.00  0.00    +0.000 HD
ATOM     16  H   UNL     1      -0.070  12.404  10.138  0.00  0.00    +0.000 HD
ENDBRANCH  12  13
ENDBRANCH   7  12
ENDBRANCH   1   6
BRANCH   1  17
ATOM     17  C   UNL     1      -3.130   8.625  13.662  0.00  0.00    +0.000 C 
ATOM     18  H   UNL     1      -2.808   7.616  13.373  0.00  0.00    +0.000 HD
BRANCH  17  19
ATOM     19  C   UNL     1      -2.399   9.028  14.944  0.00  0.00    +0.000 C 
ATOM     20  H   UNL     1      -2.130   8.170  15.569  0.00  0.00    +0.000 HD
ATOM     21  H   UNL     1      -2.995   9.731  15.533  0.00  0.00    +0.000 HD
ATOM     22  H   UNL     1      -1.462   9.538  14.691  0.00  0.00    +0.000 HD
ENDBRANCH  17  19
BRANCH  17  23
ATOM     23  C   UNL     1      -4.639   8.596  13.916  0.00  0.00    +0.000 C 
ATOM     24  H   UNL     1      -5.172   9.042  13.070  0.00  0.00    +0.000 HD
ATOM     25  H   UNL     1      -5.023   7.578  14.039  0.00  0.00    +0.000 HD
ATOM     26  H   UNL     1      -4.900   9.175  14.810  0.00  0.00    +0.000 HD
ENDBRANCH  17  23
ENDBRANCH   1  17
TORSDOF 6
ENDMDL
MODEL 2
REMARK VINA RESULT:    -3.937     42.086     44.024
REMARK INTER + INTRA:          -5.184
REMARK INTER:                  -4.995
REMARK INTRA:                  -0.189
REMARK UNBOUND:                -0.211
REMARK  Name = 32594
REMARK  6 active torsions:
REMARK  status: ('A' for Active; 'I' for Inactive)
REMARK    1  A    between atoms: O_1  and  C_9
REMARK    2  A    between atoms: O_1  and  C_12
REMARK    3  A    between atoms: C_4  and  C_5
REMARK    4  A    between atoms: C_4  and  C_6
REMARK    5  A    between atoms: C_4  and  C_7
REMARK    6  A    between atoms: C_5  and  C_8
REMARK                            x       y       z     vdW  Elec       q    Type
REMARK                         _______ _______ _______ _____ _____    ______ ____
ROOT
ATOM      1  C   UNL     1       7.873 -11.577 -26.088  0.00  0.00    +0.000 C 
ATOM      2  H   UNL     1       8.606 -11.746 -25.287  0.00  0.00    +0.000 HD
ATOM      3  H   UNL     1       7.684 -12.569 -26.517  0.00  0.00    +0.000 HD
ENDROOT
BRANCH   1   6
ATOM      4  N   UNL     1       6.515  -9.697 -25.401  0.00  0.00    +0.000 NA
ATOM      5  N   UNL     1       4.491 -11.407 -24.482  0.00  0.00    +0.000 NA
ATOM      6  C   UNL     1       6.606 -11.031 -25.476  0.00  0.00    +0.000 A 
ATOM      7  C   UNL     1       5.628 -11.877 -25.032  0.00  0.00    +0.000 A 
ATOM      8  C   UNL     1       5.379  -9.226 -24.851  0.00  0.00    +0.000 A 
ATOM      9  C   UNL     1       4.384 -10.066 -24.400  0.00  0.00    +0.000 A 
ATOM     10  H   UNL     1       5.292  -8.148 -24.785  0.00  0.00    +0.000 HD
ATOM     11  H   UNL     1       3.471  -9.687 -23.958  0.00  0.00    +0.000 HD
BRANCH   7  12
ATOM     12  O   UNL     1       5.758 -13.235 -25.127  0.00  0.00    +0.000 OA
BRANCH  12  13
ATOM     13  C   UNL     1       4.676 -13.946 -25.720  0.00  0.00    +0.000 C 
ATOM     14  H   UNL     1       4.045 -14.410 -24.954  0.00  0.00    +0.000 HD
ATOM     15  H   UNL     1       5.040 -14.694 -26.431  0.00  0.00    +0.000 HD
ATOM     16  H   UNL     1       4.063 -13.226 -26.271  0.00  0.00    +0.000 HD
ENDBRANCH  12  13
ENDBRANCH   7  12
ENDBRANCH   1   6
BRANCH   1  17
ATOM     17  C   UNL     1       8.491 -10.660 -27.162  0.00  0.00    +0.000 C 
ATOM     18  H   UNL     1       8.332  -9.619 -26.853  0.00  0.00    +0.000 HD
BRANCH  17  19
ATOM     19  C   UNL     1       9.994 -10.900 -27.327  0.00  0.00    +0.000 C 
ATOM     20  H   UNL     1      10.574  -9.972 -27.352  0.00  0.00    +0.000 HD
ATOM     21  H   UNL     1      10.202 -11.481 -28.230  0.00  0.00    +0.000 HD
ATOM     22  H   UNL     1      10.370 -11.484 -26.479  0.00  0.00    +0.000 HD
ENDBRANCH  17  19
BRANCH  17  23
ATOM     23  C   UNL     1       7.784 -10.880 -28.501  0.00  0.00    +0.000 C 
ATOM     24  H   UNL     1       7.058 -10.079 -28.679  0.00  0.00    +0.000 HD
ATOM     25  H   UNL     1       8.479 -10.880 -29.346  0.00  0.00    +0.000 HD
ATOM     26  H   UNL     1       7.233 -11.828 -28.506  0.00  0.00    +0.000 HD
ENDBRANCH  17  23
ENDBRANCH   1  17
TORSDOF 6
ENDMDL
MODEL 3
REMARK VINA RESULT:    -3.820     27.310     28.376
REMARK INTER + INTRA:          -5.036
REMARK INTER:                  -4.805
REMARK INTRA:                  -0.232
REMARK UNBOUND:                -0.211
REMARK  Name = 32594
REMARK  6 active torsions:
REMARK  status: ('A' for Active; 'I' for Inactive)
REMARK    1  A    between atoms: O_1  and  C_9
REMARK    2  A    between atoms: O_1  and  C_12
REMARK    3  A    between atoms: C_4  and  C_5
REMARK    4  A    between atoms: C_4  and  C_6
REMARK    5  A    between atoms: C_4  and  C_7
REMARK    6  A    between atoms: C_5  and  C_8
REMARK                            x       y       z     vdW  Elec       q    Type
REMARK                         _______ _______ _______ _____ _____    ______ ____
ROOT
ATOM      1  C   UNL     1     -18.133  -9.209  -1.972  0.00  0.00    +0.000 C 
ATOM      2  H   UNL     1     -18.374  -8.538  -1.136  0.00  0.00    +0.000 HD
ATOM      3  H   UNL     1     -17.958  -8.546  -2.830  0.00  0.00    +0.000 HD
ENDROOT
BRANCH   1   6
ATOM      4  N   UNL     1     -16.272 -10.593  -2.657  0.00  0.00    +0.000 NA
ATOM      5  N   UNL     1     -15.261 -10.646  -0.041  0.00  0.00    +0.000 NA
ATOM      6  C   UNL     1     -16.869  -9.961  -1.638  0.00  0.00    +0.000 A 
ATOM      7  C   UNL     1     -16.388  -9.978  -0.357  0.00  0.00    +0.000 A 
ATOM      8  C   UNL     1     -15.145 -11.262  -2.341  0.00  0.00    +0.000 A 
ATOM      9  C   UNL     1     -14.648 -11.288  -1.056  0.00  0.00    +0.000 A 
ATOM     10  H   UNL     1     -14.653 -11.777  -3.156  0.00  0.00    +0.000 HD
ATOM     11  H   UNL     1     -13.742 -11.824  -0.803  0.00  0.00    +0.000 HD
BRANCH   7  12
ATOM     12  O   UNL     1     -17.026  -9.319   0.656  0.00  0.00    +0.000 OA
BRANCH  12  13
ATOM     13  C   UNL     1     -16.203  -8.660   1.614  0.00  0.00    +0.000 C 
ATOM     14  H   UNL     1     -15.376  -8.135   1.125  0.00  0.00    +0.000 HD
ATOM     15  H   UNL     1     -15.829  -9.367   2.362  0.00  0.00    +0.000 HD
ATOM     16  H   UNL     1     -16.818  -7.916   2.130  0.00  0.00    +0.000 HD
ENDBRANCH  12  13
ENDBRANCH   7  12
ENDBRANCH   1   6
BRANCH   1  17
ATOM     17  C   UNL     1     -19.342 -10.120  -2.262  0.00  0.00    +0.000 C 
ATOM     18  H   UNL     1     -19.001 -10.946  -2.898  0.00  0.00    +0.000 HD
BRANCH  17  19
ATOM     19  C   UNL     1     -19.943 -10.701  -0.980  0.00  0.00    +0.000 C 
ATOM     20  H   UNL     1     -20.759 -11.406  -1.172  0.00  0.00    +0.000 HD
ATOM     21  H   UNL     1     -20.302  -9.907  -0.318  0.00  0.00    +0.000 HD
ATOM     22  H   UNL     1     -19.174 -11.253  -0.427  0.00  0.00    +0.000 HD
ENDBRANCH  17  19
BRANCH  17  23
ATOM     23  C   UNL     1     -20.412  -9.334  -3.023  0.00  0.00    +0.000 C 
ATOM     24  H   UNL     1     -21.315  -9.944  -3.139  0.00  0.00    +0.000 HD
ATOM     25  H   UNL     1     -20.708  -8.417  -2.503  0.00  0.00    +0.000 HD
ATOM     26  H   UNL     1     -20.067  -9.067  -4.028  0.00  0.00    +0.000 HD
ENDBRANCH  17  23
ENDBRANCH   1  17
TORSDOF 6
ENDMDL
MODEL 4
REMARK VINA RESULT:    -3.816     14.601     15.627
REMARK INTER + INTRA:          -5.031
REMARK INTER:                  -4.802
REMARK INTRA:                  -0.229
REMARK UNBOUND:                -0.211
REMARK  Name = 32594
REMARK  6 active torsions:
REMARK  status: ('A' for Active; 'I' for Inactive)
REMARK    1  A    between atoms: O_1  and  C_9
REMARK    2  A    between atoms: O_1  and  C_12
REMARK    3  A    between atoms: C_4  and  C_5
REMARK    4  A    between atoms: C_4  and  C_6
REMARK    5  A    between atoms: C_4  and  C_7
REMARK    6  A    between atoms: C_5  and  C_8
REMARK                            x       y       z     vdW  Elec       q    Type
REMARK                         _______ _______ _______ _____ _____    ______ ____
ROOT
ATOM      1  C   UNL     1     -10.992   8.030   1.599  0.00  0.00    +0.000 C 
ATOM      2  H   UNL     1     -10.091   7.975   2.225  0.00  0.00    +0.000 HD
ATOM      3  H   UNL     1     -10.975   7.115   0.992  0.00  0.00    +0.000 HD
ENDROOT
BRANCH   1   6
ATOM      4  N   UNL     1     -12.111   8.765   3.612  0.00  0.00    +0.000 NA
ATOM      5  N   UNL     1     -14.408   7.296   2.953  0.00  0.00    +0.000 NA
ATOM      6  C   UNL     1     -12.204   8.030   2.497  0.00  0.00    +0.000 A 
ATOM      7  C   UNL     1     -13.317   7.309   2.162  0.00  0.00    +0.000 A 
ATOM      8  C   UNL     1     -13.202   8.753   4.404  0.00  0.00    +0.000 A 
ATOM      9  C   UNL     1     -14.330   8.032   4.081  0.00  0.00    +0.000 A 
ATOM     10  H   UNL     1     -13.140   9.344   5.309  0.00  0.00    +0.000 HD
ATOM     11  H   UNL     1     -15.207   8.023   4.716  0.00  0.00    +0.000 HD
BRANCH   7  12
ATOM     12  O   UNL     1     -13.373   6.570   1.013  0.00  0.00    +0.000 OA
BRANCH  12  13
ATOM     13  C   UNL     1     -14.596   5.890   0.745  0.00  0.00    +0.000 C 
ATOM     14  H   UNL     1     -15.337   6.093   1.524  0.00  0.00    +0.000 HD
ATOM     15  H   UNL     1     -14.429   4.812   0.636  0.00  0.00    +0.000 HD
ATOM     16  H   UNL     1     -14.990   6.268  -0.203  0.00  0.00    +0.000 HD
ENDBRANCH  12  13
ENDBRANCH   7  12
ENDBRANCH   1   6
BRANCH   1  17
ATOM     17  C   UNL     1     -10.899   9.262   0.677  0.00  0.00    +0.000 C 
ATOM     18  H   UNL     1     -11.825   9.841   0.789  0.00  0.00    +0.000 HD
BRANCH  17  19
ATOM     19  C   UNL     1      -9.711  10.158   1.034  0.00  0.00    +0.000 C 
ATOM     20  H   UNL     1      -9.036   9.701   1.765  0.00  0.00    +0.000 HD
ATOM     21  H   UNL     1     -10.049  11.128   1.411  0.00  0.00    +0.000 HD
ATOM     22  H   UNL     1      -9.114  10.356   0.136  0.00  0.00    +0.000 HD
ENDBRANCH  17  19
BRANCH  17  23
ATOM     23  C   UNL     1     -10.785   8.811  -0.781  0.00  0.00    +0.000 C 
ATOM     24  H   UNL     1     -11.736   8.386  -1.119  0.00  0.00    +0.000 HD
ATOM     25  H   UNL     1     -10.543   9.637  -1.457  0.00  0.00    +0.000 HD
ATOM     26  H   UNL     1     -10.020   8.034  -0.896  0.00  0.00    +0.000 HD
ENDBRANCH  17  23
ENDBRANCH   1  17
TORSDOF 6
ENDMDL
MODEL 5
REMARK VINA RESULT:    -3.674     26.910     27.975
REMARK INTER + INTRA:          -4.852
REMARK INTER:                  -4.642
REMARK INTRA:                  -0.210
REMARK UNBOUND:                -0.211
REMARK  Name = 32594
REMARK  6 active torsions:
REMARK  status: ('A' for Active; 'I' for Inactive)
REMARK    1  A    between atoms: O_1  and  C_9
REMARK    2  A    between atoms: O_1  and  C_12
REMARK    3  A    between atoms: C_4  and  C_5
REMARK    4  A    between atoms: C_4  and  C_6
REMARK    5  A    between atoms: C_4  and  C_7
REMARK    6  A    between atoms: C_5  and  C_8
REMARK                            x       y       z     vdW  Elec       q    Type
REMARK                         _______ _______ _______ _____ _____    ______ ____
ROOT
ATOM      1  C   UNL     1     -16.155 -10.766  -0.180  0.00  0.00    +0.000 C 
ATOM      2  H   UNL     1     -17.099 -10.359  -0.566  0.00  0.00    +0.000 HD
ATOM      3  H   UNL     1     -16.421 -11.733   0.266  0.00  0.00    +0.000 HD
ENDROOT
BRANCH   1   6
ATOM      4  N   UNL     1     -13.962 -11.343  -1.023  0.00  0.00    +0.000 NA
ATOM      5  N   UNL     1     -14.809 -10.978  -3.672  0.00  0.00    +0.000 NA
ATOM      6  C   UNL     1     -15.211 -10.977  -1.339  0.00  0.00    +0.000 A 
ATOM      7  C   UNL     1     -15.639 -10.796  -2.625  0.00  0.00    +0.000 A 
ATOM      8  C   UNL     1     -13.132 -11.526  -2.069  0.00  0.00    +0.000 A 
ATOM      9  C   UNL     1     -13.548 -11.347  -3.370  0.00  0.00    +0.000 A 
ATOM     10  H   UNL     1     -12.119 -11.823  -1.827  0.00  0.00    +0.000 HD
ATOM     11  H   UNL     1     -12.881 -11.495  -4.210  0.00  0.00    +0.000 HD
BRANCH   7  12
ATOM     12  O   UNL     1     -16.923 -10.422  -2.908  0.00  0.00    +0.000 OA
BRANCH  12  13
ATOM     13  C   UNL     1     -17.738 -11.377  -3.580  0.00  0.00    +0.000 C 
ATOM     14  H   UNL     1     -17.815 -12.304  -3.001  0.00  0.00    +0.000 HD
ATOM     15  H   UNL     1     -17.359 -11.577  -4.588  0.00  0.00    +0.000 HD
ATOM     16  H   UNL     1     -18.743 -10.954  -3.674  0.00  0.00    +0.000 HD
ENDBRANCH  12  13
ENDBRANCH   7  12
ENDBRANCH   1   6
BRANCH   1  17
ATOM     17  C   UNL     1     -15.601  -9.828   0.910  0.00  0.00    +0.000 C 
ATOM     18  H   UNL     1     -14.521  -9.721   0.750  0.00  0.00    +0.000 HD
BRANCH  17  19
ATOM     19  C   UNL     1     -16.247  -8.442   0.857  0.00  0.00    +0.000 C 
ATOM     20  H   UNL     1     -17.045  -8.315   1.596  0.00  0.00    +0.000 HD
ATOM     21  H   UNL     1     -16.642  -8.229  -0.140  0.00  0.00    +0.000 HD
ATOM     22  H   UNL     1     -15.494  -7.674   1.073  0.00  0.00    +0.000 HD
ENDBRANCH  17  19
BRANCH  17  23
ATOM     23  C   UNL     1     -15.826 -10.449   2.291  0.00  0.00    +0.000 C 
ATOM     24  H   UNL     1     -16.776 -10.099   2.710  0.00  0.00    +0.000 HD
ATOM     25  H   UNL     1     -15.873 -11.542   2.255  0.00  0.00    +0.000 HD
ATOM     26  H   UNL     1     -15.033 -10.158   2.989  0.00  0.00    +0.000 HD
ENDBRANCH  17  23
ENDBRANCH   1  17
TORSDOF 6
ENDMDL
MODEL 6
REMARK VINA RESULT:    -3.628      1.749      2.901
REMARK INTER + INTRA:          -4.793
REMARK INTER:                  -4.563
REMARK INTRA:                  -0.230
REMARK UNBOUND:                -0.211
REMARK  Name = 32594
REMARK  6 active torsions:
REMARK  status: ('A' for Active; 'I' for Inactive)
REMARK    1  A    between atoms: O_1  and  C_9
REMARK    2  A    between atoms: O_1  and  C_12
REMARK    3  A    between atoms: C_4  and  C_5
REMARK    4  A    between atoms: C_4  and  C_6
REMARK    5  A    between atoms: C_4  and  C_7
REMARK    6  A    between atoms: C_5  and  C_8
REMARK                            x       y       z     vdW  Elec       q    Type
REMARK                         _______ _______ _______ _____ _____    ______ ____
ROOT
ATOM      1  C   UNL     1      -3.257   9.497  12.453  0.00  0.00    +0.000 C 
ATOM      2  H   UNL     1      -4.054  10.120  12.024  0.00  0.00    +0.000 HD
ATOM      3  H   UNL     1      -3.202   8.615  11.802  0.00  0.00    +0.000 HD
ENDROOT
BRANCH   1   6
ATOM      4  N   UNL     1      -1.926  11.423  13.060  0.00  0.00    +0.000 NA
ATOM      5  N   UNL     1       0.270  10.448  11.613  0.00  0.00    +0.000 NA
ATOM      6  C   UNL     1      -1.959  10.264  12.390  0.00  0.00    +0.000 A 
ATOM      7  C   UNL     1      -0.896   9.775  11.681  0.00  0.00    +0.000 A 
ATOM      8  C   UNL     1      -0.760  12.096  12.992  0.00  0.00    +0.000 A 
ATOM      9  C   UNL     1       0.318  11.617  12.282  0.00  0.00    +0.000 A 
ATOM     10  H   UNL     1      -0.721  13.035  13.530  0.00  0.00    +0.000 HD
ATOM     11  H   UNL     1       1.255  12.158  12.229  0.00  0.00    +0.000 HD
BRANCH   7  12
ATOM     12  O   UNL     1      -0.969   8.586  11.010  0.00  0.00    +0.000 OA
BRANCH  12  13
ATOM     13  C   UNL     1       0.261   8.025  10.561  0.00  0.00    +0.000 C 
ATOM     14  H   UNL     1       0.190   7.710   9.515  0.00  0.00    +0.000 HD
ATOM     15  H   UNL     1       0.567   7.189  11.200  0.00  0.00    +0.000 HD
ATOM     16  H   UNL     1       1.029   8.801  10.629  0.00  0.00    +0.000 HD
ENDBRANCH  12  13
ENDBRANCH   7  12
ENDBRANCH   1   6
BRANCH   1  17
ATOM     17  C   UNL     1      -3.656   9.064  13.877  0.00  0.00    +0.000 C 
ATOM     18  H   UNL     1      -3.580   9.940  14.533  0.00  0.00    +0.000 HD
BRANCH  17  19
ATOM     19  C   UNL     1      -5.089   8.529  13.934  0.00  0.00    +0.000 C 
ATOM     20  H   UNL     1      -5.807   9.176  13.419  0.00  0.00    +0.000 HD
ATOM     21  H   UNL     1      -5.413   8.382  14.968  0.00  0.00    +0.000 HD
ATOM     22  H   UNL     1      -5.139   7.551  13.442  0.00  0.00    +0.000 HD
ENDBRANCH  17  19
BRANCH  17  23
ATOM     23  C   UNL     1      -2.687   7.995  14.384  0.00  0.00    +0.000 C 
ATOM     24  H   UNL     1      -3.018   7.618  15.358  0.00  0.00    +0.000 HD
ATOM     25  H   UNL     1      -2.622   7.134  13.711  0.00  0.00    +0.000 HD
ATOM     26  H   UNL     1      -1.679   8.406  14.519  0.00  0.00    +0.000 HD
ENDBRANCH  17  23
ENDBRANCH   1  17
TORSDOF 6
ENDMDL
MODEL 7
REMARK VINA RESULT:    -3.602     18.293     19.184
REMARK INTER + INTRA:          -4.761
REMARK INTER:                  -4.538
REMARK INTRA:                  -0.223
REMARK UNBOUND:                -0.211
REMARK  Name = 32594
REMARK  6 active torsions:
REMARK  status: ('A' for Active; 'I' for Inactive)
REMARK    1  A    between atoms: O_1  and  C_9
REMARK    2  A    between atoms: O_1  and  C_12
REMARK    3  A    between atoms: C_4  and  C_5
REMARK    4  A    between atoms: C_4  and  C_6
REMARK    5  A    between atoms: C_4  and  C_7
REMARK    6  A    between atoms: C_5  and  C_8
REMARK                            x       y       z     vdW  Elec       q    Type
REMARK                         _______ _______ _______ _____ _____    ______ ____
ROOT
ATOM      1  C   UNL     1      -0.497  -7.964  21.128  0.00  0.00    +0.000 C 
ATOM      2  H   UNL     1      -0.479  -9.061  21.072  0.00  0.00    +0.000 HD
ATOM      3  H   UNL     1      -0.554  -7.734  22.200  0.00  0.00    +0.000 HD
ENDROOT
BRANCH   1   6
ATOM      4  N   UNL     1       1.190  -6.235  21.011  0.00  0.00    +0.000 NA
ATOM      5  N   UNL     1       2.643  -7.687  19.102  0.00  0.00    +0.000 NA
ATOM      6  C   UNL     1       0.793  -7.430  20.555  0.00  0.00    +0.000 A 
ATOM      7  C   UNL     1       1.491  -8.150  19.625  0.00  0.00    +0.000 A 
ATOM      8  C   UNL     1       2.342  -5.772  20.488  0.00  0.00    +0.000 A 
ATOM      9  C   UNL     1       3.057  -6.485  19.551  0.00  0.00    +0.000 A 
ATOM     10  H   UNL     1       2.675  -4.806  20.849  0.00  0.00    +0.000 HD
ATOM     11  H   UNL     1       3.983  -6.113  19.131  0.00  0.00    +0.000 HD
BRANCH   7  12
ATOM     12  O   UNL     1       1.052  -9.368  19.185  0.00  0.00    +0.000 OA
BRANCH  12  13
ATOM     13  C   UNL     1       1.760  -9.950  18.094  0.00  0.00    +0.000 C 
ATOM     14  H   UNL     1       2.840  -9.809  18.207  0.00  0.00    +0.000 HD
ATOM     15  H   UNL     1       1.411  -9.544  17.138  0.00  0.00    +0.000 HD
ATOM     16  H   UNL     1       1.558 -11.026  18.099  0.00  0.00    +0.000 HD
ENDBRANCH  12  13
ENDBRANCH   7  12
ENDBRANCH   1   6
BRANCH   1  17
ATOM     17  C   UNL     1      -1.759  -7.437  20.419  0.00  0.00    +0.000 C 
ATOM     18  H   UNL     1      -1.442  -6.890  19.522  0.00  0.00    +0.000 HD
BRANCH  17  19
ATOM     19  C   UNL     1      -2.697  -8.571  19.998  0.00  0.00    +0.000 C 
ATOM     20  H   UNL     1      -2.366  -9.084  19.089  0.00  0.00    +0.000 HD
ATOM     21  H   UNL     1      -3.718  -8.203  19.854  0.00  0.00    +0.000 HD
ATOM     22  H   UNL     1      -2.740  -9.328  20.789  0.00  0.00    +0.000 HD
ENDBRANCH  17  19
BRANCH  17  23
ATOM     23  C   UNL     1      -2.503  -6.467  21.339  0.00  0.00    +0.000 C 
ATOM     24  H   UNL     1      -1.824  -5.679  21.682  0.00  0.00    +0.000 HD
ATOM     25  H   UNL     1      -3.342  -5.973  20.836  0.00  0.00    +0.000 HD
ATOM     26  H   UNL     1      -2.886  -6.980  22.228  0.00  0.00    +0.000 HD
ENDBRANCH  17  23
ENDBRANCH   1  17
TORSDOF 6
ENDMDL
MODEL 8
REMARK VINA RESULT:    -3.600     22.254     23.875
REMARK INTER + INTRA:          -4.758
REMARK INTER:                  -4.536
REMARK INTRA:                  -0.222
REMARK UNBOUND:                -0.211
REMARK  Name = 32594
REMARK  6 active torsions:
REMARK  status: ('A' for Active; 'I' for Inactive)
REMARK    1  A    between atoms: O_1  and  C_9
REMARK    2  A    between atoms: O_1  and  C_12
REMARK    3  A    between atoms: C_4  and  C_5
REMARK    4  A    between atoms: C_4  and  C_6
REMARK    5  A    between atoms: C_4  and  C_7
REMARK    6  A    between atoms: C_5  and  C_8
REMARK                            x       y       z     vdW  Elec       q    Type
REMARK                         _______ _______ _______ _____ _____    ______ ____
ROOT
ATOM      1  C   UNL     1       3.427  14.024 -10.963  0.00  0.00    +0.000 C 
ATOM      2  H   UNL     1       2.505  14.595 -10.789  0.00  0.00    +0.000 HD
ATOM      3  H   UNL     1       3.697  14.229 -12.007  0.00  0.00    +0.000 HD
ENDROOT
BRANCH   1   6
ATOM      4  N   UNL     1       4.256  14.442  -8.730  0.00  0.00    +0.000 NA
ATOM      5  N   UNL     1       6.614  15.573  -9.744  0.00  0.00    +0.000 NA
ATOM      6  C   UNL     1       4.501  14.549 -10.043  0.00  0.00    +0.000 A 
ATOM      7  C   UNL     1       5.646  15.098 -10.551  0.00  0.00    +0.000 A 
ATOM      8  C   UNL     1       5.224  14.917  -7.921  0.00  0.00    +0.000 A 
ATOM      9  C   UNL     1       6.383  15.472  -8.419  0.00  0.00    +0.000 A 
ATOM     10  H   UNL     1       5.039  14.836  -6.858  0.00  0.00    +0.000 HD
ATOM     11  H   UNL     1       7.161  15.853  -7.769  0.00  0.00    +0.000 HD
BRANCH   7  12
ATOM     12  O   UNL     1       5.859  15.189 -11.899  0.00  0.00    +0.000 OA
BRANCH  12  13
ATOM     13  C   UNL     1       6.514  16.364 -12.368  0.00  0.00    +0.000 C 
ATOM     14  H   UNL     1       6.321  17.213 -11.704  0.00  0.00    +0.000 HD
ATOM     15  H   UNL     1       6.214  16.596 -13.396  0.00  0.00    +0.000 HD
ATOM     16  H   UNL     1       7.591  16.172 -12.366  0.00  0.00    +0.000 HD
ENDBRANCH  12  13
ENDBRANCH   7  12
ENDBRANCH   1   6
BRANCH   1  17
ATOM     17  C   UNL     1       3.139  12.520 -10.790  0.00  0.00    +0.000 C 
ATOM     18  H   UNL     1       3.606  12.190  -9.853  0.00  0.00    +0.000 HD
BRANCH  17  19
ATOM     19  C   UNL     1       1.638  12.227 -10.722  0.00  0.00    +0.000 C 
ATOM     20  H   UNL     1       1.115  12.463 -11.654  0.00  0.00    +0.000 HD
ATOM     21  H   UNL     1       1.168  12.770  -9.897  0.00  0.00    +0.000 HD
ATOM     22  H   UNL     1       1.478  11.159 -10.532  0.00  0.00    +0.000 HD
ENDBRANCH  17  19
BRANCH  17  23
ATOM     23  C   UNL     1       3.765  11.736 -11.945  0.00  0.00    +0.000 C 
ATOM     24  H   UNL     1       4.796  11.462 -11.698  0.00  0.00    +0.000 HD
ATOM     25  H   UNL     1       3.227  10.807 -12.160  0.00  0.00    +0.000 HD
ATOM     26  H   UNL     1       3.797  12.338 -12.860  0.00  0.00    +0.000 HD
ENDBRANCH  17  23
ENDBRANCH   1  17
TORSDOF 6
ENDMDL
MODEL 9
REMARK VINA RESULT:    -3.587     22.785     24.436
REMARK INTER + INTRA:          -4.742
REMARK INTER:                  -4.557
REMARK INTRA:                  -0.185
REMARK UNBOUND:                -0.211
REMARK  Name = 32594
REMARK  6 active torsions:
REMARK  status: ('A' for Active; 'I' for Inactive)
REMARK    1  A    between atoms: O_1  and  C_9
REMARK    2  A    between atoms: O_1  and  C_12
REMARK    3  A    between atoms: C_4  and  C_5
REMARK    4  A    between atoms: C_4  and  C_6
REMARK    5  A    between atoms: C_4  and  C_7
REMARK    6  A    between atoms: C_5  and  C_8
REMARK                            x       y       z     vdW  Elec       q    Type
REMARK                         _______ _______ _______ _____ _____    ______ ____
ROOT
ATOM      1  C   UNL     1       4.454  14.876 -10.198  0.00  0.00    +0.000 C 
ATOM      2  H   UNL     1       5.468  15.297 -10.234  0.00  0.00    +0.000 HD
ATOM      3  H   UNL     1       3.790  15.703 -10.483  0.00  0.00    +0.000 HD
ENDROOT
BRANCH   1   6
ATOM      4  N   UNL     1       3.597  12.717 -10.871  0.00  0.00    +0.000 NA
ATOM      5  N   UNL     1       4.945  12.871 -13.326  0.00  0.00    +0.000 NA
ATOM      6  C   UNL     1       4.356  13.765 -11.215  0.00  0.00    +0.000 A 
ATOM      7  C   UNL     1       5.019  13.854 -12.408  0.00  0.00    +0.000 A 
ATOM      8  C   UNL     1       3.522  11.733 -11.789  0.00  0.00    +0.000 A 
ATOM      9  C   UNL     1       4.183  11.808 -12.995  0.00  0.00    +0.000 A 
ATOM     10  H   UNL     1       2.910  10.879 -11.524  0.00  0.00    +0.000 HD
ATOM     11  H   UNL     1       4.122  11.018 -13.733  0.00  0.00    +0.000 HD
BRANCH   7  12
ATOM     12  O   UNL     1       5.785  14.942 -12.722  0.00  0.00    +0.000 OA
BRANCH  12  13
ATOM     13  C   UNL     1       5.936  15.245 -14.106  0.00  0.00    +0.000 C 
ATOM     14  H   UNL     1       5.308  16.095 -14.392  0.00  0.00    +0.000 HD
ATOM     15  H   UNL     1       5.714  14.369 -14.725  0.00  0.00    +0.000 HD
ATOM     16  H   UNL     1       6.980  15.524 -14.277  0.00  0.00    +0.000 HD
ENDBRANCH  12  13
ENDBRANCH   7  12
ENDBRANCH   1   6
BRANCH   1  17
ATOM     17  C   UNL     1       4.135  14.431  -8.757  0.00  0.00    +0.000 C 
ATOM     18  H   UNL     1       3.992  13.343  -8.761  0.00  0.00    +0.000 HD
BRANCH  17  19
ATOM     19  C   UNL     1       5.266  14.776  -7.786  0.00  0.00    +0.000 C 
ATOM     20  H   UNL     1       6.155  14.152  -7.926  0.00  0.00    +0.000 HD
ATOM     21  H   UNL     1       4.931  14.698  -6.748  0.00  0.00    +0.000 HD
ATOM     22  H   UNL     1       5.584  15.814  -7.941  0.00  0.00    +0.000 HD
ENDBRANCH  17  19
BRANCH  17  23
ATOM     23  C   UNL     1       2.835  15.088  -8.288  0.00  0.00    +0.000 C 
ATOM     24  H   UNL     1       2.971  16.172  -8.202  0.00  0.00    +0.000 HD
ATOM     25  H   UNL     1       2.007  14.921  -8.984  0.00  0.00    +0.000 HD
ATOM     26  H   UNL     1       2.538  14.716  -7.300  0.00  0.00    +0.000 HD
ENDBRANCH  17  23
ENDBRANCH   1  17
TORSDOF 6
ENDMDL
MODEL 10
REMARK VINA RESULT:    -3.422     25.484     27.280
REMARK INTER + INTRA:          -4.533
REMARK INTER:                  -4.322
REMARK INTRA:                  -0.211
REMARK UNBOUND:                -0.211
REMARK  Name = 32594
REMARK  6 active torsions:
REMARK  status: ('A' for Active; 'I' for Inactive)
REMARK    1  A    between atoms: O_1  and  C_9
REMARK    2  A    between atoms: O_1  and  C_12
REMARK    3  A    between atoms: C_4  and  C_5
REMARK    4  A    between atoms: C_4  and  C_6
REMARK    5  A    between atoms: C_4  and  C_7
REMARK    6  A    between atoms: C_5  and  C_8
REMARK                            x       y       z     vdW  Elec       q    Type
REMARK                         _______ _______ _______ _____ _____    ______ ____
ROOT
ATOM      1  C   UNL     1     -14.344 -14.288  19.764  0.00  0.00    +0.000 C 
ATOM      2  H   UNL     1     -15.240 -14.588  20.324  0.00  0.00    +0.000 HD
ATOM      3  H   UNL     1     -14.178 -15.095  19.038  0.00  0.00    +0.000 HD
ENDROOT
BRANCH   1   6
ATOM      4  N   UNL     1     -14.049 -11.899  19.531  0.00  0.00    +0.000 NA
ATOM      5  N   UNL     1     -15.735 -11.841  17.290  0.00  0.00    +0.000 NA
ATOM      6  C   UNL     1     -14.637 -12.998  19.039  0.00  0.00    +0.000 A 
ATOM      7  C   UNL     1     -15.461 -12.985  17.948  0.00  0.00    +0.000 A 
ATOM      8  C   UNL     1     -14.322 -10.755  18.873  0.00  0.00    +0.000 A 
ATOM      9  C   UNL     1     -15.150 -10.726  17.772  0.00  0.00    +0.000 A 
ATOM     10  H   UNL     1     -13.852  -9.859  19.260  0.00  0.00    +0.000 HD
ATOM     11  H   UNL     1     -15.368  -9.806  17.243  0.00  0.00    +0.000 HD
BRANCH   7  12
ATOM     12  O   UNL     1     -16.043 -14.128  17.476  0.00  0.00    +0.000 OA
BRANCH  12  13
ATOM     13  C   UNL     1     -17.426 -14.056  17.143  0.00  0.00    +0.000 C 
ATOM     14  H   UNL     1     -17.622 -13.227  16.456  0.00  0.00    +0.000 HD
ATOM     15  H   UNL     1     -18.043 -13.970  18.044  0.00  0.00    +0.000 HD
ATOM     16  H   UNL     1     -17.698 -14.987  16.635  0.00  0.00    +0.000 HD
ENDBRANCH  12  13
ENDBRANCH   7  12
ENDBRANCH   1   6
BRANCH   1  17
ATOM     17  C   UNL     1     -13.144 -14.203  20.727  0.00  0.00    +0.000 C 
ATOM     18  H   UNL     1     -12.754 -13.178  20.695  0.00  0.00    +0.000 HD
BRANCH  17  19
ATOM     19  C   UNL     1     -13.538 -14.536  22.167  0.00  0.00    +0.000 C 
ATOM     20  H   UNL     1     -12.827 -15.206  22.661  0.00  0.00    +0.000 HD
ATOM     21  H   UNL     1     -14.538 -14.977  22.210  0.00  0.00    +0.000 HD
ATOM     22  H   UNL     1     -13.570 -13.616  22.764  0.00  0.00    +0.000 HD
ENDBRANCH  17  19
BRANCH  17  23
ATOM     23  C   UNL     1     -12.039 -15.155  20.262  0.00  0.00    +0.000 C 
ATOM     24  H   UNL     1     -11.098 -14.608  20.141  0.00  0.00    +0.000 HD
ATOM     25  H   UNL     1     -11.853 -15.961  20.979  0.00  0.00    +0.000 HD
ATOM     26  H   UNL     1     -12.284 -15.603  19.292  0.00  0.00    +0.000 HD
ENDBRANCH  17  23
ENDBRANCH   1  17
TORSDOF 6
ENDMDL
