MODEL 1
REMARK VINA RESULT:    -3.630      0.000      0.000
REMARK INTER + INTRA:          -3.736
REMARK INTER:                  -3.736
REMARK INTRA:                   0.000
REMARK UNBOUND:                 0.000
REMARK  Name = 7976
REMARK  1 active torsions:
REMARK  status: ('A' for Active; 'I' for Inactive)
REMARK    1  A    between atoms: C_3  and  C_4
REMARK                            x       y       z     vdW  Elec       q    Type
REMARK                         _______ _______ _______ _____ _____    ______ ____
ROOT
ATOM      1  N   UNL     1       9.747   7.666  -3.035  0.00  0.00    +0.000 NA
ATOM      2  N   UNL     1      12.503   7.700  -3.556  0.00  0.00    +0.000 NA
ATOM      3  C   UNL     1      10.240   7.520  -4.281  0.00  0.00    +0.000 A 
ATOM      4  C   UNL     1      11.594   7.537  -4.537  0.00  0.00    +0.000 A 
ATOM      5  C   UNL     1      10.658   7.829  -2.054  0.00  0.00    +0.000 A 
ATOM      6  C   UNL     1      12.010   7.846  -2.310  0.00  0.00    +0.000 A 
ATOM      7  H   UNL     1      11.998   7.420  -5.536  0.00  0.00    +0.000 HD
ATOM      8  H   UNL     1      10.262   7.947  -1.052  0.00  0.00    +0.000 HD
ATOM      9  H   UNL     1      12.740   7.977  -1.520  0.00  0.00    +0.000 HD
ENDROOT
BRANCH   3  10
ATOM     10  C   UNL     1       9.264   7.338  -5.390  0.00  0.00    +0.000 C 
ATOM     11  H   UNL     1       8.249   7.237  -4.992  0.00  0.00    +0.000 HD
ATOM     12  H   UNL     1       9.297   8.194  -6.071  0.00  0.00    +0.000 HD
ATOM     13  H   UNL     1       9.490   6.436  -5.969  0.00  0.00    +0.000 HD
ENDBRANCH   3  10
TORSDOF 1
ENDMDL
MODEL 2
REMARK VINA RESULT:    -3.598      8.467      9.044
REMARK INTER + INTRA:          -3.703
REMARK INTER:                  -3.703
REMARK INTRA:                   0.000
REMARK UNBOUND:                 0.000
REMARK  Name = 7976
REMARK  1 active torsions:
REMARK  status: ('A' for Active; 'I' for Inactive)
REMARK    1  A    between atoms: C_3  and  C_4
REMARK                            x       y       z     vdW  Elec       q    Type
REMARK                         _______ _______ _______ _____ _____    ______ ____
ROOT
ATOM      1  N   UNL     1       6.188   1.351  -2.767  0.00  0.00    +0.000 NA
ATOM      2  N   UNL     1       6.417  -1.256  -1.757  0.00  0.00    +0.000 NA
ATOM      3  C   UNL     1       5.721   0.281  -3.441  0.00  0.00    +0.000 A 
ATOM      4  C   UNL     1       5.833  -0.999  -2.944  0.00  0.00    +0.000 A 
ATOM      5  C   UNL     1       6.772   1.094  -1.579  0.00  0.00    +0.000 A 
ATOM      6  C   UNL     1       6.884  -0.186  -1.084  0.00  0.00    +0.000 A 
ATOM      7  H   UNL     1       5.460  -1.865  -3.479  0.00  0.00    +0.000 HD
ATOM      8  H   UNL     1       7.148   1.954  -1.038  0.00  0.00    +0.000 HD
ATOM      9  H   UNL     1       7.353  -0.390  -0.129  0.00  0.00    +0.000 HD
ENDROOT
BRANCH   3  10
ATOM     10  C   UNL     1       5.070   0.527  -4.757  0.00  0.00    +0.000 C 
ATOM     11  H   UNL     1       4.434  -0.321  -5.031  0.00  0.00    +0.000 HD
ATOM     12  H   UNL     1       4.457   1.433  -4.716  0.00  0.00    +0.000 HD
ATOM     13  H   UNL     1       5.816   0.658  -5.546  0.00  0.00    +0.000 HD
ENDBRANCH   3  10
TORSDOF 1
ENDMDL
MODEL 3
REMARK VINA RESULT:    -3.489      5.398      6.150
REMARK INTER + INTRA:          -3.591
REMARK INTER:                  -3.591
REMARK INTRA:                   0.000
REMARK UNBOUND:                 0.000
REMARK  Name = 7976
REMARK  1 active torsions:
REMARK  status: ('A' for Active; 'I' for Inactive)
REMARK    1  A    between atoms: C_3  and  C_4
REMARK                            x       y       z     vdW  Elec       q    Type
REMARK                         _______ _______ _______ _____ _____    ______ ____
ROOT
ATOM      1  N   UNL     1      14.592   4.246  -5.524  0.00  0.00    +0.000 NA
ATOM      2  N   UNL     1      14.915   3.251  -2.922  0.00  0.00    +0.000 NA
ATOM      3  C   UNL     1      15.739   4.409  -4.835  0.00  0.00    +0.000 A 
ATOM      4  C   UNL     1      15.897   3.920  -3.556  0.00  0.00    +0.000 A 
ATOM      5  C   UNL     1      13.609   3.577  -4.889  0.00  0.00    +0.000 A 
ATOM      6  C   UNL     1      13.768   3.088  -3.611  0.00  0.00    +0.000 A 
ATOM      7  H   UNL     1      16.816   4.047  -2.996  0.00  0.00    +0.000 HD
ATOM      8  H   UNL     1      12.687   3.445  -5.442  0.00  0.00    +0.000 HD
ATOM      9  H   UNL     1      12.978   2.550  -3.102  0.00  0.00    +0.000 HD
ENDROOT
BRANCH   3  10
ATOM     10  C   UNL     1      16.846   5.144  -5.505  0.00  0.00    +0.000 C 
ATOM     11  H   UNL     1      16.451   5.790  -6.297  0.00  0.00    +0.000 HD
ATOM     12  H   UNL     1      17.389   5.760  -4.781  0.00  0.00    +0.000 HD
ATOM     13  H   UNL     1      17.560   4.450  -5.961  0.00  0.00    +0.000 HD
ENDBRANCH   3  10
TORSDOF 1
ENDMDL
MODEL 4
REMARK VINA RESULT:    -3.486      9.060      9.555
REMARK INTER + INTRA:          -3.587
REMARK INTER:                  -3.587
REMARK INTRA:                   0.000
REMARK UNBOUND:                 0.000
REMARK  Name = 7976
REMARK  1 active torsions:
REMARK  status: ('A' for Active; 'I' for Inactive)
REMARK    1  A    between atoms: C_3  and  C_4
REMARK                            x       y       z     vdW  Elec       q    Type
REMARK                         _______ _______ _______ _____ _____    ______ ____
ROOT
ATOM      1  N   UNL     1       5.625  -1.201  -2.772  0.00  0.00    +0.000 NA
ATOM      2  N   UNL     1       8.333  -1.073  -3.492  0.00  0.00    +0.000 NA
ATOM      3  C   UNL     1       6.075  -0.340  -3.707  0.00  0.00    +0.000 A 
ATOM      4  C   UNL     1       7.405  -0.277  -4.061  0.00  0.00    +0.000 A 
ATOM      5  C   UNL     1       6.553  -1.996  -2.204  0.00  0.00    +0.000 A 
ATOM      6  C   UNL     1       7.882  -1.933  -2.558  0.00  0.00    +0.000 A 
ATOM      7  H   UNL     1       7.775   0.412  -4.811  0.00  0.00    +0.000 HD
ATOM      8  H   UNL     1       6.192  -2.688  -1.453  0.00  0.00    +0.000 HD
ATOM      9  H   UNL     1       8.627  -2.573  -2.100  0.00  0.00    +0.000 HD
ENDROOT
BRANCH   3  10
ATOM     10  C   UNL     1       5.078   0.554  -4.357  0.00  0.00    +0.000 C 
ATOM     11  H   UNL     1       4.234   0.737  -3.683  0.00  0.00    +0.000 HD
ATOM     12  H   UNL     1       5.539   1.513  -4.618  0.00  0.00    +0.000 HD
ATOM     13  H   UNL     1       4.686   0.106  -5.275  0.00  0.00    +0.000 HD
ENDBRANCH   3  10
TORSDOF 1
ENDMDL
MODEL 5
REMARK VINA RESULT:    -3.436     27.757     28.450
REMARK INTER + INTRA:          -3.536
REMARK INTER:                  -3.536
REMARK INTRA:                   0.000
REMARK UNBOUND:                 0.000
REMARK  Name = 7976
REMARK  1 active torsions:
REMARK  status: ('A' for Active; 'I' for Inactive)
REMARK    1  A    between atoms: C_3  and  C_4
REMARK                            x       y       z     vdW  Elec       q    Type
REMARK                         _______ _______ _______ _____ _____    ______ ____
ROOT
ATOM      1  N   UNL     1       5.245  -9.251 -24.536  0.00  0.00    +0.000 NA
ATOM      2  N   UNL     1       5.902 -11.906 -25.157  0.00  0.00    +0.000 NA
ATOM      3  C   UNL     1       4.390 -10.269 -24.313  0.00  0.00    +0.000 A 
ATOM      4  C   UNL     1       4.713 -11.573 -24.618  0.00  0.00    +0.000 A 
ATOM      5  C   UNL     1       6.435  -9.585 -25.075  0.00  0.00    +0.000 A 
ATOM      6  C   UNL     1       6.757 -10.889 -25.380  0.00  0.00    +0.000 A 
ATOM      7  H   UNL     1       4.031 -12.397 -24.441  0.00  0.00    +0.000 HD
ATOM      8  H   UNL     1       7.123  -8.767 -25.255  0.00  0.00    +0.000 HD
ATOM      9  H   UNL     1       7.713 -11.155 -25.813  0.00  0.00    +0.000 HD
ENDROOT
BRANCH   3  10
ATOM     10  C   UNL     1       3.066  -9.938 -23.718  0.00  0.00    +0.000 C 
ATOM     11  H   UNL     1       3.019  -8.874 -23.461  0.00  0.00    +0.000 HD
ATOM     12  H   UNL     1       2.262 -10.170 -24.424  0.00  0.00    +0.000 HD
ATOM     13  H   UNL     1       2.891 -10.514 -22.803  0.00  0.00    +0.000 HD
ENDBRANCH   3  10
TORSDOF 1
ENDMDL
MODEL 6
REMARK VINA RESULT:    -3.368      1.307      2.646
REMARK INTER + INTRA:          -3.466
REMARK INTER:                  -3.466
REMARK INTRA:                   0.000
REMARK UNBOUND:                 0.000
REMARK  Name = 7976
REMARK  1 active torsions:
REMARK  status: ('A' for Active; 'I' for Inactive)
REMARK    1  A    between atoms: C_3  and  C_4
REMARK                            x       y       z     vdW  Elec       q    Type
REMARK                         _______ _______ _______ _____ _____    ______ ____
ROOT
ATOM      1  N   UNL     1      11.180   7.701  -4.803  0.00  0.00    +0.000 NA
ATOM      2  N   UNL     1      10.792   7.875  -2.030  0.00  0.00    +0.000 NA
ATOM      3  C   UNL     1      12.213   7.733  -3.938  0.00  0.00    +0.000 A 
ATOM      4  C   UNL     1      12.022   7.819  -2.576  0.00  0.00    +0.000 A 
ATOM      5  C   UNL     1       9.949   7.757  -4.256  0.00  0.00    +0.000 A 
ATOM      6  C   UNL     1       9.758   7.843  -2.895  0.00  0.00    +0.000 A 
ATOM      7  H   UNL     1      12.848   7.845  -1.874  0.00  0.00    +0.000 HD
ATOM      8  H   UNL     1       9.117   7.731  -4.951  0.00  0.00    +0.000 HD
ATOM      9  H   UNL     1       8.768   7.888  -2.457  0.00  0.00    +0.000 HD
ENDROOT
BRANCH   3  10
ATOM     10  C   UNL     1      13.588   7.672  -4.506  0.00  0.00    +0.000 C 
ATOM     11  H   UNL     1      13.565   7.248  -5.515  0.00  0.00    +0.000 HD
ATOM     12  H   UNL     1      14.027   8.674  -4.550  0.00  0.00    +0.000 HD
ATOM     13  H   UNL     1      14.240   7.044  -3.890  0.00  0.00    +0.000 HD
ENDBRANCH   3  10
TORSDOF 1
ENDMDL
MODEL 7
REMARK VINA RESULT:    -3.293     27.713     28.767
REMARK INTER + INTRA:          -3.389
REMARK INTER:                  -3.389
REMARK INTRA:                   0.000
REMARK UNBOUND:                 0.000
REMARK  Name = 7976
REMARK  1 active torsions:
REMARK  status: ('A' for Active; 'I' for Inactive)
REMARK    1  A    between atoms: C_3  and  C_4
REMARK                            x       y       z     vdW  Elec       q    Type
REMARK                         _______ _______ _______ _____ _____    ______ ____
ROOT
ATOM      1  N   UNL     1       4.794 -11.635 -24.818  0.00  0.00    +0.000 NA
ATOM      2  N   UNL     1       6.158  -9.193 -25.026  0.00  0.00    +0.000 NA
ATOM      3  C   UNL     1       6.096 -11.572 -25.160  0.00  0.00    +0.000 A 
ATOM      4  C   UNL     1       6.766 -10.372 -25.263  0.00  0.00    +0.000 A 
ATOM      5  C   UNL     1       4.186 -10.455 -24.581  0.00  0.00    +0.000 A 
ATOM      6  C   UNL     1       4.856  -9.256 -24.683  0.00  0.00    +0.000 A 
ATOM      7  H   UNL     1       7.813 -10.312 -25.538  0.00  0.00    +0.000 HD
ATOM      8  H   UNL     1       3.140 -10.505 -24.305  0.00  0.00    +0.000 HD
ATOM      9  H   UNL     1       4.366  -8.309 -24.492  0.00  0.00    +0.000 HD
ENDROOT
BRANCH   3  10
ATOM     10  C   UNL     1       6.800 -12.855 -25.430  0.00  0.00    +0.000 C 
ATOM     11  H   UNL     1       7.082 -12.921 -26.486  0.00  0.00    +0.000 HD
ATOM     12  H   UNL     1       7.703 -12.931 -24.814  0.00  0.00    +0.000 HD
ATOM     13  H   UNL     1       6.159 -13.712 -25.197  0.00  0.00    +0.000 HD
ENDBRANCH   3  10
TORSDOF 1
ENDMDL
MODEL 8
REMARK VINA RESULT:    -3.158     32.491     33.577
REMARK INTER + INTRA:          -3.251
REMARK INTER:                  -3.251
REMARK INTRA:                   0.000
REMARK UNBOUND:                 0.000
REMARK  Name = 7976
REMARK  1 active torsions:
REMARK  status: ('A' for Active; 'I' for Inactive)
REMARK    1  A    between atoms: C_3  and  C_4
REMARK                            x       y       z     vdW  Elec       q    Type
REMARK                         _______ _______ _______ _____ _____    ______ ____
ROOT
ATOM      1  N   UNL     1     -15.834 -10.518   2.334  0.00  0.00    +0.000 NA
ATOM      2  N   UNL     1     -17.983 -10.162   4.101  0.00  0.00    +0.000 NA
ATOM      3  C   UNL     1     -16.608  -9.415   2.304  0.00  0.00    +0.000 A 
ATOM      4  C   UNL     1     -17.664  -9.240   3.173  0.00  0.00    +0.000 A 
ATOM      5  C   UNL     1     -16.155 -11.440   3.264  0.00  0.00    +0.000 A 
ATOM      6  C   UNL     1     -17.209 -11.266   4.131  0.00  0.00    +0.000 A 
ATOM      7  H   UNL     1     -18.291  -8.356   3.155  0.00  0.00    +0.000 HD
ATOM      8  H   UNL     1     -15.533 -12.327   3.288  0.00  0.00    +0.000 HD
ATOM      9  H   UNL     1     -17.465 -12.008   4.878  0.00  0.00    +0.000 HD
ENDROOT
BRANCH   3  10
ATOM     10  C   UNL     1     -16.285  -8.374   1.290  0.00  0.00    +0.000 C 
ATOM     11  H   UNL     1     -15.320  -7.907   1.517  0.00  0.00    +0.000 HD
ATOM     12  H   UNL     1     -16.240  -8.817   0.290  0.00  0.00    +0.000 HD
ATOM     13  H   UNL     1     -17.045  -7.587   1.278  0.00  0.00    +0.000 HD
ENDBRANCH   3  10
TORSDOF 1
ENDMDL
MODEL 9
REMARK VINA RESULT:    -2.976     28.179     29.410
REMARK INTER + INTRA:          -3.063
REMARK INTER:                  -3.063
REMARK INTRA:                   0.000
REMARK UNBOUND:                 0.000
REMARK  Name = 7976
REMARK  1 active torsions:
REMARK  status: ('A' for Active; 'I' for Inactive)
REMARK    1  A    between atoms: C_3  and  C_4
REMARK                            x       y       z     vdW  Elec       q    Type
REMARK                         _______ _______ _______ _____ _____    ______ ____
ROOT
ATOM      1  N   UNL     1       7.255 -11.365 -25.539  0.00  0.00    +0.000 NA
ATOM      2  N   UNL     1       4.771 -12.542 -24.982  0.00  0.00    +0.000 NA
ATOM      3  C   UNL     1       6.255 -10.677 -24.954  0.00  0.00    +0.000 A 
ATOM      4  C   UNL     1       5.034 -11.256 -24.680  0.00  0.00    +0.000 A 
ATOM      5  C   UNL     1       6.991 -12.652 -25.841  0.00  0.00    +0.000 A 
ATOM      6  C   UNL     1       5.771 -13.230 -25.567  0.00  0.00    +0.000 A 
ATOM      7  H   UNL     1       4.225 -10.709 -24.210  0.00  0.00    +0.000 HD
ATOM      8  H   UNL     1       7.795 -13.206 -26.311  0.00  0.00    +0.000 HD
ATOM      9  H   UNL     1       5.561 -14.264 -25.810  0.00  0.00    +0.000 HD
ENDROOT
BRANCH   3  10
ATOM     10  C   UNL     1       6.510  -9.252 -24.606  0.00  0.00    +0.000 C 
ATOM     11  H   UNL     1       7.487  -9.147 -24.123  0.00  0.00    +0.000 HD
ATOM     12  H   UNL     1       6.488  -8.630 -25.507  0.00  0.00    +0.000 HD
ATOM     13  H   UNL     1       5.750  -8.874 -23.915  0.00  0.00    +0.000 HD
ENDBRANCH   3  10
TORSDOF 1
ENDMDL
MODEL 10
REMARK VINA RESULT:    -2.852     23.191     24.292
REMARK INTER + INTRA:          -2.935
REMARK INTER:                  -2.935
REMARK INTRA:                   0.000
REMARK UNBOUND:                 0.000
REMARK  Name = 7976
REMARK  1 active torsions:
REMARK  status: ('A' for Active; 'I' for Inactive)
REMARK    1  A    between atoms: C_3  and  C_4
REMARK                            x       y       z     vdW  Elec       q    Type
REMARK                         _______ _______ _______ _____ _____    ______ ____
ROOT
ATOM      1  N   UNL     1     -12.008   8.697   3.567  0.00  0.00    +0.000 NA
ATOM      2  N   UNL     1     -13.635   6.921   2.129  0.00  0.00    +0.000 NA
ATOM      3  C   UNL     1     -11.712   8.318   2.308  0.00  0.00    +0.000 A 
ATOM      4  C   UNL     1     -12.511   7.445   1.602  0.00  0.00    +0.000 A 
ATOM      5  C   UNL     1     -13.133   8.172   4.094  0.00  0.00    +0.000 A 
ATOM      6  C   UNL     1     -13.931   7.300   3.388  0.00  0.00    +0.000 A 
ATOM      7  H   UNL     1     -12.280   7.135   0.589  0.00  0.00    +0.000 HD
ATOM      8  H   UNL     1     -13.371   8.477   5.106  0.00  0.00    +0.000 HD
ATOM      9  H   UNL     1     -14.834   6.880   3.813  0.00  0.00    +0.000 HD
ENDROOT
BRANCH   3  10
ATOM     10  C   UNL     1     -10.477   8.877   1.693  0.00  0.00    +0.000 C 
ATOM     11  H   UNL     1      -9.697   9.004   2.451  0.00  0.00    +0.000 HD
ATOM     12  H   UNL     1     -10.106   8.210   0.908  0.00  0.00    +0.000 HD
ATOM     13  H   UNL     1     -10.671   9.855   1.241  0.00  0.00    +0.000 HD
ENDBRANCH   3  10
TORSDOF 1
ENDMDL
