MODEL 1
REMARK VINA RESULT:    -3.773      0.000      0.000
REMARK INTER + INTRA:          -4.968
REMARK INTER:                  -4.749
REMARK INTRA:                  -0.219
REMARK UNBOUND:                -0.203
REMARK  Name = 520098
REMARK  6 active torsions:
REMARK  status: ('A' for Active; 'I' for Inactive)
REMARK    1  A    between atoms: O_1  and  C_9
REMARK    2  A    between atoms: O_1  and  C_12
REMARK    3  A    between atoms: C_4  and  C_5
REMARK    4  A    between atoms: C_4  and  C_6
REMARK    5  A    between atoms: C_4  and  C_7
REMARK    6  A    between atoms: C_5  and  C_8
REMARK                            x       y       z     vdW  Elec       q    Type
REMARK                         _______ _______ _______ _____ _____    ______ ____
ROOT
ATOM      1  C   UNL     1       7.334 -11.279 -27.439  0.00  0.00    +0.000 C 
ATOM      2  H   UNL     1       6.885 -12.107 -28.001  0.00  0.00    +0.000 HD
ENDROOT
BRANCH   1   5
ATOM      3  N   UNL     1       6.675  -9.649 -25.779  0.00  0.00    +0.000 NA
ATOM      4  N   UNL     1       4.472 -11.211 -25.020  0.00  0.00    +0.000 NA
ATOM      5  C   UNL     1       6.385 -10.824 -26.344  0.00  0.00    +0.000 A 
ATOM      6  C   UNL     1       5.322 -11.600 -25.991  0.00  0.00    +0.000 A 
ATOM      7  C   UNL     1       5.825  -9.261 -24.808  0.00  0.00    +0.000 A 
ATOM      8  C   UNL     1       4.743 -10.028 -24.434  0.00  0.00    +0.000 A 
ATOM      9  H   UNL     1       6.043  -8.310 -24.337  0.00  0.00    +0.000 HD
ATOM     10  H   UNL     1       4.061  -9.715 -23.654  0.00  0.00    +0.000 HD
BRANCH   6  11
ATOM     11  O   UNL     1       5.067 -12.798 -26.598  0.00  0.00    +0.000 OA
BRANCH  11  12
ATOM     12  C   UNL     1       4.808 -13.909 -25.746  0.00  0.00    +0.000 C 
ATOM     13  H   UNL     1       5.704 -14.535 -25.728  0.00  0.00    +0.000 HD
ATOM     14  H   UNL     1       3.980 -14.514 -26.132  0.00  0.00    +0.000 HD
ATOM     15  H   UNL     1       4.605 -13.579 -24.722  0.00  0.00    +0.000 HD
ENDBRANCH  11  12
ENDBRANCH   6  11
ENDBRANCH   1   5
BRANCH   1  16
ATOM     16  C   UNL     1       7.560 -10.154 -28.455  0.00  0.00    +0.000 C 
ATOM     17  H   UNL     1       8.574 -10.180 -28.870  0.00  0.00    +0.000 HD
ATOM     18  H   UNL     1       6.855 -10.236 -29.290  0.00  0.00    +0.000 HD
ATOM     19  H   UNL     1       7.415  -9.171 -27.992  0.00  0.00    +0.000 HD
ENDBRANCH   1  16
BRANCH   1  20
ATOM     20  C   UNL     1       8.685 -11.791 -26.899  0.00  0.00    +0.000 C 
ATOM     21  H   UNL     1       8.864 -12.823 -27.225  0.00  0.00    +0.000 HD
ATOM     22  H   UNL     1       8.652 -11.809 -25.802  0.00  0.00    +0.000 HD
BRANCH  20  23
ATOM     23  C   UNL     1       9.865 -10.926 -27.323  0.00  0.00    +0.000 C 
ATOM     24  H   UNL     1       9.530  -9.902 -27.512  0.00  0.00    +0.000 HD
ATOM     25  H   UNL     1      10.635 -10.887 -26.546  0.00  0.00    +0.000 HD
ATOM     26  H   UNL     1      10.321 -11.308 -28.242  0.00  0.00    +0.000 HD
ENDBRANCH  20  23
ENDBRANCH   1  20
TORSDOF 6
ENDMDL
MODEL 2
REMARK VINA RESULT:    -3.539     33.364     35.561
REMARK INTER + INTRA:          -4.673
REMARK INTER:                  -4.452
REMARK INTRA:                  -0.221
REMARK UNBOUND:                -0.203
REMARK  Name = 520098
REMARK  6 active torsions:
REMARK  status: ('A' for Active; 'I' for Inactive)
REMARK    1  A    between atoms: O_1  and  C_9
REMARK    2  A    between atoms: O_1  and  C_12
REMARK    3  A    between atoms: C_4  and  C_5
REMARK    4  A    between atoms: C_4  and  C_6
REMARK    5  A    between atoms: C_4  and  C_7
REMARK    6  A    between atoms: C_5  and  C_8
REMARK                            x       y       z     vdW  Elec       q    Type
REMARK                         _______ _______ _______ _____ _____    ______ ____
ROOT
ATOM      1  C   UNL     1     -17.611 -10.349  -1.259  0.00  0.00    +0.000 C 
ATOM      2  H   UNL     1     -18.441 -11.067  -1.273  0.00  0.00    +0.000 HD
ENDROOT
BRANCH   1   5
ATOM      3  N   UNL     1     -16.493  -8.876   0.298  0.00  0.00    +0.000 NA
ATOM      4  N   UNL     1     -17.704 -10.154   2.482  0.00  0.00    +0.000 NA
ATOM      5  C   UNL     1     -17.339  -9.901   0.166  0.00  0.00    +0.000 A 
ATOM      6  C   UNL     1     -17.938 -10.537   1.211  0.00  0.00    +0.000 A 
ATOM      7  C   UNL     1     -16.261  -8.492   1.569  0.00  0.00    +0.000 A 
ATOM      8  C   UNL     1     -16.855  -9.119   2.642  0.00  0.00    +0.000 A 
ATOM      9  H   UNL     1     -15.577  -7.661   1.698  0.00  0.00    +0.000 HD
ATOM     10  H   UNL     1     -16.667  -8.810   3.662  0.00  0.00    +0.000 HD
BRANCH   6  11
ATOM     11  O   UNL     1     -18.796 -11.585   1.025  0.00  0.00    +0.000 OA
BRANCH  11  12
ATOM     12  C   UNL     1     -18.351 -12.867   1.461  0.00  0.00    +0.000 C 
ATOM     13  H   UNL     1     -17.345 -12.751   1.872  0.00  0.00    +0.000 HD
ATOM     14  H   UNL     1     -18.295 -13.568   0.621  0.00  0.00    +0.000 HD
ATOM     15  H   UNL     1     -18.997 -13.257   2.253  0.00  0.00    +0.000 HD
ENDBRANCH  11  12
ENDBRANCH   6  11
ENDBRANCH   1   5
BRANCH   1  16
ATOM     16  C   UNL     1     -18.068  -9.163  -2.117  0.00  0.00    +0.000 C 
ATOM     17  H   UNL     1     -17.353  -8.943  -2.918  0.00  0.00    +0.000 HD
ATOM     18  H   UNL     1     -19.038  -9.369  -2.583  0.00  0.00    +0.000 HD
ATOM     19  H   UNL     1     -18.175  -8.257  -1.509  0.00  0.00    +0.000 HD
ENDBRANCH   1  16
BRANCH   1  20
ATOM     20  C   UNL     1     -16.406 -11.052  -1.917  0.00  0.00    +0.000 C 
ATOM     21  H   UNL     1     -16.603 -12.125  -2.034  0.00  0.00    +0.000 HD
ATOM     22  H   UNL     1     -15.533 -10.961  -1.260  0.00  0.00    +0.000 HD
BRANCH  20  23
ATOM     23  C   UNL     1     -16.040 -10.466  -3.275  0.00  0.00    +0.000 C 
ATOM     24  H   UNL     1     -16.307  -9.405  -3.310  0.00  0.00    +0.000 HD
ATOM     25  H   UNL     1     -14.966 -10.545  -3.471  0.00  0.00    +0.000 HD
ATOM     26  H   UNL     1     -16.577 -10.976  -4.081  0.00  0.00    +0.000 HD
ENDBRANCH  20  23
ENDBRANCH   1  20
TORSDOF 6
ENDMDL
MODEL 3
REMARK VINA RESULT:    -3.527     14.476     16.658
REMARK INTER + INTRA:          -4.658
REMARK INTER:                  -4.494
REMARK INTRA:                  -0.164
REMARK UNBOUND:                -0.203
REMARK  Name = 520098
REMARK  6 active torsions:
REMARK  status: ('A' for Active; 'I' for Inactive)
REMARK    1  A    between atoms: O_1  and  C_9
REMARK    2  A    between atoms: O_1  and  C_12
REMARK    3  A    between atoms: C_4  and  C_5
REMARK    4  A    between atoms: C_4  and  C_6
REMARK    5  A    between atoms: C_4  and  C_7
REMARK    6  A    between atoms: C_5  and  C_8
REMARK                            x       y       z     vdW  Elec       q    Type
REMARK                         _______ _______ _______ _____ _____    ______ ____
ROOT
ATOM      1  C   UNL     1      -1.575   2.873 -19.124  0.00  0.00    +0.000 C 
ATOM      2  H   UNL     1      -0.589   3.284 -18.873  0.00  0.00    +0.000 HD
ENDROOT
BRANCH   1   5
ATOM      3  N   UNL     1      -2.389   0.743 -19.927  0.00  0.00    +0.000 NA
ATOM      4  N   UNL     1      -0.172   0.456 -21.621  0.00  0.00    +0.000 NA
ATOM      5  C   UNL     1      -1.415   1.653 -20.013  0.00  0.00    +0.000 A 
ATOM      6  C   UNL     1      -0.329   1.535 -20.827  0.00  0.00    +0.000 A 
ATOM      7  C   UNL     1      -2.232  -0.334 -20.721  0.00  0.00    +0.000 A 
ATOM      8  C   UNL     1      -1.143  -0.476 -21.553  0.00  0.00    +0.000 A 
ATOM      9  H   UNL     1      -3.011  -1.084 -20.666  0.00  0.00    +0.000 HD
ATOM     10  H   UNL     1      -1.017  -1.342 -22.190  0.00  0.00    +0.000 HD
BRANCH   6  11
ATOM     11  O   UNL     1       0.644   2.493 -20.880  0.00  0.00    +0.000 OA
BRANCH  11  12
ATOM     12  C   UNL     1       1.788   2.206 -21.679  0.00  0.00    +0.000 C 
ATOM     13  H   UNL     1       2.364   1.428 -21.173  0.00  0.00    +0.000 HD
ATOM     14  H   UNL     1       2.427   3.089 -21.779  0.00  0.00    +0.000 HD
ATOM     15  H   UNL     1       1.493   1.824 -22.661  0.00  0.00    +0.000 HD
ENDBRANCH  11  12
ENDBRANCH   6  11
ENDBRANCH   1   5
BRANCH   1  16
ATOM     16  C   UNL     1      -2.317   3.988 -19.870  0.00  0.00    +0.000 C 
ATOM     17  H   UNL     1      -3.328   3.679 -20.160  0.00  0.00    +0.000 HD
ATOM     18  H   UNL     1      -2.408   4.883 -19.244  0.00  0.00    +0.000 HD
ATOM     19  H   UNL     1      -1.781   4.272 -20.783  0.00  0.00    +0.000 HD
ENDBRANCH   1  16
BRANCH   1  20
ATOM     20  C   UNL     1      -2.279   2.564 -17.787  0.00  0.00    +0.000 C 
ATOM     21  H   UNL     1      -2.225   1.491 -17.563  0.00  0.00    +0.000 HD
ATOM     22  H   UNL     1      -3.343   2.814 -17.874  0.00  0.00    +0.000 HD
BRANCH  20  23
ATOM     23  C   UNL     1      -1.702   3.344 -16.613  0.00  0.00    +0.000 C 
ATOM     24  H   UNL     1      -0.801   2.848 -16.240  0.00  0.00    +0.000 HD
ATOM     25  H   UNL     1      -1.426   4.362 -16.903  0.00  0.00    +0.000 HD
ATOM     26  H   UNL     1      -2.422   3.403 -15.789  0.00  0.00    +0.000 HD
ENDBRANCH  20  23
ENDBRANCH   1  20
TORSDOF 6
ENDMDL
MODEL 4
REMARK VINA RESULT:    -3.460     15.351     16.784
REMARK INTER + INTRA:          -4.573
REMARK INTER:                  -4.390
REMARK INTRA:                  -0.184
REMARK UNBOUND:                -0.203
REMARK  Name = 520098
REMARK  6 active torsions:
REMARK  status: ('A' for Active; 'I' for Inactive)
REMARK    1  A    between atoms: O_1  and  C_9
REMARK    2  A    between atoms: O_1  and  C_12
REMARK    3  A    between atoms: C_4  and  C_5
REMARK    4  A    between atoms: C_4  and  C_6
REMARK    5  A    between atoms: C_4  and  C_7
REMARK    6  A    between atoms: C_5  and  C_8
REMARK                            x       y       z     vdW  Elec       q    Type
REMARK                         _______ _______ _______ _____ _____    ______ ____
ROOT
ATOM      1  C   UNL     1      -0.982   2.152 -20.908  0.00  0.00    +0.000 C 
ATOM      2  H   UNL     1      -1.641   1.855 -21.733  0.00  0.00    +0.000 HD
ENDROOT
BRANCH   1   5
ATOM      3  N   UNL     1      -1.362   3.134 -18.732  0.00  0.00    +0.000 NA
ATOM      4  N   UNL     1      -3.531   1.418 -18.261  0.00  0.00    +0.000 NA
ATOM      5  C   UNL     1      -1.772   2.218 -19.613  0.00  0.00    +0.000 A 
ATOM      6  C   UNL     1      -2.821   1.374 -19.406  0.00  0.00    +0.000 A 
ATOM      7  C   UNL     1      -2.073   3.179 -17.587  0.00  0.00    +0.000 A 
ATOM      8  C   UNL     1      -3.138   2.336 -17.355  0.00  0.00    +0.000 A 
ATOM      9  H   UNL     1      -1.757   3.916 -16.859  0.00  0.00    +0.000 HD
ATOM     10  H   UNL     1      -3.707   2.372 -16.436  0.00  0.00    +0.000 HD
BRANCH   6  11
ATOM     11  O   UNL     1      -3.202   0.450 -20.339  0.00  0.00    +0.000 OA
BRANCH  11  12
ATOM     12  C   UNL     1      -4.570   0.461 -20.734  0.00  0.00    +0.000 C 
ATOM     13  H   UNL     1      -4.667   1.137 -21.588  0.00  0.00    +0.000 HD
ATOM     14  H   UNL     1      -5.208   0.840 -19.928  0.00  0.00    +0.000 HD
ATOM     15  H   UNL     1      -4.894  -0.534 -21.053  0.00  0.00    +0.000 HD
ENDBRANCH  11  12
ENDBRANCH   6  11
ENDBRANCH   1   5
BRANCH   1  16
ATOM     16  C   UNL     1      -0.443   3.539 -21.280  0.00  0.00    +0.000 C 
ATOM     17  H   UNL     1       0.338   3.870 -20.586  0.00  0.00    +0.000 HD
ATOM     18  H   UNL     1      -0.014   3.533 -22.288  0.00  0.00    +0.000 HD
ATOM     19  H   UNL     1      -1.243   4.288 -21.262  0.00  0.00    +0.000 HD
ENDBRANCH   1  16
BRANCH   1  20
ATOM     20  C   UNL     1       0.168   1.126 -20.867  0.00  0.00    +0.000 C 
ATOM     21  H   UNL     1      -0.072   0.253 -21.488  0.00  0.00    +0.000 HD
ATOM     22  H   UNL     1       0.288   0.759 -19.840  0.00  0.00    +0.000 HD
BRANCH  20  23
ATOM     23  C   UNL     1       1.502   1.703 -21.323  0.00  0.00    +0.000 C 
ATOM     24  H   UNL     1       1.356   2.336 -22.204  0.00  0.00    +0.000 HD
ATOM     25  H   UNL     1       1.961   2.320 -20.543  0.00  0.00    +0.000 HD
ATOM     26  H   UNL     1       2.204   0.907 -21.591  0.00  0.00    +0.000 HD
ENDBRANCH  20  23
ENDBRANCH   1  20
TORSDOF 6
ENDMDL
MODEL 5
REMARK VINA RESULT:    -3.418      1.713      2.907
REMARK INTER + INTRA:          -4.520
REMARK INTER:                  -4.237
REMARK INTRA:                  -0.283
REMARK UNBOUND:                -0.203
REMARK  Name = 520098
REMARK  6 active torsions:
REMARK  status: ('A' for Active; 'I' for Inactive)
REMARK    1  A    between atoms: O_1  and  C_9
REMARK    2  A    between atoms: O_1  and  C_12
REMARK    3  A    between atoms: C_4  and  C_5
REMARK    4  A    between atoms: C_4  and  C_6
REMARK    5  A    between atoms: C_4  and  C_7
REMARK    6  A    between atoms: C_5  and  C_8
REMARK                            x       y       z     vdW  Elec       q    Type
REMARK                         _______ _______ _______ _____ _____    ______ ____
ROOT
ATOM      1  C   UNL     1       6.893 -10.835 -26.289  0.00  0.00    +0.000 C 
ATOM      2  H   UNL     1       6.560 -10.269 -27.168  0.00  0.00    +0.000 HD
ENDROOT
BRANCH   1   5
ATOM      3  N   UNL     1       5.821 -12.471 -24.868  0.00  0.00    +0.000 NA
ATOM      4  N   UNL     1       4.815 -13.847 -27.096  0.00  0.00    +0.000 NA
ATOM      5  C   UNL     1       6.044 -12.084 -26.126  0.00  0.00    +0.000 A 
ATOM      6  C   UNL     1       5.568 -12.736 -27.223  0.00  0.00    +0.000 A 
ATOM      7  C   UNL     1       5.067 -13.581 -24.741  0.00  0.00    +0.000 A 
ATOM      8  C   UNL     1       4.574 -14.258 -25.835  0.00  0.00    +0.000 A 
ATOM      9  H   UNL     1       4.874 -13.912 -23.728  0.00  0.00    +0.000 HD
ATOM     10  H   UNL     1       3.969 -15.150 -25.732  0.00  0.00    +0.000 HD
BRANCH   6  11
ATOM     11  O   UNL     1       5.826 -12.302 -28.494  0.00  0.00    +0.000 OA
BRANCH  11  12
ATOM     12  C   UNL     1       6.613 -13.155 -29.318  0.00  0.00    +0.000 C 
ATOM     13  H   UNL     1       7.091 -12.536 -30.082  0.00  0.00    +0.000 HD
ATOM     14  H   UNL     1       5.986 -13.896 -29.826  0.00  0.00    +0.000 HD
ATOM     15  H   UNL     1       7.401 -13.644 -28.737  0.00  0.00    +0.000 HD
ENDBRANCH  11  12
ENDBRANCH   6  11
ENDBRANCH   1   5
BRANCH   1  16
ATOM     16  C   UNL     1       6.705  -9.898 -25.089  0.00  0.00    +0.000 C 
ATOM     17  H   UNL     1       6.682  -8.846 -25.397  0.00  0.00    +0.000 HD
ATOM     18  H   UNL     1       5.765 -10.114 -24.570  0.00  0.00    +0.000 HD
ATOM     19  H   UNL     1       7.521 -10.016 -24.367  0.00  0.00    +0.000 HD
ENDBRANCH   1  16
BRANCH   1  20
ATOM     20  C   UNL     1       8.390 -11.140 -26.499  0.00  0.00    +0.000 C 
ATOM     21  H   UNL     1       8.569 -12.223 -26.479  0.00  0.00    +0.000 HD
ATOM     22  H   UNL     1       8.966 -10.710 -25.671  0.00  0.00    +0.000 HD
BRANCH  20  23
ATOM     23  C   UNL     1       8.938 -10.573 -27.803  0.00  0.00    +0.000 C 
ATOM     24  H   UNL     1       8.353  -9.700 -28.108  0.00  0.00    +0.000 HD
ATOM     25  H   UNL     1       9.980 -10.254 -27.696  0.00  0.00    +0.000 HD
ATOM     26  H   UNL     1       8.884 -11.314 -28.607  0.00  0.00    +0.000 HD
ENDBRANCH  20  23
ENDBRANCH   1  20
TORSDOF 6
ENDMDL
MODEL 6
REMARK VINA RESULT:    -3.393     16.036     18.132
REMARK INTER + INTRA:          -4.489
REMARK INTER:                  -4.308
REMARK INTRA:                  -0.180
REMARK UNBOUND:                -0.203
REMARK  Name = 520098
REMARK  6 active torsions:
REMARK  status: ('A' for Active; 'I' for Inactive)
REMARK    1  A    between atoms: O_1  and  C_9
REMARK    2  A    between atoms: O_1  and  C_12
REMARK    3  A    between atoms: C_4  and  C_5
REMARK    4  A    between atoms: C_4  and  C_6
REMARK    5  A    between atoms: C_4  and  C_7
REMARK    6  A    between atoms: C_5  and  C_8
REMARK                            x       y       z     vdW  Elec       q    Type
REMARK                         _______ _______ _______ _____ _____    ______ ____
ROOT
ATOM      1  C   UNL     1      -1.511   3.563 -17.480  0.00  0.00    +0.000 C 
ATOM      2  H   UNL     1      -0.442   3.537 -17.723  0.00  0.00    +0.000 HD
ENDROOT
BRANCH   1   5
ATOM      3  N   UNL     1      -3.457   2.199 -17.927  0.00  0.00    +0.000 NA
ATOM      4  N   UNL     1      -2.394   1.368 -20.386  0.00  0.00    +0.000 NA
ATOM      5  C   UNL     1      -2.270   2.607 -18.384  0.00  0.00    +0.000 A 
ATOM      6  C   UNL     1      -1.734   2.217 -19.573  0.00  0.00    +0.000 A 
ATOM      7  C   UNL     1      -4.117   1.350 -18.741  0.00  0.00    +0.000 A 
ATOM      8  C   UNL     1      -3.595   0.942 -19.948  0.00  0.00    +0.000 A 
ATOM      9  H   UNL     1      -5.082   1.007 -18.388  0.00  0.00    +0.000 HD
ATOM     10  H   UNL     1      -4.126   0.260 -20.600  0.00  0.00    +0.000 HD
BRANCH   6  11
ATOM     11  O   UNL     1      -0.512   2.662 -19.998  0.00  0.00    +0.000 OA
BRANCH  11  12
ATOM     12  C   UNL     1       0.182   1.841 -20.933  0.00  0.00    +0.000 C 
ATOM     13  H   UNL     1       1.118   2.343 -21.190  0.00  0.00    +0.000 HD
ATOM     14  H   UNL     1      -0.399   1.717 -21.852  0.00  0.00    +0.000 HD
ATOM     15  H   UNL     1       0.429   0.870 -20.493  0.00  0.00    +0.000 HD
ENDBRANCH  11  12
ENDBRANCH   6  11
ENDBRANCH   1   5
BRANCH   1  16
ATOM     16  C   UNL     1      -1.964   5.007 -17.724  0.00  0.00    +0.000 C 
ATOM     17  H   UNL     1      -1.218   5.730 -17.374  0.00  0.00    +0.000 HD
ATOM     18  H   UNL     1      -2.128   5.188 -18.792  0.00  0.00    +0.000 HD
ATOM     19  H   UNL     1      -2.903   5.218 -17.201  0.00  0.00    +0.000 HD
ENDBRANCH   1  16
BRANCH   1  20
ATOM     20  C   UNL     1      -1.633   3.210 -15.983  0.00  0.00    +0.000 C 
ATOM     21  H   UNL     1      -1.810   2.134 -15.854  0.00  0.00    +0.000 HD
ATOM     22  H   UNL     1      -2.504   3.725 -15.561  0.00  0.00    +0.000 HD
BRANCH  20  23
ATOM     23  C   UNL     1      -0.407   3.610 -15.173  0.00  0.00    +0.000 C 
ATOM     24  H   UNL     1      -0.064   4.604 -15.476  0.00  0.00    +0.000 HD
ATOM     25  H   UNL     1      -0.627   3.646 -14.101  0.00  0.00    +0.000 HD
ATOM     26  H   UNL     1       0.416   2.905 -15.332  0.00  0.00    +0.000 HD
ENDBRANCH  20  23
ENDBRANCH   1  20
TORSDOF 6
ENDMDL
MODEL 7
REMARK VINA RESULT:    -3.350     38.189     39.520
REMARK INTER + INTRA:          -4.435
REMARK INTER:                  -4.263
REMARK INTRA:                  -0.171
REMARK UNBOUND:                -0.203
REMARK  Name = 520098
REMARK  6 active torsions:
REMARK  status: ('A' for Active; 'I' for Inactive)
REMARK    1  A    between atoms: O_1  and  C_9
REMARK    2  A    between atoms: O_1  and  C_12
REMARK    3  A    between atoms: C_4  and  C_5
REMARK    4  A    between atoms: C_4  and  C_6
REMARK    5  A    between atoms: C_4  and  C_7
REMARK    6  A    between atoms: C_5  and  C_8
REMARK                            x       y       z     vdW  Elec       q    Type
REMARK                         _______ _______ _______ _____ _____    ______ ____
ROOT
ATOM      1  C   UNL     1     -11.565  10.105   1.610  0.00  0.00    +0.000 C 
ATOM      2  H   UNL     1     -11.923  10.114   0.573  0.00  0.00    +0.000 HD
ENDROOT
BRANCH   1   5
ATOM      3  N   UNL     1     -12.562   9.441   3.709  0.00  0.00    +0.000 NA
ATOM      4  N   UNL     1     -13.580   7.092   2.562  0.00  0.00    +0.000 NA
ATOM      5  C   UNL     1     -12.377   9.116   2.428  0.00  0.00    +0.000 A 
ATOM      6  C   UNL     1     -12.860   7.982   1.849  0.00  0.00    +0.000 A 
ATOM      7  C   UNL     1     -13.283   8.552   4.422  0.00  0.00    +0.000 A 
ATOM      8  C   UNL     1     -13.783   7.398   3.859  0.00  0.00    +0.000 A 
ATOM      9  H   UNL     1     -13.446   8.797   5.464  0.00  0.00    +0.000 HD
ATOM     10  H   UNL     1     -14.361   6.685   4.432  0.00  0.00    +0.000 HD
BRANCH   6  11
ATOM     11  O   UNL     1     -12.642   7.691   0.531  0.00  0.00    +0.000 OA
BRANCH  11  12
ATOM     12  C   UNL     1     -13.783   7.670  -0.322  0.00  0.00    +0.000 C 
ATOM     13  H   UNL     1     -14.228   6.674  -0.262  0.00  0.00    +0.000 HD
ATOM     14  H   UNL     1     -13.496   7.851  -1.363  0.00  0.00    +0.000 HD
ATOM     15  H   UNL     1     -14.532   8.396   0.009  0.00  0.00    +0.000 HD
ENDBRANCH  11  12
ENDBRANCH   6  11
ENDBRANCH   1   5
BRANCH   1  16
ATOM     16  C   UNL     1     -11.768  11.531   2.136  0.00  0.00    +0.000 C 
ATOM     17  H   UNL     1     -11.815  12.261   1.320  0.00  0.00    +0.000 HD
ATOM     18  H   UNL     1     -12.700  11.607   2.707  0.00  0.00    +0.000 HD
ATOM     19  H   UNL     1     -10.946  11.825   2.799  0.00  0.00    +0.000 HD
ENDBRANCH   1  16
BRANCH   1  20
ATOM     20  C   UNL     1     -10.063   9.762   1.558  0.00  0.00    +0.000 C 
ATOM     21  H   UNL     1      -9.839   9.141   0.681  0.00  0.00    +0.000 HD
ATOM     22  H   UNL     1      -9.797   9.168   2.441  0.00  0.00    +0.000 HD
BRANCH  20  23
ATOM     23  C   UNL     1      -9.169  10.996   1.530  0.00  0.00    +0.000 C 
ATOM     24  H   UNL     1      -9.687  11.845   1.985  0.00  0.00    +0.000 HD
ATOM     25  H   UNL     1      -8.242  10.833   2.089  0.00  0.00    +0.000 HD
ATOM     26  H   UNL     1      -8.909  11.269   0.502  0.00  0.00    +0.000 HD
ENDBRANCH  20  23
ENDBRANCH   1  20
TORSDOF 6
ENDMDL
MODEL 8
REMARK VINA RESULT:    -3.344     31.796     33.404
REMARK INTER + INTRA:          -4.426
REMARK INTER:                  -4.182
REMARK INTRA:                  -0.244
REMARK UNBOUND:                -0.203
REMARK  Name = 520098
REMARK  6 active torsions:
REMARK  status: ('A' for Active; 'I' for Inactive)
REMARK    1  A    between atoms: O_1  and  C_9
REMARK    2  A    between atoms: O_1  and  C_12
REMARK    3  A    between atoms: C_4  and  C_5
REMARK    4  A    between atoms: C_4  and  C_6
REMARK    5  A    between atoms: C_4  and  C_7
REMARK    6  A    between atoms: C_5  and  C_8
REMARK                            x       y       z     vdW  Elec       q    Type
REMARK                         _______ _______ _______ _____ _____    ______ ____
ROOT
ATOM      1  C   UNL     1      18.928  14.689 -11.274  0.00  0.00    +0.000 C 
ATOM      2  H   UNL     1      17.997  15.220 -11.510  0.00  0.00    +0.000 HD
ENDROOT
BRANCH   1   5
ATOM      3  N   UNL     1      21.273  14.726 -11.859  0.00  0.00    +0.000 NA
ATOM      4  N   UNL     1      20.872  16.878 -13.614  0.00  0.00    +0.000 NA
ATOM      5  C   UNL     1      20.079  15.288 -12.062  0.00  0.00    +0.000 A 
ATOM      6  C   UNL     1      19.860  16.333 -12.908  0.00  0.00    +0.000 A 
ATOM      7  C   UNL     1      22.285  15.270 -12.565  0.00  0.00    +0.000 A 
ATOM      8  C   UNL     1      22.088  16.327 -13.426  0.00  0.00    +0.000 A 
ATOM      9  H   UNL     1      23.262  14.828 -12.415  0.00  0.00    +0.000 HD
ATOM     10  H   UNL     1      22.901  16.763 -13.992  0.00  0.00    +0.000 HD
BRANCH   6  11
ATOM     11  O   UNL     1      18.618  16.877 -13.082  0.00  0.00    +0.000 OA
BRANCH  11  12
ATOM     12  C   UNL     1      18.393  17.595 -14.292  0.00  0.00    +0.000 C 
ATOM     13  H   UNL     1      17.655  18.375 -14.087  0.00  0.00    +0.000 HD
ATOM     14  H   UNL     1      17.984  16.938 -15.067  0.00  0.00    +0.000 HD
ATOM     15  H   UNL     1      19.312  18.080 -14.636  0.00  0.00    +0.000 HD
ENDBRANCH  11  12
ENDBRANCH   6  11
ENDBRANCH   1   5
BRANCH   1  16
ATOM     16  C   UNL     1      18.695  13.231 -11.687  0.00  0.00    +0.000 C 
ATOM     17  H   UNL     1      18.854  12.542 -10.849  0.00  0.00    +0.000 HD
ATOM     18  H   UNL     1      17.670  13.087 -12.047  0.00  0.00    +0.000 HD
ATOM     19  H   UNL     1      19.377  12.938 -12.493  0.00  0.00    +0.000 HD
ENDBRANCH   1  16
BRANCH   1  20
ATOM     20  C   UNL     1      19.120  14.788  -9.747  0.00  0.00    +0.000 C 
ATOM     21  H   UNL     1      20.171  14.620  -9.479  0.00  0.00    +0.000 HD
ATOM     22  H   UNL     1      18.540  13.996  -9.258  0.00  0.00    +0.000 HD
BRANCH  20  23
ATOM     23  C   UNL     1      18.672  16.126  -9.174  0.00  0.00    +0.000 C 
ATOM     24  H   UNL     1      19.084  16.261  -8.169  0.00  0.00    +0.000 HD
ATOM     25  H   UNL     1      19.016  16.963  -9.789  0.00  0.00    +0.000 HD
ATOM     26  H   UNL     1      17.580  16.176  -9.101  0.00  0.00    +0.000 HD
ENDBRANCH  20  23
ENDBRANCH   1  20
TORSDOF 6
ENDMDL
MODEL 9
REMARK VINA RESULT:    -3.342     31.527     32.976
REMARK INTER + INTRA:          -4.424
REMARK INTER:                  -4.216
REMARK INTRA:                  -0.208
REMARK UNBOUND:                -0.203
REMARK  Name = 520098
REMARK  6 active torsions:
REMARK  status: ('A' for Active; 'I' for Inactive)
REMARK    1  A    between atoms: O_1  and  C_9
REMARK    2  A    between atoms: O_1  and  C_12
REMARK    3  A    between atoms: C_4  and  C_5
REMARK    4  A    between atoms: C_4  and  C_6
REMARK    5  A    between atoms: C_4  and  C_7
REMARK    6  A    between atoms: C_5  and  C_8
REMARK                            x       y       z     vdW  Elec       q    Type
REMARK                         _______ _______ _______ _____ _____    ______ ____
ROOT
ATOM      1  C   UNL     1      20.770  15.843 -13.267  0.00  0.00    +0.000 C 
ATOM      2  H   UNL     1      20.733  16.928 -13.108  0.00  0.00    +0.000 HD
ENDROOT
BRANCH   1   5
ATOM      3  N   UNL     1      19.605  13.847 -12.557  0.00  0.00    +0.000 NA
ATOM      4  N   UNL     1      18.269  15.261 -10.537  0.00  0.00    +0.000 NA
ATOM      5  C   UNL     1      19.785  15.152 -12.340  0.00  0.00    +0.000 A 
ATOM      6  C   UNL     1      19.148  15.860 -11.366  0.00  0.00    +0.000 A 
ATOM      7  C   UNL     1      18.727  13.249 -11.727  0.00  0.00    +0.000 A 
ATOM      8  C   UNL     1      18.071  13.943 -10.735  0.00  0.00    +0.000 A 
ATOM      9  H   UNL     1      18.567  12.189 -11.887  0.00  0.00    +0.000 HD
ATOM     10  H   UNL     1      17.366  13.462 -10.070  0.00  0.00    +0.000 HD
BRANCH   6  11
ATOM     11  O   UNL     1      19.364  17.197 -11.183  0.00  0.00    +0.000 OA
BRANCH  11  12
ATOM     12  C   UNL     1      19.888  17.598  -9.920  0.00  0.00    +0.000 C 
ATOM     13  H   UNL     1      20.979  17.599  -9.995  0.00  0.00    +0.000 HD
ATOM     14  H   UNL     1      19.603  16.889  -9.136  0.00  0.00    +0.000 HD
ATOM     15  H   UNL     1      19.566  18.612  -9.666  0.00  0.00    +0.000 HD
ENDBRANCH  11  12
ENDBRANCH   6  11
ENDBRANCH   1   5
BRANCH   1  16
ATOM     16  C   UNL     1      22.206  15.419 -12.938  0.00  0.00    +0.000 C 
ATOM     17  H   UNL     1      22.827  16.276 -12.654  0.00  0.00    +0.000 HD
ATOM     18  H   UNL     1      22.220  14.707 -12.105  0.00  0.00    +0.000 HD
ATOM     19  H   UNL     1      22.679  14.935 -13.800  0.00  0.00    +0.000 HD
ENDBRANCH   1  16
BRANCH   1  20
ATOM     20  C   UNL     1      20.470  15.603 -14.760  0.00  0.00    +0.000 C 
ATOM     21  H   UNL     1      19.725  16.322 -15.124  0.00  0.00    +0.000 HD
ATOM     22  H   UNL     1      20.031  14.605 -14.885  0.00  0.00    +0.000 HD
BRANCH  20  23
ATOM     23  C   UNL     1      21.710  15.689 -15.640  0.00  0.00    +0.000 C 
ATOM     24  H   UNL     1      21.803  16.694 -16.062  0.00  0.00    +0.000 HD
ATOM     25  H   UNL     1      22.622  15.481 -15.072  0.00  0.00    +0.000 HD
ATOM     26  H   UNL     1      21.652  14.978 -16.471  0.00  0.00    +0.000 HD
ENDBRANCH  20  23
ENDBRANCH   1  20
TORSDOF 6
ENDMDL
MODEL 10
REMARK VINA RESULT:    -3.245     32.216     33.731
REMARK INTER + INTRA:          -4.302
REMARK INTER:                  -4.099
REMARK INTRA:                  -0.203
REMARK UNBOUND:                -0.203
REMARK  Name = 520098
REMARK  6 active torsions:
REMARK  status: ('A' for Active; 'I' for Inactive)
REMARK    1  A    between atoms: O_1  and  C_9
REMARK    2  A    between atoms: O_1  and  C_12
REMARK    3  A    between atoms: C_4  and  C_5
REMARK    4  A    between atoms: C_4  and  C_6
REMARK    5  A    between atoms: C_4  and  C_7
REMARK    6  A    between atoms: C_5  and  C_8
REMARK                            x       y       z     vdW  Elec       q    Type
REMARK                         _______ _______ _______ _____ _____    ______ ____
ROOT
ATOM      1  C   UNL     1      20.831  16.458 -10.032  0.00  0.00    +0.000 C 
ATOM      2  H   UNL     1      21.118  17.154 -10.830  0.00  0.00    +0.000 HD
ENDROOT
BRANCH   1   5
ATOM      3  N   UNL     1      19.029  14.860  -9.830  0.00  0.00    +0.000 NA
ATOM      4  N   UNL     1      19.580  13.813 -12.374  0.00  0.00    +0.000 NA
ATOM      5  C   UNL     1      20.010  15.318 -10.610  0.00  0.00    +0.000 A 
ATOM      6  C   UNL     1      20.297  14.826 -11.847  0.00  0.00    +0.000 A 
ATOM      7  C   UNL     1      18.311  13.847 -10.357  0.00  0.00    +0.000 A 
ATOM      8  C   UNL     1      18.581  13.333 -11.606  0.00  0.00    +0.000 A 
ATOM      9  H   UNL     1      17.509  13.461  -9.740  0.00  0.00    +0.000 HD
ATOM     10  H   UNL     1      18.005  12.520 -12.028  0.00  0.00    +0.000 HD
BRANCH   6  11
ATOM     11  O   UNL     1      21.316  15.328 -12.609  0.00  0.00    +0.000 OA
BRANCH  11  12
ATOM     12  C   UNL     1      20.956  15.928 -13.850  0.00  0.00    +0.000 C 
ATOM     13  H   UNL     1      20.784  16.993 -13.671  0.00  0.00    +0.000 HD
ATOM     14  H   UNL     1      20.027  15.496 -14.239  0.00  0.00    +0.000 HD
ATOM     15  H   UNL     1      21.766  15.834 -14.580  0.00  0.00    +0.000 HD
ENDBRANCH  11  12
ENDBRANCH   6  11
ENDBRANCH   1   5
BRANCH   1  16
ATOM     16  C   UNL     1      19.993  17.275  -9.042  0.00  0.00    +0.000 C 
ATOM     17  H   UNL     1      19.668  16.668  -8.188  0.00  0.00    +0.000 HD
ATOM     18  H   UNL     1      20.568  18.121  -8.650  0.00  0.00    +0.000 HD
ATOM     19  H   UNL     1      19.095  17.676  -9.526  0.00  0.00    +0.000 HD
ENDBRANCH   1  16
BRANCH   1  20
ATOM     20  C   UNL     1      22.139  15.987  -9.364  0.00  0.00    +0.000 C 
ATOM     21  H   UNL     1      22.273  14.906  -9.499  0.00  0.00    +0.000 HD
ATOM     22  H   UNL     1      22.077  16.164  -8.284  0.00  0.00    +0.000 HD
BRANCH  20  23
ATOM     23  C   UNL     1      23.373  16.707  -9.892  0.00  0.00    +0.000 C 
ATOM     24  H   UNL     1      24.275  16.293  -9.432  0.00  0.00    +0.000 HD
ATOM     25  H   UNL     1      23.471  16.595 -10.977  0.00  0.00    +0.000 HD
ATOM     26  H   UNL     1      23.334  17.776  -9.658  0.00  0.00    +0.000 HD
ENDBRANCH  20  23
ENDBRANCH   1  20
TORSDOF 6
ENDMDL
