MODEL 1
REMARK VINA RESULT:    -3.487      0.000      0.000
REMARK INTER + INTRA:          -3.996
REMARK INTER:                  -3.996
REMARK INTRA:                   0.000
REMARK UNBOUND:                 0.000
REMARK  Name = 179
REMARK  4 active torsions:
REMARK  status: ('A' for Active; 'I' for Inactive)
REMARK    1  A    between atoms: O_1  and  C_3
REMARK    2  A    between atoms: C_3  and  C_4
REMARK    3  A    between atoms: C_3  and  C_5
REMARK    4  A    between atoms: C_4  and  C_6
REMARK                            x       y       z     vdW  Elec       q    Type
REMARK                         _______ _______ _______ _____ _____    ______ ____
ROOT
ATOM      1  C   UNL     1      10.918   8.051  -3.987  0.00  0.00    +0.000 C 
ATOM      2  H   UNL     1      10.692   8.374  -2.965  0.00  0.00    +0.000 HD
ENDROOT
BRANCH   1   3
ATOM      3  C   UNL     1      11.245   6.569  -4.021  0.00  0.00    +0.000 C 
ATOM      4  H   UNL     1      12.328   6.409  -4.066  0.00  0.00    +0.000 HD
ATOM      5  H   UNL     1      10.792   6.074  -4.885  0.00  0.00    +0.000 HD
ATOM      6  H   UNL     1      10.888   6.075  -3.112  0.00  0.00    +0.000 HD
ENDBRANCH   1   3
BRANCH   1   7
ATOM      7  O   UNL     1      12.058   8.766  -4.437  0.00  0.00    +0.000 OA
ATOM      8  H   UNL     1      12.837   8.370  -4.011  0.00  0.00    +0.000 HD
ENDBRANCH   1   7
BRANCH   1  10
ATOM      9  O   UNL     1       9.315   9.531  -5.019  0.00  0.00    +0.000 OA
ATOM     10  C   UNL     1       9.734   8.382  -4.886  0.00  0.00    +0.000 C 
BRANCH  10  11
ATOM     11  C   UNL     1       9.089   7.235  -5.622  0.00  0.00    +0.000 C 
ATOM     12  H   UNL     1       9.852   6.648  -6.136  0.00  0.00    +0.000 HD
ATOM     13  H   UNL     1       8.382   7.627  -6.359  0.00  0.00    +0.000 HD
ATOM     14  H   UNL     1       8.538   6.607  -4.917  0.00  0.00    +0.000 HD
ENDBRANCH  10  11
ENDBRANCH   1  10
TORSDOF 4
ENDMDL
MODEL 2
REMARK VINA RESULT:    -3.394      1.368      2.587
REMARK INTER + INTRA:          -3.890
REMARK INTER:                  -3.890
REMARK INTRA:                   0.000
REMARK UNBOUND:                 0.000
REMARK  Name = 179
REMARK  4 active torsions:
REMARK  status: ('A' for Active; 'I' for Inactive)
REMARK    1  A    between atoms: O_1  and  C_3
REMARK    2  A    between atoms: C_3  and  C_4
REMARK    3  A    between atoms: C_3  and  C_5
REMARK    4  A    between atoms: C_4  and  C_6
REMARK                            x       y       z     vdW  Elec       q    Type
REMARK                         _______ _______ _______ _____ _____    ______ ____
ROOT
ATOM      1  C   UNL     1      10.170   7.995  -5.237  0.00  0.00    +0.000 C 
ATOM      2  H   UNL     1      11.056   7.717  -5.818  0.00  0.00    +0.000 HD
ENDROOT
BRANCH   1   3
ATOM      3  C   UNL     1       8.943   7.257  -5.742  0.00  0.00    +0.000 C 
ATOM      4  H   UNL     1       8.705   6.407  -5.093  0.00  0.00    +0.000 HD
ATOM      5  H   UNL     1       9.088   6.879  -6.758  0.00  0.00    +0.000 HD
ATOM      6  H   UNL     1       8.069   7.915  -5.738  0.00  0.00    +0.000 HD
ENDBRANCH   1   3
BRANCH   1   7
ATOM      7  O   UNL     1       9.948   9.387  -5.404  0.00  0.00    +0.000 OA
ATOM      8  H   UNL     1      10.533   9.852  -4.781  0.00  0.00    +0.000 HD
ENDBRANCH   1   7
BRANCH   1  10
ATOM      9  O   UNL     1       9.515   7.553  -2.957  0.00  0.00    +0.000 OA
ATOM     10  C   UNL     1      10.430   7.704  -3.766  0.00  0.00    +0.000 C 
BRANCH  10  11
ATOM     11  C   UNL     1      11.870   7.599  -3.330  0.00  0.00    +0.000 C 
ATOM     12  H   UNL     1      12.445   7.052  -4.079  0.00  0.00    +0.000 HD
ATOM     13  H   UNL     1      11.925   7.066  -2.376  0.00  0.00    +0.000 HD
ATOM     14  H   UNL     1      12.287   8.600  -3.188  0.00  0.00    +0.000 HD
ENDBRANCH  10  11
ENDBRANCH   1  10
TORSDOF 4
ENDMDL
MODEL 3
REMARK VINA RESULT:    -3.329      9.833     10.301
REMARK INTER + INTRA:          -3.815
REMARK INTER:                  -3.815
REMARK INTRA:                   0.000
REMARK UNBOUND:                 0.000
REMARK  Name = 179
REMARK  4 active torsions:
REMARK  status: ('A' for Active; 'I' for Inactive)
REMARK    1  A    between atoms: O_1  and  C_3
REMARK    2  A    between atoms: C_3  and  C_4
REMARK    3  A    between atoms: C_3  and  C_5
REMARK    4  A    between atoms: C_4  and  C_6
REMARK                            x       y       z     vdW  Elec       q    Type
REMARK                         _______ _______ _______ _____ _____    ______ ____
ROOT
ATOM      1  C   UNL     1       7.673  -1.740  -2.498  0.00  0.00    +0.000 C 
ATOM      2  H   UNL     1       7.650  -0.960  -1.729  0.00  0.00    +0.000 HD
ENDROOT
BRANCH   1   3
ATOM      3  C   UNL     1       6.360  -2.500  -2.531  0.00  0.00    +0.000 C 
ATOM      4  H   UNL     1       6.379  -3.343  -1.830  0.00  0.00    +0.000 HD
ATOM      5  H   UNL     1       6.143  -2.892  -3.529  0.00  0.00    +0.000 HD
ATOM      6  H   UNL     1       5.532  -1.852  -2.226  0.00  0.00    +0.000 HD
ENDBRANCH   1   3
BRANCH   1   7
ATOM      7  O   UNL     1       8.706  -2.655  -2.171  0.00  0.00    +0.000 OA
ATOM      8  H   UNL     1       9.134  -2.921  -3.002  0.00  0.00    +0.000 HD
ENDBRANCH   1   7
BRANCH   1  10
ATOM      9  O   UNL     1       9.128  -1.014  -4.281  0.00  0.00    +0.000 OA
ATOM     10  C   UNL     1       7.981  -1.099  -3.844  0.00  0.00    +0.000 C 
BRANCH  10  11
ATOM     11  C   UNL     1       6.812  -0.571  -4.638  0.00  0.00    +0.000 C 
ATOM     12  H   UNL     1       5.879  -0.961  -4.227  0.00  0.00    +0.000 HD
ATOM     13  H   UNL     1       6.905  -0.889  -5.680  0.00  0.00    +0.000 HD
ATOM     14  H   UNL     1       6.812   0.522  -4.611  0.00  0.00    +0.000 HD
ENDBRANCH  10  11
ENDBRANCH   1  10
TORSDOF 4
ENDMDL
MODEL 4
REMARK VINA RESULT:    -3.314      3.437      4.636
REMARK INTER + INTRA:          -3.799
REMARK INTER:                  -3.799
REMARK INTRA:                   0.000
REMARK UNBOUND:                 0.000
REMARK  Name = 179
REMARK  4 active torsions:
REMARK  status: ('A' for Active; 'I' for Inactive)
REMARK    1  A    between atoms: O_1  and  C_3
REMARK    2  A    between atoms: C_3  and  C_4
REMARK    3  A    between atoms: C_3  and  C_5
REMARK    4  A    between atoms: C_4  and  C_6
REMARK                            x       y       z     vdW  Elec       q    Type
REMARK                         _______ _______ _______ _____ _____    ______ ____
ROOT
ATOM      1  C   UNL     1      13.527   7.309  -4.957  0.00  0.00    +0.000 C 
ATOM      2  H   UNL     1      12.851   7.207  -5.814  0.00  0.00    +0.000 HD
ENDROOT
BRANCH   1   3
ATOM      3  C   UNL     1      12.764   7.758  -3.723  0.00  0.00    +0.000 C 
ATOM      4  H   UNL     1      13.421   8.302  -3.035  0.00  0.00    +0.000 HD
ATOM      5  H   UNL     1      12.332   6.911  -3.183  0.00  0.00    +0.000 HD
ATOM      6  H   UNL     1      11.955   8.442  -3.998  0.00  0.00    +0.000 HD
ENDBRANCH   1   3
BRANCH   1   7
ATOM      7  O   UNL     1      14.490   8.303  -5.268  0.00  0.00    +0.000 OA
ATOM      8  H   UNL     1      15.219   7.864  -5.739  0.00  0.00    +0.000 HD
ENDBRANCH   1   7
BRANCH   1  10
ATOM      9  O   UNL     1      13.802   5.140  -3.937  0.00  0.00    +0.000 OA
ATOM     10  C   UNL     1      14.235   5.982  -4.723  0.00  0.00    +0.000 C 
BRANCH  10  11
ATOM     11  C   UNL     1      15.500   5.731  -5.504  0.00  0.00    +0.000 C 
ATOM     12  H   UNL     1      15.482   6.303  -6.434  0.00  0.00    +0.000 HD
ATOM     13  H   UNL     1      15.577   4.666  -5.741  0.00  0.00    +0.000 HD
ATOM     14  H   UNL     1      16.368   6.013  -4.902  0.00  0.00    +0.000 HD
ENDBRANCH  10  11
ENDBRANCH   1  10
TORSDOF 4
ENDMDL
MODEL 5
REMARK VINA RESULT:    -3.299      9.571      9.980
REMARK INTER + INTRA:          -3.781
REMARK INTER:                  -3.781
REMARK INTRA:                   0.000
REMARK UNBOUND:                 0.000
REMARK  Name = 179
REMARK  4 active torsions:
REMARK  status: ('A' for Active; 'I' for Inactive)
REMARK    1  A    between atoms: O_1  and  C_3
REMARK    2  A    between atoms: C_3  and  C_4
REMARK    3  A    between atoms: C_3  and  C_5
REMARK    4  A    between atoms: C_4  and  C_6
REMARK                            x       y       z     vdW  Elec       q    Type
REMARK                         _______ _______ _______ _____ _____    ______ ____
ROOT
ATOM      1  C   UNL     1       5.629  -0.972  -2.410  0.00  0.00    +0.000 C 
ATOM      2  H   UNL     1       4.540  -0.887  -2.335  0.00  0.00    +0.000 HD
ENDROOT
BRANCH   1   3
ATOM      3  C   UNL     1       6.043  -2.424  -2.572  0.00  0.00    +0.000 C 
ATOM      4  H   UNL     1       5.256  -3.097  -2.214  0.00  0.00    +0.000 HD
ATOM      5  H   UNL     1       6.960  -2.648  -2.019  0.00  0.00    +0.000 HD
ATOM      6  H   UNL     1       6.209  -2.662  -3.628  0.00  0.00    +0.000 HD
ENDBRANCH   1   3
BRANCH   1   7
ATOM      7  O   UNL     1       6.197  -0.482  -1.206  0.00  0.00    +0.000 OA
ATOM      8  H   UNL     1       6.758   0.278  -1.437  0.00  0.00    +0.000 HD
ENDBRANCH   1   7
BRANCH   1  10
ATOM      9  O   UNL     1       7.310   0.003  -3.840  0.00  0.00    +0.000 OA
ATOM     10  C   UNL     1       6.115  -0.121  -3.574  0.00  0.00    +0.000 C 
BRANCH  10  11
ATOM     11  C   UNL     1       5.064   0.570  -4.407  0.00  0.00    +0.000 C 
ATOM     12  H   UNL     1       4.072   0.347  -4.010  0.00  0.00    +0.000 HD
ATOM     13  H   UNL     1       5.125   0.215  -5.440  0.00  0.00    +0.000 HD
ATOM     14  H   UNL     1       5.241   1.649  -4.403  0.00  0.00    +0.000 HD
ENDBRANCH  10  11
ENDBRANCH   1  10
TORSDOF 4
ENDMDL
MODEL 6
REMARK VINA RESULT:    -3.280      9.546     10.141
REMARK INTER + INTRA:          -3.759
REMARK INTER:                  -3.759
REMARK INTRA:                   0.000
REMARK UNBOUND:                 0.000
REMARK  Name = 179
REMARK  4 active torsions:
REMARK  status: ('A' for Active; 'I' for Inactive)
REMARK    1  A    between atoms: O_1  and  C_3
REMARK    2  A    between atoms: C_3  and  C_4
REMARK    3  A    between atoms: C_3  and  C_5
REMARK    4  A    between atoms: C_4  and  C_6
REMARK                            x       y       z     vdW  Elec       q    Type
REMARK                         _______ _______ _______ _____ _____    ______ ____
ROOT
ATOM      1  C   UNL     1       5.852   0.240  -3.543  0.00  0.00    +0.000 C 
ATOM      2  H   UNL     1       6.428   1.147  -3.329  0.00  0.00    +0.000 HD
ENDROOT
BRANCH   1   3
ATOM      3  C   UNL     1       6.349  -0.424  -4.814  0.00  0.00    +0.000 C 
ATOM      4  H   UNL     1       7.401  -0.714  -4.718  0.00  0.00    +0.000 HD
ATOM      5  H   UNL     1       6.255   0.237  -5.680  0.00  0.00    +0.000 HD
ATOM      6  H   UNL     1       5.784  -1.341  -5.016  0.00  0.00    +0.000 HD
ENDBRANCH   1   3
BRANCH   1   7
ATOM      7  O   UNL     1       4.497   0.612  -3.739  0.00  0.00    +0.000 OA
ATOM      8  H   UNL     1       4.266   0.397  -4.658  0.00  0.00    +0.000 HD
ENDBRANCH   1   7
BRANCH   1  10
ATOM      9  O   UNL     1       5.974  -0.286  -1.191  0.00  0.00    +0.000 OA
ATOM     10  C   UNL     1       5.944  -0.700  -2.349  0.00  0.00    +0.000 C 
BRANCH  10  11
ATOM     11  C   UNL     1       5.992  -2.179  -2.641  0.00  0.00    +0.000 C 
ATOM     12  H   UNL     1       5.828  -2.352  -3.706  0.00  0.00    +0.000 HD
ATOM     13  H   UNL     1       5.210  -2.689  -2.071  0.00  0.00    +0.000 HD
ATOM     14  H   UNL     1       6.961  -2.584  -2.335  0.00  0.00    +0.000 HD
ENDBRANCH  10  11
ENDBRANCH   1  10
TORSDOF 4
ENDMDL
MODEL 7
REMARK VINA RESULT:    -3.156      8.453      8.598
REMARK INTER + INTRA:          -3.617
REMARK INTER:                  -3.617
REMARK INTRA:                   0.000
REMARK UNBOUND:                 0.000
REMARK  Name = 179
REMARK  4 active torsions:
REMARK  status: ('A' for Active; 'I' for Inactive)
REMARK    1  A    between atoms: O_1  and  C_3
REMARK    2  A    between atoms: C_3  and  C_4
REMARK    3  A    between atoms: C_3  and  C_5
REMARK    4  A    between atoms: C_4  and  C_6
REMARK                            x       y       z     vdW  Elec       q    Type
REMARK                         _______ _______ _______ _____ _____    ______ ____
ROOT
ATOM      1  C   UNL     1       7.520  -0.251  -3.367  0.00  0.00    +0.000 C 
ATOM      2  H   UNL     1       7.323  -1.164  -2.795  0.00  0.00    +0.000 HD
ENDROOT
BRANCH   1   3
ATOM      3  C   UNL     1       7.739  -0.573  -4.834  0.00  0.00    +0.000 C 
ATOM      4  H   UNL     1       7.691  -1.653  -5.009  0.00  0.00    +0.000 HD
ATOM      5  H   UNL     1       8.710  -0.214  -5.188  0.00  0.00    +0.000 HD
ATOM      6  H   UNL     1       6.956  -0.116  -5.450  0.00  0.00    +0.000 HD
ENDBRANCH   1   3
BRANCH   1   7
ATOM      7  O   UNL     1       8.707   0.341  -2.862  0.00  0.00    +0.000 OA
ATOM      8  H   UNL     1       9.038   0.953  -3.541  0.00  0.00    +0.000 HD
ENDBRANCH   1   7
BRANCH   1  10
ATOM      9  O   UNL     1       6.322   1.516  -2.241  0.00  0.00    +0.000 OA
ATOM     10  C   UNL     1       6.360   0.715  -3.175  0.00  0.00    +0.000 C 
BRANCH  10  11
ATOM     11  C   UNL     1       5.244   0.660  -4.188  0.00  0.00    +0.000 C 
ATOM     12  H   UNL     1       4.445   1.343  -3.896  0.00  0.00    +0.000 HD
ATOM     13  H   UNL     1       4.846  -0.357  -4.237  0.00  0.00    +0.000 HD
ATOM     14  H   UNL     1       5.629   0.927  -5.176  0.00  0.00    +0.000 HD
ENDBRANCH  10  11
ENDBRANCH   1  10
TORSDOF 4
ENDMDL
MODEL 8
REMARK VINA RESULT:    -3.124      9.942     10.363
REMARK INTER + INTRA:          -3.580
REMARK INTER:                  -3.580
REMARK INTRA:                   0.000
REMARK UNBOUND:                 0.000
REMARK  Name = 179
REMARK  4 active torsions:
REMARK  status: ('A' for Active; 'I' for Inactive)
REMARK    1  A    between atoms: O_1  and  C_3
REMARK    2  A    between atoms: C_3  and  C_4
REMARK    3  A    between atoms: C_3  and  C_5
REMARK    4  A    between atoms: C_4  and  C_6
REMARK                            x       y       z     vdW  Elec       q    Type
REMARK                         _______ _______ _______ _____ _____    ______ ____
ROOT
ATOM      1  C   UNL     1       8.488  -1.561  -3.071  0.00  0.00    +0.000 C 
ATOM      2  H   UNL     1       9.111  -1.692  -3.962  0.00  0.00    +0.000 HD
ENDROOT
BRANCH   1   3
ATOM      3  C   UNL     1       8.774  -0.226  -2.408  0.00  0.00    +0.000 C 
ATOM      4  H   UNL     1       9.505  -0.339  -1.600  0.00  0.00    +0.000 HD
ATOM      5  H   UNL     1       7.868   0.220  -1.987  0.00  0.00    +0.000 HD
ATOM      6  H   UNL     1       9.204   0.478  -3.128  0.00  0.00    +0.000 HD
ENDBRANCH   1   3
BRANCH   1   7
ATOM      7  O   UNL     1       8.811  -2.591  -2.149  0.00  0.00    +0.000 OA
ATOM      8  H   UNL     1       9.763  -2.527  -1.962  0.00  0.00    +0.000 HD
ENDBRANCH   1   7
BRANCH   1  10
ATOM      9  O   UNL     1       6.576  -1.171  -4.490  0.00  0.00    +0.000 OA
ATOM     10  C   UNL     1       7.024  -1.686  -3.466  0.00  0.00    +0.000 C 
BRANCH  10  11
ATOM     11  C   UNL     1       6.129  -2.479  -2.547  0.00  0.00    +0.000 C 
ATOM     12  H   UNL     1       6.727  -2.964  -1.774  0.00  0.00    +0.000 HD
ATOM     13  H   UNL     1       5.600  -3.244  -3.123  0.00  0.00    +0.000 HD
ATOM     14  H   UNL     1       5.386  -1.817  -2.093  0.00  0.00    +0.000 HD
ENDBRANCH  10  11
ENDBRANCH   1  10
TORSDOF 4
ENDMDL
MODEL 9
REMARK VINA RESULT:    -3.115      6.185      6.673
REMARK INTER + INTRA:          -3.570
REMARK INTER:                  -3.570
REMARK INTRA:                   0.000
REMARK UNBOUND:                 0.000
REMARK  Name = 179
REMARK  4 active torsions:
REMARK  status: ('A' for Active; 'I' for Inactive)
REMARK    1  A    between atoms: O_1  and  C_3
REMARK    2  A    between atoms: C_3  and  C_4
REMARK    3  A    between atoms: C_3  and  C_5
REMARK    4  A    between atoms: C_4  and  C_6
REMARK                            x       y       z     vdW  Elec       q    Type
REMARK                         _______ _______ _______ _____ _____    ______ ____
ROOT
ATOM      1  C   UNL     1      15.998   4.981  -5.426  0.00  0.00    +0.000 C 
ATOM      2  H   UNL     1      16.179   4.499  -6.393  0.00  0.00    +0.000 HD
ENDROOT
BRANCH   1   3
ATOM      3  C   UNL     1      15.091   6.187  -5.589  0.00  0.00    +0.000 C 
ATOM      4  H   UNL     1      14.037   5.891  -5.544  0.00  0.00    +0.000 HD
ATOM      5  H   UNL     1      15.260   6.696  -6.542  0.00  0.00    +0.000 HD
ATOM      6  H   UNL     1      15.255   6.905  -4.779  0.00  0.00    +0.000 HD
ENDBRANCH   1   3
BRANCH   1   7
ATOM      7  O   UNL     1      17.243   5.430  -4.915  0.00  0.00    +0.000 OA
ATOM      8  H   UNL     1      17.201   6.400  -4.855  0.00  0.00    +0.000 HD
ENDBRANCH   1   7
BRANCH   1  10
ATOM      9  O   UNL     1      16.048   3.489  -3.530  0.00  0.00    +0.000 OA
ATOM     10  C   UNL     1      15.403   3.961  -4.466  0.00  0.00    +0.000 C 
BRANCH  10  11
ATOM     11  C   UNL     1      13.972   3.547  -4.703  0.00  0.00    +0.000 C 
ATOM     12  H   UNL     1      13.682   2.786  -3.976  0.00  0.00    +0.000 HD
ATOM     13  H   UNL     1      13.873   3.135  -5.711  0.00  0.00    +0.000 HD
ATOM     14  H   UNL     1      13.318   4.419  -4.621  0.00  0.00    +0.000 HD
ENDBRANCH  10  11
ENDBRANCH   1  10
TORSDOF 4
ENDMDL
MODEL 10
REMARK VINA RESULT:    -3.070     27.551     28.232
REMARK INTER + INTRA:          -3.518
REMARK INTER:                  -3.518
REMARK INTRA:                   0.000
REMARK UNBOUND:                 0.000
REMARK  Name = 179
REMARK  4 active torsions:
REMARK  status: ('A' for Active; 'I' for Inactive)
REMARK    1  A    between atoms: O_1  and  C_3
REMARK    2  A    between atoms: C_3  and  C_4
REMARK    3  A    between atoms: C_3  and  C_5
REMARK    4  A    between atoms: C_4  and  C_6
REMARK                            x       y       z     vdW  Elec       q    Type
REMARK                         _______ _______ _______ _____ _____    ______ ____
ROOT
ATOM      1  C   UNL     1       4.450 -10.774 -25.302  0.00  0.00    +0.000 C 
ATOM      2  H   UNL     1       4.148 -11.780 -25.614  0.00  0.00    +0.000 HD
ENDROOT
BRANCH   1   3
ATOM      3  C   UNL     1       3.629 -10.313 -24.111  0.00  0.00    +0.000 C 
ATOM      4  H   UNL     1       4.014 -10.744 -23.180  0.00  0.00    +0.000 HD
ATOM      5  H   UNL     1       2.578 -10.599 -24.208  0.00  0.00    +0.000 HD
ATOM      6  H   UNL     1       3.683  -9.225 -24.004  0.00  0.00    +0.000 HD
ENDBRANCH   1   3
BRANCH   1   7
ATOM      7  O   UNL     1       4.207  -9.883 -26.378  0.00  0.00    +0.000 OA
ATOM      8  H   UNL     1       3.906 -10.415 -27.134  0.00  0.00    +0.000 HD
ENDBRANCH   1   7
BRANCH   1  10
ATOM      9  O   UNL     1       6.612 -11.809 -25.020  0.00  0.00    +0.000 OA
ATOM     10  C   UNL     1       5.939 -10.779 -24.984  0.00  0.00    +0.000 C 
BRANCH  10  11
ATOM     11  C   UNL     1       6.569  -9.457 -24.625  0.00  0.00    +0.000 C 
ATOM     12  H   UNL     1       7.216  -9.579 -23.754  0.00  0.00    +0.000 HD
ATOM     13  H   UNL     1       5.786  -8.730 -24.391  0.00  0.00    +0.000 HD
ATOM     14  H   UNL     1       7.146  -9.080 -25.475  0.00  0.00    +0.000 HD
ENDBRANCH  10  11
ENDBRANCH   1  10
TORSDOF 4
ENDMDL
