MODEL 1
REMARK VINA RESULT:    -3.909      0.000      0.000
REMARK INTER + INTRA:          -4.512
REMARK INTER:                  -4.497
REMARK INTRA:                  -0.015
REMARK UNBOUND:                -0.031
REMARK  Name = 11173
REMARK  4 active torsions:
REMARK  status: ('A' for Active; 'I' for Inactive)
REMARK    1  A    between atoms: O_1  and  C_6
REMARK    2  A    between atoms: C_2  and  C_4
REMARK    3  A    between atoms: C_2  and  C_5
REMARK    4  A    between atoms: C_3  and  C_6
REMARK                            x       y       z     vdW  Elec       q    Type
REMARK                         _______ _______ _______ _____ _____    ______ ____
ROOT
ATOM      1  C   UNL     1       6.260   0.270  -4.029  0.00  0.00    +0.000 C 
ATOM      2  C   UNL     1       7.092  -0.514  -4.742  0.00  0.00    +0.000 C 
ATOM      3  H   UNL     1       6.724  -0.925  -5.681  0.00  0.00    +0.000 HD
ENDROOT
BRANCH   1   4
ATOM      4  C   UNL     1       4.872   0.563  -4.536  0.00  0.00    +0.000 C 
ATOM      5  H   UNL     1       4.503   1.501  -4.109  0.00  0.00    +0.000 HD
ATOM      6  H   UNL     1       4.880   0.656  -5.627  0.00  0.00    +0.000 HD
ATOM      7  H   UNL     1       4.157  -0.224  -4.276  0.00  0.00    +0.000 HD
ENDBRANCH   1   4
BRANCH   1   8
ATOM      8  C   UNL     1       6.586   0.919  -2.714  0.00  0.00    +0.000 C 
ATOM      9  H   UNL     1       7.488   1.533  -2.813  0.00  0.00    +0.000 HD
ATOM     10  H   UNL     1       5.795   1.567  -2.334  0.00  0.00    +0.000 HD
ATOM     11  H   UNL     1       6.773   0.153  -1.954  0.00  0.00    +0.000 HD
ENDBRANCH   1   8
BRANCH   2  12
ATOM     12  C   UNL     1       8.492  -0.921  -4.405  0.00  0.00    +0.000 C 
ATOM     13  H   UNL     1       8.547  -2.013  -4.357  0.00  0.00    +0.000 HD
ATOM     14  H   UNL     1       8.850  -0.520  -3.457  0.00  0.00    +0.000 HD
BRANCH  12  15
ATOM     15  O   UNL     1       9.374  -0.477  -5.431  0.00  0.00    +0.000 OA
ATOM     16  H   UNL     1       8.837   0.014  -6.076  0.00  0.00    +0.000 HD
ENDBRANCH  12  15
ENDBRANCH   2  12
TORSDOF 4
ENDMDL
MODEL 2
REMARK VINA RESULT:    -3.897      2.453      2.779
REMARK INTER + INTRA:          -4.497
REMARK INTER:                  -4.461
REMARK INTRA:                  -0.037
REMARK UNBOUND:                -0.031
REMARK  Name = 11173
REMARK  4 active torsions:
REMARK  status: ('A' for Active; 'I' for Inactive)
REMARK    1  A    between atoms: O_1  and  C_6
REMARK    2  A    between atoms: C_2  and  C_4
REMARK    3  A    between atoms: C_2  and  C_5
REMARK    4  A    between atoms: C_3  and  C_6
REMARK                            x       y       z     vdW  Elec       q    Type
REMARK                         _______ _______ _______ _____ _____    ______ ____
ROOT
ATOM      1  C   UNL     1       5.986  -0.306  -3.628  0.00  0.00    +0.000 C 
ATOM      2  C   UNL     1       5.708  -1.214  -2.672  0.00  0.00    +0.000 C 
ATOM      3  H   UNL     1       5.021  -0.923  -1.878  0.00  0.00    +0.000 HD
ENDROOT
BRANCH   1   4
ATOM      4  C   UNL     1       5.352   1.059  -3.586  0.00  0.00    +0.000 C 
ATOM      5  H   UNL     1       5.946   1.734  -2.961  0.00  0.00    +0.000 HD
ATOM      6  H   UNL     1       5.293   1.480  -4.596  0.00  0.00    +0.000 HD
ATOM      7  H   UNL     1       4.336   1.037  -3.178  0.00  0.00    +0.000 HD
ENDBRANCH   1   4
BRANCH   1   8
ATOM      8  C   UNL     1       6.909  -0.522  -4.793  0.00  0.00    +0.000 C 
ATOM      9  H   UNL     1       7.949  -0.537  -4.450  0.00  0.00    +0.000 HD
ATOM     10  H   UNL     1       6.732  -1.456  -5.329  0.00  0.00    +0.000 HD
ATOM     11  H   UNL     1       6.797   0.293  -5.516  0.00  0.00    +0.000 HD
ENDBRANCH   1   8
BRANCH   2  12
ATOM     12  C   UNL     1       6.237  -2.607  -2.539  0.00  0.00    +0.000 C 
ATOM     13  H   UNL     1       6.321  -3.057  -3.532  0.00  0.00    +0.000 HD
ATOM     14  H   UNL     1       5.615  -3.256  -1.922  0.00  0.00    +0.000 HD
BRANCH  12  15
ATOM     15  O   UNL     1       7.537  -2.566  -1.958  0.00  0.00    +0.000 OA
ATOM     16  H   UNL     1       8.032  -1.866  -2.417  0.00  0.00    +0.000 HD
ENDBRANCH  12  15
ENDBRANCH   2  12
TORSDOF 4
ENDMDL
MODEL 3
REMARK VINA RESULT:    -3.569      2.401      3.030
REMARK INTER + INTRA:          -4.121
REMARK INTER:                  -4.092
REMARK INTRA:                  -0.030
REMARK UNBOUND:                -0.031
REMARK  Name = 11173
REMARK  4 active torsions:
REMARK  status: ('A' for Active; 'I' for Inactive)
REMARK    1  A    between atoms: O_1  and  C_6
REMARK    2  A    between atoms: C_2  and  C_4
REMARK    3  A    between atoms: C_2  and  C_5
REMARK    4  A    between atoms: C_3  and  C_6
REMARK                            x       y       z     vdW  Elec       q    Type
REMARK                         _______ _______ _______ _____ _____    ______ ____
ROOT
ATOM      1  C   UNL     1       6.037   0.011  -4.363  0.00  0.00    +0.000 C 
ATOM      2  C   UNL     1       5.989   0.856  -3.315  0.00  0.00    +0.000 C 
ATOM      3  H   UNL     1       5.355   1.738  -3.400  0.00  0.00    +0.000 HD
ENDROOT
BRANCH   1   4
ATOM      4  C   UNL     1       5.226   0.291  -5.601  0.00  0.00    +0.000 C 
ATOM      5  H   UNL     1       4.214   0.608  -5.327  0.00  0.00    +0.000 HD
ATOM      6  H   UNL     1       5.694   1.088  -6.188  0.00  0.00    +0.000 HD
ATOM      7  H   UNL     1       5.134  -0.587  -6.249  0.00  0.00    +0.000 HD
ENDBRANCH   1   4
BRANCH   1   8
ATOM      8  C   UNL     1       6.855  -1.247  -4.432  0.00  0.00    +0.000 C 
ATOM      9  H   UNL     1       6.342  -1.993  -5.048  0.00  0.00    +0.000 HD
ATOM     10  H   UNL     1       7.849  -1.104  -4.858  0.00  0.00    +0.000 HD
ATOM     11  H   UNL     1       6.987  -1.663  -3.428  0.00  0.00    +0.000 HD
ENDBRANCH   1   8
BRANCH   2  12
ATOM     12  C   UNL     1       6.719   0.755  -2.012  0.00  0.00    +0.000 C 
ATOM     13  H   UNL     1       6.685   1.724  -1.505  0.00  0.00    +0.000 HD
ATOM     14  H   UNL     1       7.764   0.462  -2.116  0.00  0.00    +0.000 HD
BRANCH  12  15
ATOM     15  O   UNL     1       6.075  -0.205  -1.182  0.00  0.00    +0.000 OA
ATOM     16  H   UNL     1       5.130  -0.191  -1.411  0.00  0.00    +0.000 HD
ENDBRANCH  12  15
ENDBRANCH   2  12
TORSDOF 4
ENDMDL
MODEL 4
REMARK VINA RESULT:    -3.454      8.740      9.226
REMARK INTER + INTRA:          -3.990
REMARK INTER:                  -3.978
REMARK INTRA:                  -0.012
REMARK UNBOUND:                -0.031
REMARK  Name = 11173
REMARK  4 active torsions:
REMARK  status: ('A' for Active; 'I' for Inactive)
REMARK    1  A    between atoms: O_1  and  C_6
REMARK    2  A    between atoms: C_2  and  C_4
REMARK    3  A    between atoms: C_2  and  C_5
REMARK    4  A    between atoms: C_3  and  C_6
REMARK                            x       y       z     vdW  Elec       q    Type
REMARK                         _______ _______ _______ _____ _____    ______ ____
ROOT
ATOM      1  C   UNL     1      11.003   7.576  -3.721  0.00  0.00    +0.000 C 
ATOM      2  C   UNL     1      12.350   7.578  -3.722  0.00  0.00    +0.000 C 
ATOM      3  H   UNL     1      12.860   7.738  -2.773  0.00  0.00    +0.000 HD
ENDROOT
BRANCH   1   4
ATOM      4  C   UNL     1      10.245   7.784  -2.436  0.00  0.00    +0.000 C 
ATOM      5  H   UNL     1       9.757   8.765  -2.438  0.00  0.00    +0.000 HD
ATOM      6  H   UNL     1       9.476   7.013  -2.321  0.00  0.00    +0.000 HD
ATOM      7  H   UNL     1      10.893   7.739  -1.555  0.00  0.00    +0.000 HD
ENDBRANCH   1   4
BRANCH   1   8
ATOM      8  C   UNL     1      10.130   7.377  -4.926  0.00  0.00    +0.000 C 
ATOM      9  H   UNL     1      10.015   6.308  -5.133  0.00  0.00    +0.000 HD
ATOM     10  H   UNL     1       9.128   7.796  -4.820  0.00  0.00    +0.000 HD
ATOM     11  H   UNL     1      10.588   7.849  -5.802  0.00  0.00    +0.000 HD
ENDBRANCH   1   8
BRANCH   2  12
ATOM     12  C   UNL     1      13.273   7.396  -4.885  0.00  0.00    +0.000 C 
ATOM     13  H   UNL     1      12.688   7.384  -5.810  0.00  0.00    +0.000 HD
ATOM     14  H   UNL     1      13.859   6.477  -4.842  0.00  0.00    +0.000 HD
BRANCH  12  15
ATOM     15  O   UNL     1      14.179   8.492  -4.947  0.00  0.00    +0.000 OA
ATOM     16  H   UNL     1      15.075   8.118  -5.013  0.00  0.00    +0.000 HD
ENDBRANCH  12  15
ENDBRANCH   2  12
TORSDOF 4
ENDMDL
MODEL 5
REMARK VINA RESULT:    -3.310     15.775     16.240
REMARK INTER + INTRA:          -3.825
REMARK INTER:                  -3.819
REMARK INTRA:                  -0.006
REMARK UNBOUND:                -0.031
REMARK  Name = 11173
REMARK  4 active torsions:
REMARK  status: ('A' for Active; 'I' for Inactive)
REMARK    1  A    between atoms: O_1  and  C_6
REMARK    2  A    between atoms: C_2  and  C_4
REMARK    3  A    between atoms: C_2  and  C_5
REMARK    4  A    between atoms: C_3  and  C_6
REMARK                            x       y       z     vdW  Elec       q    Type
REMARK                         _______ _______ _______ _____ _____    ______ ____
ROOT
ATOM      1  C   UNL     1      -1.238 -13.783  -9.102  0.00  0.00    +0.000 C 
ATOM      2  C   UNL     1      -0.844 -12.740  -8.346  0.00  0.00    +0.000 C 
ATOM      3  H   UNL     1      -0.513 -11.837  -8.857  0.00  0.00    +0.000 HD
ENDROOT
BRANCH   1   4
ATOM      4  C   UNL     1      -1.220 -13.681 -10.604  0.00  0.00    +0.000 C 
ATOM      5  H   UNL     1      -0.688 -12.776 -10.917  0.00  0.00    +0.000 HD
ATOM      6  H   UNL     1      -0.713 -14.550 -11.037  0.00  0.00    +0.000 HD
ATOM      7  H   UNL     1      -2.227 -13.638 -11.033  0.00  0.00    +0.000 HD
ENDBRANCH   1   4
BRANCH   1   8
ATOM      8  C   UNL     1      -1.719 -15.106  -8.579  0.00  0.00    +0.000 C 
ATOM      9  H   UNL     1      -2.421 -15.557  -9.289  0.00  0.00    +0.000 HD
ATOM     10  H   UNL     1      -0.921 -15.831  -8.410  0.00  0.00    +0.000 HD
ATOM     11  H   UNL     1      -2.239 -14.965  -7.625  0.00  0.00    +0.000 HD
ENDBRANCH   1   8
BRANCH   2  12
ATOM     12  C   UNL     1      -0.784 -12.651  -6.854  0.00  0.00    +0.000 C 
ATOM     13  H   UNL     1      -0.404 -13.595  -6.451  0.00  0.00    +0.000 HD
ATOM     14  H   UNL     1      -1.749 -12.445  -6.387  0.00  0.00    +0.000 HD
BRANCH  12  15
ATOM     15  O   UNL     1       0.114 -11.613  -6.476  0.00  0.00    +0.000 OA
ATOM     16  H   UNL     1       0.960 -11.792  -6.923  0.00  0.00    +0.000 HD
ENDBRANCH  12  15
ENDBRANCH   2  12
TORSDOF 4
ENDMDL
MODEL 6
REMARK VINA RESULT:    -3.210      8.720      9.456
REMARK INTER + INTRA:          -3.710
REMARK INTER:                  -3.675
REMARK INTRA:                  -0.035
REMARK UNBOUND:                -0.031
REMARK  Name = 11173
REMARK  4 active torsions:
REMARK  status: ('A' for Active; 'I' for Inactive)
REMARK    1  A    between atoms: O_1  and  C_6
REMARK    2  A    between atoms: C_2  and  C_4
REMARK    3  A    between atoms: C_2  and  C_5
REMARK    4  A    between atoms: C_3  and  C_6
REMARK                            x       y       z     vdW  Elec       q    Type
REMARK                         _______ _______ _______ _____ _____    ______ ____
ROOT
ATOM      1  C   UNL     1      12.434   6.977  -3.611  0.00  0.00    +0.000 C 
ATOM      2  C   UNL     1      12.005   7.944  -2.777  0.00  0.00    +0.000 C 
ATOM      3  H   UNL     1      12.287   8.972  -3.002  0.00  0.00    +0.000 HD
ENDROOT
BRANCH   1   4
ATOM      4  C   UNL     1      13.268   7.327  -4.814  0.00  0.00    +0.000 C 
ATOM      5  H   UNL     1      13.831   8.248  -4.630  0.00  0.00    +0.000 HD
ATOM      6  H   UNL     1      13.980   6.522  -5.029  0.00  0.00    +0.000 HD
ATOM      7  H   UNL     1      12.664   7.482  -5.713  0.00  0.00    +0.000 HD
ENDBRANCH   1   4
BRANCH   1   8
ATOM      8  C   UNL     1      12.151   5.509  -3.462  0.00  0.00    +0.000 C 
ATOM      9  H   UNL     1      11.084   5.350  -3.271  0.00  0.00    +0.000 HD
ATOM     10  H   UNL     1      12.414   4.918  -4.340  0.00  0.00    +0.000 HD
ATOM     11  H   UNL     1      12.716   5.103  -2.615  0.00  0.00    +0.000 HD
ENDBRANCH   1   8
BRANCH   2  12
ATOM     12  C   UNL     1      11.178   7.797  -1.538  0.00  0.00    +0.000 C 
ATOM     13  H   UNL     1      10.417   7.028  -1.702  0.00  0.00    +0.000 HD
ATOM     14  H   UNL     1      10.674   8.715  -1.234  0.00  0.00    +0.000 HD
BRANCH  12  15
ATOM     15  O   UNL     1      12.010   7.376  -0.461  0.00  0.00    +0.000 OA
ATOM     16  H   UNL     1      12.386   8.179  -0.062  0.00  0.00    +0.000 HD
ENDBRANCH  12  15
ENDBRANCH   2  12
TORSDOF 4
ENDMDL
MODEL 7
REMARK VINA RESULT:    -3.206      8.322      8.796
REMARK INTER + INTRA:          -3.706
REMARK INTER:                  -3.683
REMARK INTRA:                  -0.023
REMARK UNBOUND:                -0.031
REMARK  Name = 11173
REMARK  4 active torsions:
REMARK  status: ('A' for Active; 'I' for Inactive)
REMARK    1  A    between atoms: O_1  and  C_6
REMARK    2  A    between atoms: C_2  and  C_4
REMARK    3  A    between atoms: C_2  and  C_5
REMARK    4  A    between atoms: C_3  and  C_6
REMARK                            x       y       z     vdW  Elec       q    Type
REMARK                         _______ _______ _______ _____ _____    ______ ____
ROOT
ATOM      1  C   UNL     1      10.287   7.301  -2.933  0.00  0.00    +0.000 C 
ATOM      2  C   UNL     1       9.607   7.900  -1.936  0.00  0.00    +0.000 C 
ATOM      3  H   UNL     1       8.701   8.446  -2.194  0.00  0.00    +0.000 HD
ENDROOT
BRANCH   1   4
ATOM      4  C   UNL     1       9.790   7.391  -4.351  0.00  0.00    +0.000 C 
ATOM      5  H   UNL     1       8.847   6.844  -4.458  0.00  0.00    +0.000 HD
ATOM      6  H   UNL     1       9.619   8.437  -4.627  0.00  0.00    +0.000 HD
ATOM      7  H   UNL     1      10.500   6.971  -5.072  0.00  0.00    +0.000 HD
ENDBRANCH   1   4
BRANCH   1   8
ATOM      8  C   UNL     1      11.554   6.511  -2.772  0.00  0.00    +0.000 C 
ATOM      9  H   UNL     1      11.879   6.121  -3.743  0.00  0.00    +0.000 HD
ATOM     10  H   UNL     1      12.385   7.087  -2.361  0.00  0.00    +0.000 HD
ATOM     11  H   UNL     1      11.384   5.662  -2.100  0.00  0.00    +0.000 HD
ENDBRANCH   1   8
BRANCH   2  12
ATOM     12  C   UNL     1       9.940   7.929  -0.477  0.00  0.00    +0.000 C 
ATOM     13  H   UNL     1       9.841   8.954  -0.106  0.00  0.00    +0.000 HD
ATOM     14  H   UNL     1      10.948   7.580  -0.250  0.00  0.00    +0.000 HD
BRANCH  12  15
ATOM     15  O   UNL     1       9.021   7.108   0.235  0.00  0.00    +0.000 OA
ATOM     16  H   UNL     1       8.388   7.703   0.674  0.00  0.00    +0.000 HD
ENDBRANCH  12  15
ENDBRANCH   2  12
TORSDOF 4
ENDMDL
MODEL 8
REMARK VINA RESULT:    -3.068     17.039     17.470
REMARK INTER + INTRA:          -3.548
REMARK INTER:                  -3.542
REMARK INTRA:                  -0.006
REMARK UNBOUND:                -0.031
REMARK  Name = 11173
REMARK  4 active torsions:
REMARK  status: ('A' for Active; 'I' for Inactive)
REMARK    1  A    between atoms: O_1  and  C_6
REMARK    2  A    between atoms: C_2  and  C_4
REMARK    3  A    between atoms: C_2  and  C_5
REMARK    4  A    between atoms: C_3  and  C_6
REMARK                            x       y       z     vdW  Elec       q    Type
REMARK                         _______ _______ _______ _____ _____    ______ ____
ROOT
ATOM      1  C   UNL     1      -1.164 -13.668  -9.429  0.00  0.00    +0.000 C 
ATOM      2  C   UNL     1      -1.113 -13.629 -10.775  0.00  0.00    +0.000 C 
ATOM      3  H   UNL     1      -0.863 -12.681 -11.248  0.00  0.00    +0.000 HD
ENDROOT
BRANCH   1   4
ATOM      4  C   UNL     1      -0.874 -12.429  -8.623  0.00  0.00    +0.000 C 
ATOM      5  H   UNL     1       0.123 -12.494  -8.175  0.00  0.00    +0.000 HD
ATOM      6  H   UNL     1      -0.910 -11.543  -9.265  0.00  0.00    +0.000 HD
ATOM      7  H   UNL     1      -1.593 -12.279  -7.811  0.00  0.00    +0.000 HD
ENDBRANCH   1   4
BRANCH   1   8
ATOM      8  C   UNL     1      -1.495 -14.878  -8.603  0.00  0.00    +0.000 C 
ATOM      9  H   UNL     1      -2.554 -15.134  -8.722  0.00  0.00    +0.000 HD
ATOM     10  H   UNL     1      -0.917 -15.764  -8.868  0.00  0.00    +0.000 HD
ATOM     11  H   UNL     1      -1.308 -14.671  -7.544  0.00  0.00    +0.000 HD
ENDBRANCH   1   8
BRANCH   2  12
ATOM     12  C   UNL     1      -1.372 -14.742 -11.742  0.00  0.00    +0.000 C 
ATOM     13  H   UNL     1      -2.266 -15.289 -11.429  0.00  0.00    +0.000 HD
ATOM     14  H   UNL     1      -0.549 -15.452 -11.824  0.00  0.00    +0.000 HD
BRANCH  12  15
ATOM     15  O   UNL     1      -1.614 -14.199 -13.035  0.00  0.00    +0.000 OA
ATOM     16  H   UNL     1      -2.543 -13.912 -13.055  0.00  0.00    +0.000 HD
ENDBRANCH  12  15
ENDBRANCH   2  12
TORSDOF 4
ENDMDL
MODEL 9
REMARK VINA RESULT:    -2.938     20.067     21.344
REMARK INTER + INTRA:          -3.398
REMARK INTER:                  -3.364
REMARK INTRA:                  -0.034
REMARK UNBOUND:                -0.031
REMARK  Name = 11173
REMARK  4 active torsions:
REMARK  status: ('A' for Active; 'I' for Inactive)
REMARK    1  A    between atoms: O_1  and  C_6
REMARK    2  A    between atoms: C_2  and  C_4
REMARK    3  A    between atoms: C_2  and  C_5
REMARK    4  A    between atoms: C_3  and  C_6
REMARK                            x       y       z     vdW  Elec       q    Type
REMARK                         _______ _______ _______ _____ _____    ______ ____
ROOT
ATOM      1  C   UNL     1      -2.359   8.573  12.427  0.00  0.00    +0.000 C 
ATOM      2  C   UNL     1      -2.753   9.861  12.465  0.00  0.00    +0.000 C 
ATOM      3  H   UNL     1      -3.325  10.193  13.329  0.00  0.00    +0.000 HD
ENDROOT
BRANCH   1   4
ATOM      4  C   UNL     1      -2.703   7.641  13.559  0.00  0.00    +0.000 C 
ATOM      5  H   UNL     1      -3.292   6.795  13.188  0.00  0.00    +0.000 HD
ATOM      6  H   UNL     1      -1.789   7.252  14.020  0.00  0.00    +0.000 HD
ATOM      7  H   UNL     1      -3.287   8.132  14.344  0.00  0.00    +0.000 HD
ENDBRANCH   1   4
BRANCH   1   8
ATOM      8  C   UNL     1      -1.570   7.934  11.320  0.00  0.00    +0.000 C 
ATOM      9  H   UNL     1      -1.033   7.058  11.700  0.00  0.00    +0.000 HD
ATOM     10  H   UNL     1      -2.180   7.600  10.479  0.00  0.00    +0.000 HD
ATOM     11  H   UNL     1      -0.834   8.644  10.927  0.00  0.00    +0.000 HD
ENDBRANCH   1   8
BRANCH   2  12
ATOM     12  C   UNL     1      -2.516  10.929  11.444  0.00  0.00    +0.000 C 
ATOM     13  H   UNL     1      -1.647  10.660  10.836  0.00  0.00    +0.000 HD
ATOM     14  H   UNL     1      -2.338  11.916  11.874  0.00  0.00    +0.000 HD
BRANCH  12  15
ATOM     15  O   UNL     1      -3.647  11.024  10.585  0.00  0.00    +0.000 OA
ATOM     16  H   UNL     1      -3.855  11.969  10.491  0.00  0.00    +0.000 HD
ENDBRANCH  12  15
ENDBRANCH   2  12
TORSDOF 4
ENDMDL
MODEL 10
REMARK VINA RESULT:    -2.927     25.518     26.510
REMARK INTER + INTRA:          -3.385
REMARK INTER:                  -3.354
REMARK INTRA:                  -0.031
REMARK UNBOUND:                -0.031
REMARK  Name = 11173
REMARK  4 active torsions:
REMARK  status: ('A' for Active; 'I' for Inactive)
REMARK    1  A    between atoms: O_1  and  C_6
REMARK    2  A    between atoms: C_2  and  C_4
REMARK    3  A    between atoms: C_2  and  C_5
REMARK    4  A    between atoms: C_3  and  C_6
REMARK                            x       y       z     vdW  Elec       q    Type
REMARK                         _______ _______ _______ _____ _____    ______ ____
ROOT
ATOM      1  C   UNL     1     -16.675  -9.920   3.016  0.00  0.00    +0.000 C 
ATOM      2  C   UNL     1     -15.963  -9.655   1.903  0.00  0.00    +0.000 C 
ATOM      3  H   UNL     1     -15.111 -10.294   1.679  0.00  0.00    +0.000 HD
ENDROOT
BRANCH   1   4
ATOM      4  C   UNL     1     -16.292 -11.074   3.904  0.00  0.00    +0.000 C 
ATOM      5  H   UNL     1     -15.215 -11.058   4.103  0.00  0.00    +0.000 HD
ATOM      6  H   UNL     1     -16.823 -11.009   4.860  0.00  0.00    +0.000 HD
ATOM      7  H   UNL     1     -16.531 -12.045   3.458  0.00  0.00    +0.000 HD
ENDBRANCH   1   4
BRANCH   1   8
ATOM      8  C   UNL     1     -17.874  -9.149   3.489  0.00  0.00    +0.000 C 
ATOM      9  H   UNL     1     -17.730  -8.833   4.528  0.00  0.00    +0.000 HD
ATOM     10  H   UNL     1     -18.081  -8.252   2.904  0.00  0.00    +0.000 HD
ATOM     11  H   UNL     1     -18.767  -9.781   3.443  0.00  0.00    +0.000 HD
ENDBRANCH   1   8
BRANCH   2  12
ATOM     12  C   UNL     1     -16.182  -8.560   0.906  0.00  0.00    +0.000 C 
ATOM     13  H   UNL     1     -15.212  -8.181   0.569  0.00  0.00    +0.000 HD
ATOM     14  H   UNL     1     -16.758  -7.720   1.296  0.00  0.00    +0.000 HD
BRANCH  12  15
ATOM     15  O   UNL     1     -16.873  -9.079  -0.224  0.00  0.00    +0.000 OA
ATOM     16  H   UNL     1     -17.572  -9.666   0.114  0.00  0.00    +0.000 HD
ENDBRANCH  12  15
ENDBRANCH   2  12
TORSDOF 4
ENDMDL
