MODEL 1
REMARK VINA RESULT:    -4.521      0.000      0.000
REMARK INTER + INTRA:          -6.683
REMARK INTER:                  -6.299
REMARK INTRA:                  -0.384
REMARK UNBOUND:                -0.444
REMARK  Name = 11527
REMARK  8 active torsions:
REMARK  status: ('A' for Active; 'I' for Inactive)
REMARK    1  A    between atoms: O_1  and  C_4
REMARK    2  A    between atoms: C_2  and  C_3
REMARK    3  A    between atoms: C_2  and  C_4
REMARK    4  A    between atoms: C_3  and  C_5
REMARK    5  A    between atoms: C_4  and  C_6
REMARK    6  A    between atoms: C_5  and  C_7
REMARK    7  A    between atoms: C_6  and  C_8
REMARK    8  A    between atoms: C_7  and  C_9
REMARK                            x       y       z     vdW  Elec       q    Type
REMARK                         _______ _______ _______ _____ _____    ______ ____
ROOT
ATOM      1  C   UNL     1       8.189  -0.967  -4.861  0.00  0.00    +0.000 C 
ATOM      2  H   UNL     1       8.575  -1.832  -5.415  0.00  0.00    +0.000 HD
ATOM      3  H   UNL     1       8.290  -0.116  -5.545  0.00  0.00    +0.000 HD
ENDROOT
BRANCH   1   4
ATOM      4  C   UNL     1       6.705  -1.179  -4.533  0.00  0.00    +0.000 C 
ATOM      5  H   UNL     1       6.580  -1.301  -3.451  0.00  0.00    +0.000 HD
ATOM      6  H   UNL     1       6.339  -2.094  -5.012  0.00  0.00    +0.000 HD
BRANCH   4   7
ATOM      7  C   UNL     1       5.861   0.003  -5.019  0.00  0.00    +0.000 C 
ATOM      8  H   UNL     1       5.127  -0.352  -5.754  0.00  0.00    +0.000 HD
ATOM      9  H   UNL     1       6.510   0.718  -5.542  0.00  0.00    +0.000 HD
BRANCH   7  10
ATOM     10  C   UNL     1       5.125   0.728  -3.890  0.00  0.00    +0.000 C 
ATOM     11  H   UNL     1       4.559   1.569  -4.307  0.00  0.00    +0.000 HD
ATOM     12  H   UNL     1       4.396   0.047  -3.437  0.00  0.00    +0.000 HD
BRANCH  10  13
ATOM     13  C   UNL     1       6.049   1.250  -2.801  0.00  0.00    +0.000 C 
ATOM     14  H   UNL     1       6.553   0.418  -2.299  0.00  0.00    +0.000 HD
ATOM     15  H   UNL     1       5.488   1.813  -2.049  0.00  0.00    +0.000 HD
ATOM     16  H   UNL     1       6.816   1.908  -3.222  0.00  0.00    +0.000 HD
ENDBRANCH  10  13
ENDBRANCH   7  10
ENDBRANCH   4   7
ENDBRANCH   1   4
BRANCH   1  17
ATOM     17  C   UNL     1       9.078  -0.717  -3.634  0.00  0.00    +0.000 C 
ATOM     18  H   UNL     1       8.720   0.179  -3.111  0.00  0.00    +0.000 HD
BRANCH  17  19
ATOM     19  C   UNL     1       9.097  -1.891  -2.651  0.00  0.00    +0.000 C 
ATOM     20  H   UNL     1      10.123  -2.261  -2.536  0.00  0.00    +0.000 HD
ATOM     21  H   UNL     1       8.486  -2.718  -3.026  0.00  0.00    +0.000 HD
BRANCH  19  22
ATOM     22  C   UNL     1       8.577  -1.494  -1.275  0.00  0.00    +0.000 C 
ATOM     23  H   UNL     1       8.082  -2.339  -0.784  0.00  0.00    +0.000 HD
ATOM     24  H   UNL     1       9.407  -1.172  -0.638  0.00  0.00    +0.000 HD
ATOM     25  H   UNL     1       7.865  -0.666  -1.338  0.00  0.00    +0.000 HD
ENDBRANCH  19  22
ENDBRANCH  17  19
BRANCH  17  26
ATOM     26  O   UNL     1      10.413  -0.444  -4.057  0.00  0.00    +0.000 OA
ATOM     27  H   UNL     1      10.579   0.503  -3.912  0.00  0.00    +0.000 HD
ENDBRANCH  17  26
ENDBRANCH   1  17
TORSDOF 8
ENDMDL
MODEL 2
REMARK VINA RESULT:    -4.464      8.549      9.290
REMARK INTER + INTRA:          -6.605
REMARK INTER:                  -6.403
REMARK INTRA:                  -0.202
REMARK UNBOUND:                -0.444
REMARK  Name = 11527
REMARK  8 active torsions:
REMARK  status: ('A' for Active; 'I' for Inactive)
REMARK    1  A    between atoms: O_1  and  C_4
REMARK    2  A    between atoms: C_2  and  C_3
REMARK    3  A    between atoms: C_2  and  C_4
REMARK    4  A    between atoms: C_3  and  C_5
REMARK    5  A    between atoms: C_4  and  C_6
REMARK    6  A    between atoms: C_5  and  C_7
REMARK    7  A    between atoms: C_6  and  C_8
REMARK    8  A    between atoms: C_7  and  C_9
REMARK                            x       y       z     vdW  Elec       q    Type
REMARK                         _______ _______ _______ _____ _____    ______ ____
ROOT
ATOM      1  C   UNL     1      12.334   7.310  -4.851  0.00  0.00    +0.000 C 
ATOM      2  H   UNL     1      12.117   6.413  -5.446  0.00  0.00    +0.000 HD
ATOM      3  H   UNL     1      11.991   8.154  -5.463  0.00  0.00    +0.000 HD
ENDROOT
BRANCH   1   4
ATOM      4  C   UNL     1      11.534   7.275  -3.543  0.00  0.00    +0.000 C 
ATOM      5  H   UNL     1      11.869   8.084  -2.884  0.00  0.00    +0.000 HD
ATOM      6  H   UNL     1      11.708   6.329  -3.018  0.00  0.00    +0.000 HD
BRANCH   4   7
ATOM      7  C   UNL     1      10.033   7.419  -3.813  0.00  0.00    +0.000 C 
ATOM      8  H   UNL     1       9.591   8.085  -3.062  0.00  0.00    +0.000 HD
ATOM      9  H   UNL     1       9.550   6.441  -3.693  0.00  0.00    +0.000 HD
BRANCH   7  10
ATOM     10  C   UNL     1       9.718   7.964  -5.209  0.00  0.00    +0.000 C 
ATOM     11  H   UNL     1       9.449   9.024  -5.132  0.00  0.00    +0.000 HD
ATOM     12  H   UNL     1      10.618   7.908  -5.831  0.00  0.00    +0.000 HD
BRANCH  10  13
ATOM     13  C   UNL     1       8.591   7.221  -5.909  0.00  0.00    +0.000 C 
ATOM     14  H   UNL     1       7.953   7.924  -6.455  0.00  0.00    +0.000 HD
ATOM     15  H   UNL     1       7.968   6.685  -5.186  0.00  0.00    +0.000 HD
ATOM     16  H   UNL     1       8.988   6.495  -6.625  0.00  0.00    +0.000 HD
ENDBRANCH  10  13
ENDBRANCH   7  10
ENDBRANCH   4   7
ENDBRANCH   1   4
BRANCH   1  17
ATOM     17  C   UNL     1      13.853   7.432  -4.661  0.00  0.00    +0.000 C 
ATOM     18  H   UNL     1      14.103   7.190  -3.620  0.00  0.00    +0.000 HD
BRANCH  17  19
ATOM     19  C   UNL     1      14.654   6.513  -5.589  0.00  0.00    +0.000 C 
ATOM     20  H   UNL     1      15.717   6.781  -5.547  0.00  0.00    +0.000 HD
ATOM     21  H   UNL     1      14.323   6.628  -6.626  0.00  0.00    +0.000 HD
BRANCH  19  22
ATOM     22  C   UNL     1      14.518   5.046  -5.200  0.00  0.00    +0.000 C 
ATOM     23  H   UNL     1      14.630   4.916  -4.118  0.00  0.00    +0.000 HD
ATOM     24  H   UNL     1      13.530   4.672  -5.485  0.00  0.00    +0.000 HD
ATOM     25  H   UNL     1      15.267   4.426  -5.702  0.00  0.00    +0.000 HD
ENDBRANCH  19  22
ENDBRANCH  17  19
BRANCH  17  26
ATOM     26  O   UNL     1      14.258   8.781  -4.881  0.00  0.00    +0.000 OA
ATOM     27  H   UNL     1      15.223   8.821  -4.766  0.00  0.00    +0.000 HD
ENDBRANCH  17  26
ENDBRANCH   1  17
TORSDOF 8
ENDMDL
MODEL 3
REMARK VINA RESULT:    -4.375      1.593      2.287
REMARK INTER + INTRA:          -6.482
REMARK INTER:                  -6.307
REMARK INTRA:                  -0.174
REMARK UNBOUND:                -0.444
REMARK  Name = 11527
REMARK  8 active torsions:
REMARK  status: ('A' for Active; 'I' for Inactive)
REMARK    1  A    between atoms: O_1  and  C_4
REMARK    2  A    between atoms: C_2  and  C_3
REMARK    3  A    between atoms: C_2  and  C_4
REMARK    4  A    between atoms: C_3  and  C_5
REMARK    5  A    between atoms: C_4  and  C_6
REMARK    6  A    between atoms: C_5  and  C_7
REMARK    7  A    between atoms: C_6  and  C_8
REMARK    8  A    between atoms: C_7  and  C_9
REMARK                            x       y       z     vdW  Elec       q    Type
REMARK                         _______ _______ _______ _____ _____    ______ ____
ROOT
ATOM      1  C   UNL     1       8.332  -1.431  -3.351  0.00  0.00    +0.000 C 
ATOM      2  H   UNL     1       8.409  -0.963  -2.361  0.00  0.00    +0.000 HD
ATOM      3  H   UNL     1       8.471  -2.505  -3.177  0.00  0.00    +0.000 HD
ENDROOT
BRANCH   1   4
ATOM      4  C   UNL     1       6.933  -1.191  -3.934  0.00  0.00    +0.000 C 
ATOM      5  H   UNL     1       6.282  -2.039  -3.690  0.00  0.00    +0.000 HD
ATOM      6  H   UNL     1       6.985  -1.119  -5.026  0.00  0.00    +0.000 HD
BRANCH   4   7
ATOM      7  C   UNL     1       6.323   0.102  -3.383  0.00  0.00    +0.000 C 
ATOM      8  H   UNL     1       7.103   0.871  -3.316  0.00  0.00    +0.000 HD
ATOM      9  H   UNL     1       5.966  -0.075  -2.361  0.00  0.00    +0.000 HD
BRANCH   7  10
ATOM     10  C   UNL     1       5.168   0.637  -4.232  0.00  0.00    +0.000 C 
ATOM     11  H   UNL     1       4.222   0.236  -3.850  0.00  0.00    +0.000 HD
ATOM     12  H   UNL     1       5.117   1.727  -4.129  0.00  0.00    +0.000 HD
BRANCH  10  13
ATOM     13  C   UNL     1       5.289   0.290  -5.708  0.00  0.00    +0.000 C 
ATOM     14  H   UNL     1       4.863   1.090  -6.322  0.00  0.00    +0.000 HD
ATOM     15  H   UNL     1       4.755  -0.637  -5.936  0.00  0.00    +0.000 HD
ATOM     16  H   UNL     1       6.337   0.162  -5.994  0.00  0.00    +0.000 HD
ENDBRANCH  10  13
ENDBRANCH   7  10
ENDBRANCH   4   7
ENDBRANCH   1   4
BRANCH   1  17
ATOM     17  C   UNL     1       9.481  -0.927  -4.237  0.00  0.00    +0.000 C 
ATOM     18  H   UNL     1       9.905  -0.019  -3.789  0.00  0.00    +0.000 HD
BRANCH  17  19
ATOM     19  C   UNL     1      10.599  -1.958  -4.421  0.00  0.00    +0.000 C 
ATOM     20  H   UNL     1      10.503  -2.437  -5.403  0.00  0.00    +0.000 HD
ATOM     21  H   UNL     1      10.530  -2.742  -3.660  0.00  0.00    +0.000 HD
BRANCH  19  22
ATOM     22  C   UNL     1      11.982  -1.324  -4.334  0.00  0.00    +0.000 C 
ATOM     23  H   UNL     1      11.911  -0.232  -4.304  0.00  0.00    +0.000 HD
ATOM     24  H   UNL     1      12.490  -1.654  -3.423  0.00  0.00    +0.000 HD
ATOM     25  H   UNL     1      12.608  -1.607  -5.186  0.00  0.00    +0.000 HD
ENDBRANCH  19  22
ENDBRANCH  17  19
BRANCH  17  26
ATOM     26  O   UNL     1       8.974  -0.559  -5.518  0.00  0.00    +0.000 OA
ATOM     27  H   UNL     1       9.646  -0.797  -6.179  0.00  0.00    +0.000 HD
ENDBRANCH  17  26
ENDBRANCH   1  17
TORSDOF 8
ENDMDL
MODEL 4
REMARK VINA RESULT:    -4.213      3.151      4.273
REMARK INTER + INTRA:          -6.258
REMARK INTER:                  -5.986
REMARK INTRA:                  -0.272
REMARK UNBOUND:                -0.444
REMARK  Name = 11527
REMARK  8 active torsions:
REMARK  status: ('A' for Active; 'I' for Inactive)
REMARK    1  A    between atoms: O_1  and  C_4
REMARK    2  A    between atoms: C_2  and  C_3
REMARK    3  A    between atoms: C_2  and  C_4
REMARK    4  A    between atoms: C_3  and  C_5
REMARK    5  A    between atoms: C_4  and  C_6
REMARK    6  A    between atoms: C_5  and  C_7
REMARK    7  A    between atoms: C_6  and  C_8
REMARK    8  A    between atoms: C_7  and  C_9
REMARK                            x       y       z     vdW  Elec       q    Type
REMARK                         _______ _______ _______ _____ _____    ______ ____
ROOT
ATOM      1  C   UNL     1       6.402   1.240  -2.578  0.00  0.00    +0.000 C 
ATOM      2  H   UNL     1       5.704   1.808  -1.949  0.00  0.00    +0.000 HD
ATOM      3  H   UNL     1       6.718   1.938  -3.363  0.00  0.00    +0.000 HD
ENDROOT
BRANCH   1   4
ATOM      4  C   UNL     1       7.625   0.821  -1.752  0.00  0.00    +0.000 C 
ATOM      5  H   UNL     1       8.500   0.732  -2.407  0.00  0.00    +0.000 HD
ATOM      6  H   UNL     1       7.455  -0.160  -1.294  0.00  0.00    +0.000 HD
BRANCH   4   7
ATOM      7  C   UNL     1       7.913   1.838  -0.643  0.00  0.00    +0.000 C 
ATOM      8  H   UNL     1       8.649   2.569  -1.003  0.00  0.00    +0.000 HD
ATOM      9  H   UNL     1       8.372   1.321   0.210  0.00  0.00    +0.000 HD
BRANCH   7  10
ATOM     10  C   UNL     1       6.665   2.582  -0.163  0.00  0.00    +0.000 C 
ATOM     11  H   UNL     1       5.977   2.718  -1.006  0.00  0.00    +0.000 HD
ATOM     12  H   UNL     1       6.141   1.970   0.580  0.00  0.00    +0.000 HD
BRANCH  10  13
ATOM     13  C   UNL     1       6.967   3.942   0.447  0.00  0.00    +0.000 C 
ATOM     14  H   UNL     1       7.218   3.835   1.508  0.00  0.00    +0.000 HD
ATOM     15  H   UNL     1       6.103   4.608   0.366  0.00  0.00    +0.000 HD
ATOM     16  H   UNL     1       7.815   4.416  -0.056  0.00  0.00    +0.000 HD
ENDBRANCH  10  13
ENDBRANCH   7  10
ENDBRANCH   4   7
ENDBRANCH   1   4
BRANCH   1  17
ATOM     17  C   UNL     1       5.652   0.072  -3.235  0.00  0.00    +0.000 C 
ATOM     18  H   UNL     1       6.268  -0.336  -4.047  0.00  0.00    +0.000 HD
BRANCH  17  19
ATOM     19  C   UNL     1       5.313  -1.056  -2.256  0.00  0.00    +0.000 C 
ATOM     20  H   UNL     1       4.233  -1.244  -2.267  0.00  0.00    +0.000 HD
ATOM     21  H   UNL     1       5.591  -0.777  -1.234  0.00  0.00    +0.000 HD
BRANCH  19  22
ATOM     22  C   UNL     1       6.026  -2.356  -2.610  0.00  0.00    +0.000 C 
ATOM     23  H   UNL     1       6.606  -2.729  -1.760  0.00  0.00    +0.000 HD
ATOM     24  H   UNL     1       5.295  -3.123  -2.884  0.00  0.00    +0.000 HD
ATOM     25  H   UNL     1       6.704  -2.224  -3.459  0.00  0.00    +0.000 HD
ENDBRANCH  19  22
ENDBRANCH  17  19
BRANCH  17  26
ATOM     26  O   UNL     1       4.447   0.549  -3.829  0.00  0.00    +0.000 OA
ATOM     27  H   UNL     1       4.691   1.202  -4.506  0.00  0.00    +0.000 HD
ENDBRANCH  17  26
ENDBRANCH   1  17
TORSDOF 8
ENDMDL
MODEL 5
REMARK VINA RESULT:    -4.184      8.142      9.233
REMARK INTER + INTRA:          -6.218
REMARK INTER:                  -5.834
REMARK INTRA:                  -0.384
REMARK UNBOUND:                -0.444
REMARK  Name = 11527
REMARK  8 active torsions:
REMARK  status: ('A' for Active; 'I' for Inactive)
REMARK    1  A    between atoms: O_1  and  C_4
REMARK    2  A    between atoms: C_2  and  C_3
REMARK    3  A    between atoms: C_2  and  C_4
REMARK    4  A    between atoms: C_3  and  C_5
REMARK    5  A    between atoms: C_4  and  C_6
REMARK    6  A    between atoms: C_5  and  C_7
REMARK    7  A    between atoms: C_6  and  C_8
REMARK    8  A    between atoms: C_7  and  C_9
REMARK                            x       y       z     vdW  Elec       q    Type
REMARK                         _______ _______ _______ _____ _____    ______ ____
ROOT
ATOM      1  C   UNL     1      12.082   7.229  -4.343  0.00  0.00    +0.000 C 
ATOM      2  H   UNL     1      12.546   7.931  -3.638  0.00  0.00    +0.000 HD
ATOM      3  H   UNL     1      12.862   7.000  -5.080  0.00  0.00    +0.000 HD
ENDROOT
BRANCH   1   4
ATOM      4  C   UNL     1      11.683   5.941  -3.611  0.00  0.00    +0.000 C 
ATOM      5  H   UNL     1      12.322   5.115  -3.945  0.00  0.00    +0.000 HD
ATOM      6  H   UNL     1      10.648   5.675  -3.852  0.00  0.00    +0.000 HD
BRANCH   4   7
ATOM      7  C   UNL     1      11.809   6.111  -2.094  0.00  0.00    +0.000 C 
ATOM      8  H   UNL     1      12.758   5.674  -1.758  0.00  0.00    +0.000 HD
ATOM      9  H   UNL     1      11.008   5.545  -1.601  0.00  0.00    +0.000 HD
BRANCH   7  10
ATOM     10  C   UNL     1      11.745   7.571  -1.639  0.00  0.00    +0.000 C 
ATOM     11  H   UNL     1      12.635   7.805  -1.045  0.00  0.00    +0.000 HD
ATOM     12  H   UNL     1      11.767   8.225  -2.518  0.00  0.00    +0.000 HD
BRANCH  10  13
ATOM     13  C   UNL     1      10.506   7.895  -0.818  0.00  0.00    +0.000 C 
ATOM     14  H   UNL     1       9.929   6.985  -0.625  0.00  0.00    +0.000 HD
ATOM     15  H   UNL     1       9.861   8.603  -1.348  0.00  0.00    +0.000 HD
ATOM     16  H   UNL     1      10.781   8.335   0.145  0.00  0.00    +0.000 HD
ENDBRANCH  10  13
ENDBRANCH   7  10
ENDBRANCH   4   7
ENDBRANCH   1   4
BRANCH   1  17
ATOM     17  C   UNL     1      10.922   7.933  -5.064  0.00  0.00    +0.000 C 
ATOM     18  H   UNL     1      11.081   7.865  -6.147  0.00  0.00    +0.000 HD
BRANCH  17  19
ATOM     19  C   UNL     1       9.551   7.338  -4.726  0.00  0.00    +0.000 C 
ATOM     20  H   UNL     1       9.030   7.989  -4.013  0.00  0.00    +0.000 HD
ATOM     21  H   UNL     1       9.662   6.355  -4.258  0.00  0.00    +0.000 HD
BRANCH  19  22
ATOM     22  C   UNL     1       8.672   7.187  -5.961  0.00  0.00    +0.000 C 
ATOM     23  H   UNL     1       7.843   7.902  -5.942  0.00  0.00    +0.000 HD
ATOM     24  H   UNL     1       9.259   7.375  -6.865  0.00  0.00    +0.000 HD
ATOM     25  H   UNL     1       8.256   6.178  -6.038  0.00  0.00    +0.000 HD
ENDBRANCH  19  22
ENDBRANCH  17  19
BRANCH  17  26
ATOM     26  O   UNL     1      10.921   9.320  -4.731  0.00  0.00    +0.000 OA
ATOM     27  H   UNL     1      10.580   9.404  -3.824  0.00  0.00    +0.000 HD
ENDBRANCH  17  26
ENDBRANCH   1  17
TORSDOF 8
ENDMDL
MODEL 6
REMARK VINA RESULT:    -4.183      7.820      9.144
REMARK INTER + INTRA:          -6.216
REMARK INTER:                  -5.992
REMARK INTRA:                  -0.224
REMARK UNBOUND:                -0.444
REMARK  Name = 11527
REMARK  8 active torsions:
REMARK  status: ('A' for Active; 'I' for Inactive)
REMARK    1  A    between atoms: O_1  and  C_4
REMARK    2  A    between atoms: C_2  and  C_3
REMARK    3  A    between atoms: C_2  and  C_4
REMARK    4  A    between atoms: C_3  and  C_5
REMARK    5  A    between atoms: C_4  and  C_6
REMARK    6  A    between atoms: C_5  and  C_7
REMARK    7  A    between atoms: C_6  and  C_8
REMARK    8  A    between atoms: C_7  and  C_9
REMARK                            x       y       z     vdW  Elec       q    Type
REMARK                         _______ _______ _______ _____ _____    ______ ____
ROOT
ATOM      1  C   UNL     1      12.388   6.846  -3.944  0.00  0.00    +0.000 C 
ATOM      2  H   UNL     1      12.610   7.346  -2.992  0.00  0.00    +0.000 HD
ATOM      3  H   UNL     1      13.332   6.856  -4.504  0.00  0.00    +0.000 HD
ENDROOT
BRANCH   1   4
ATOM      4  C   UNL     1      11.971   5.393  -3.684  0.00  0.00    +0.000 C 
ATOM      5  H   UNL     1      11.345   5.035  -4.511  0.00  0.00    +0.000 HD
ATOM      6  H   UNL     1      11.374   5.329  -2.768  0.00  0.00    +0.000 HD
BRANCH   4   7
ATOM      7  C   UNL     1      13.198   4.487  -3.538  0.00  0.00    +0.000 C 
ATOM      8  H   UNL     1      13.021   3.765  -2.731  0.00  0.00    +0.000 HD
ATOM      9  H   UNL     1      14.060   5.094  -3.237  0.00  0.00    +0.000 HD
BRANCH   7  10
ATOM     10  C   UNL     1      13.545   3.725  -4.820  0.00  0.00    +0.000 C 
ATOM     11  H   UNL     1      13.804   2.691  -4.568  0.00  0.00    +0.000 HD
ATOM     12  H   UNL     1      12.662   3.684  -5.467  0.00  0.00    +0.000 HD
BRANCH  10  13
ATOM     13  C   UNL     1      14.695   4.344  -5.599  0.00  0.00    +0.000 C 
ATOM     14  H   UNL     1      15.599   4.376  -4.982  0.00  0.00    +0.000 HD
ATOM     15  H   UNL     1      14.454   5.367  -5.905  0.00  0.00    +0.000 HD
ATOM     16  H   UNL     1      14.917   3.760  -6.498  0.00  0.00    +0.000 HD
ENDBRANCH  10  13
ENDBRANCH   7  10
ENDBRANCH   4   7
ENDBRANCH   1   4
BRANCH   1  17
ATOM     17  C   UNL     1      11.352   7.673  -4.718  0.00  0.00    +0.000 C 
ATOM     18  H   UNL     1      11.543   7.569  -5.793  0.00  0.00    +0.000 HD
BRANCH  17  19
ATOM     19  C   UNL     1       9.906   7.255  -4.429  0.00  0.00    +0.000 C 
ATOM     20  H   UNL     1       9.462   7.940  -3.697  0.00  0.00    +0.000 HD
ATOM     21  H   UNL     1       9.874   6.247  -4.004  0.00  0.00    +0.000 HD
BRANCH  19  22
ATOM     22  C   UNL     1       9.043   7.275  -5.685  0.00  0.00    +0.000 C 
ATOM     23  H   UNL     1       8.248   6.523  -5.626  0.00  0.00    +0.000 HD
ATOM     24  H   UNL     1       8.573   8.255  -5.802  0.00  0.00    +0.000 HD
ATOM     25  H   UNL     1       9.636   7.080  -6.584  0.00  0.00    +0.000 HD
ENDBRANCH  19  22
ENDBRANCH  17  19
BRANCH  17  26
ATOM     26  O   UNL     1      11.506   9.055  -4.401  0.00  0.00    +0.000 OA
ATOM     27  H   UNL     1      10.747   9.530  -4.780  0.00  0.00    +0.000 HD
ENDBRANCH  17  26
ENDBRANCH   1  17
TORSDOF 8
ENDMDL
MODEL 7
REMARK VINA RESULT:    -4.108      3.277      4.500
REMARK INTER + INTRA:          -6.113
REMARK INTER:                  -5.795
REMARK INTRA:                  -0.317
REMARK UNBOUND:                -0.444
REMARK  Name = 11527
REMARK  8 active torsions:
REMARK  status: ('A' for Active; 'I' for Inactive)
REMARK    1  A    between atoms: O_1  and  C_4
REMARK    2  A    between atoms: C_2  and  C_3
REMARK    3  A    between atoms: C_2  and  C_4
REMARK    4  A    between atoms: C_3  and  C_5
REMARK    5  A    between atoms: C_4  and  C_6
REMARK    6  A    between atoms: C_5  and  C_7
REMARK    7  A    between atoms: C_6  and  C_8
REMARK    8  A    between atoms: C_7  and  C_9
REMARK                            x       y       z     vdW  Elec       q    Type
REMARK                         _______ _______ _______ _____ _____    ______ ____
ROOT
ATOM      1  C   UNL     1       7.380   0.943  -1.383  0.00  0.00    +0.000 C 
ATOM      2  H   UNL     1       7.420  -0.153  -1.337  0.00  0.00    +0.000 HD
ATOM      3  H   UNL     1       8.380   1.256  -1.711  0.00  0.00    +0.000 HD
ENDROOT
BRANCH   1   4
ATOM      4  C   UNL     1       6.346   1.383  -2.427  0.00  0.00    +0.000 C 
ATOM      5  H   UNL     1       6.798   2.110  -3.111  0.00  0.00    +0.000 HD
ATOM      6  H   UNL     1       5.500   1.877  -1.935  0.00  0.00    +0.000 HD
BRANCH   4   7
ATOM      7  C   UNL     1       5.822   0.183  -3.222  0.00  0.00    +0.000 C 
ATOM      8  H   UNL     1       6.604  -0.166  -3.908  0.00  0.00    +0.000 HD
ATOM      9  H   UNL     1       4.975   0.503  -3.842  0.00  0.00    +0.000 HD
BRANCH   7  10
ATOM     10  C   UNL     1       5.380  -0.984  -2.336  0.00  0.00    +0.000 C 
ATOM     11  H   UNL     1       5.551  -0.727  -1.285  0.00  0.00    +0.000 HD
ATOM     12  H   UNL     1       4.301  -1.140  -2.455  0.00  0.00    +0.000 HD
BRANCH  10  13
ATOM     13  C   UNL     1       6.100  -2.287  -2.647  0.00  0.00    +0.000 C 
ATOM     14  H   UNL     1       5.598  -3.126  -2.154  0.00  0.00    +0.000 HD
ATOM     15  H   UNL     1       7.135  -2.255  -2.296  0.00  0.00    +0.000 HD
ATOM     16  H   UNL     1       6.109  -2.481  -3.724  0.00  0.00    +0.000 HD
ENDBRANCH  10  13
ENDBRANCH   7  10
ENDBRANCH   4   7
ENDBRANCH   1   4
BRANCH   1  17
ATOM     17  C   UNL     1       7.133   1.498   0.027  0.00  0.00    +0.000 C 
ATOM     18  H   UNL     1       8.083   1.513   0.576  0.00  0.00    +0.000 HD
BRANCH  17  19
ATOM     19  C   UNL     1       6.539   2.910   0.025  0.00  0.00    +0.000 C 
ATOM     20  H   UNL     1       5.797   3.001   0.828  0.00  0.00    +0.000 HD
ATOM     21  H   UNL     1       6.031   3.114  -0.923  0.00  0.00    +0.000 HD
BRANCH  19  22
ATOM     22  C   UNL     1       7.604   3.979   0.240  0.00  0.00    +0.000 C 
ATOM     23  H   UNL     1       7.170   4.881   0.683  0.00  0.00    +0.000 HD
ATOM     24  H   UNL     1       8.378   3.608   0.918  0.00  0.00    +0.000 HD
ATOM     25  H   UNL     1       8.090   4.257  -0.701  0.00  0.00    +0.000 HD
ENDBRANCH  19  22
ENDBRANCH  17  19
BRANCH  17  26
ATOM     26  O   UNL     1       6.256   0.627   0.739  0.00  0.00    +0.000 OA
ATOM     27  H   UNL     1       6.557   0.599   1.663  0.00  0.00    +0.000 HD
ENDBRANCH  17  26
ENDBRANCH   1  17
TORSDOF 8
ENDMDL
MODEL 8
REMARK VINA RESULT:    -4.072      1.369      2.092
REMARK INTER + INTRA:          -6.064
REMARK INTER:                  -5.566
REMARK INTRA:                  -0.498
REMARK UNBOUND:                -0.444
REMARK  Name = 11527
REMARK  8 active torsions:
REMARK  status: ('A' for Active; 'I' for Inactive)
REMARK    1  A    between atoms: O_1  and  C_4
REMARK    2  A    between atoms: C_2  and  C_3
REMARK    3  A    between atoms: C_2  and  C_4
REMARK    4  A    between atoms: C_3  and  C_5
REMARK    5  A    between atoms: C_4  and  C_6
REMARK    6  A    between atoms: C_5  and  C_7
REMARK    7  A    between atoms: C_6  and  C_8
REMARK    8  A    between atoms: C_7  and  C_9
REMARK                            x       y       z     vdW  Elec       q    Type
REMARK                         _______ _______ _______ _____ _____    ______ ____
ROOT
ATOM      1  C   UNL     1       7.879  -1.334  -2.639  0.00  0.00    +0.000 C 
ATOM      2  H   UNL     1       7.527  -1.640  -1.645  0.00  0.00    +0.000 HD
ATOM      3  H   UNL     1       8.726  -1.994  -2.862  0.00  0.00    +0.000 HD
ENDROOT
BRANCH   1   4
ATOM      4  C   UNL     1       6.772  -1.562  -3.676  0.00  0.00    +0.000 C 
ATOM      5  H   UNL     1       5.791  -1.436  -3.203  0.00  0.00    +0.000 HD
ATOM      6  H   UNL     1       6.822  -2.585  -4.064  0.00  0.00    +0.000 HD
BRANCH   4   7
ATOM      7  C   UNL     1       6.909  -0.584  -4.848  0.00  0.00    +0.000 C 
ATOM      8  H   UNL     1       7.208  -1.136  -5.748  0.00  0.00    +0.000 HD
ATOM      9  H   UNL     1       7.715   0.128  -4.631  0.00  0.00    +0.000 HD
BRANCH   7  10
ATOM     10  C   UNL     1       5.623   0.191  -5.144  0.00  0.00    +0.000 C 
ATOM     11  H   UNL     1       5.863   1.078  -5.741  0.00  0.00    +0.000 HD
ATOM     12  H   UNL     1       4.957  -0.432  -5.753  0.00  0.00    +0.000 HD
BRANCH  10  13
ATOM     13  C   UNL     1       4.877   0.627  -3.893  0.00  0.00    +0.000 C 
ATOM     14  H   UNL     1       4.791   1.718  -3.862  0.00  0.00    +0.000 HD
ATOM     15  H   UNL     1       5.403   0.301  -2.991  0.00  0.00    +0.000 HD
ATOM     16  H   UNL     1       3.867   0.206  -3.873  0.00  0.00    +0.000 HD
ENDBRANCH  10  13
ENDBRANCH   7  10
ENDBRANCH   4   7
ENDBRANCH   1   4
BRANCH   1  17
ATOM     17  C   UNL     1       8.392   0.112  -2.567  0.00  0.00    +0.000 C 
ATOM     18  H   UNL     1       7.846   0.721  -3.299  0.00  0.00    +0.000 HD
BRANCH  17  19
ATOM     19  C   UNL     1       8.233   0.742  -1.180  0.00  0.00    +0.000 C 
ATOM     20  H   UNL     1       9.147   1.287  -0.914  0.00  0.00    +0.000 HD
ATOM     21  H   UNL     1       8.074  -0.031  -0.421  0.00  0.00    +0.000 HD
BRANCH  19  22
ATOM     22  C   UNL     1       7.065   1.719  -1.125  0.00  0.00    +0.000 C 
ATOM     23  H   UNL     1       6.362   1.445  -0.331  0.00  0.00    +0.000 HD
ATOM     24  H   UNL     1       7.430   2.730  -0.921  0.00  0.00    +0.000 HD
ATOM     25  H   UNL     1       6.520   1.747  -2.074  0.00  0.00    +0.000 HD
ENDBRANCH  19  22
ENDBRANCH  17  19
BRANCH  17  26
ATOM     26  O   UNL     1       9.768   0.151  -2.940  0.00  0.00    +0.000 OA
ATOM     27  H   UNL     1      10.157   0.950  -2.544  0.00  0.00    +0.000 HD
ENDBRANCH  17  26
ENDBRANCH   1  17
TORSDOF 8
ENDMDL
MODEL 9
REMARK VINA RESULT:    -3.963      2.478      3.415
REMARK INTER + INTRA:          -5.913
REMARK INTER:                  -5.365
REMARK INTRA:                  -0.549
REMARK UNBOUND:                -0.444
REMARK  Name = 11527
REMARK  8 active torsions:
REMARK  status: ('A' for Active; 'I' for Inactive)
REMARK    1  A    between atoms: O_1  and  C_4
REMARK    2  A    between atoms: C_2  and  C_3
REMARK    3  A    between atoms: C_2  and  C_4
REMARK    4  A    between atoms: C_3  and  C_5
REMARK    5  A    between atoms: C_4  and  C_6
REMARK    6  A    between atoms: C_5  and  C_7
REMARK    7  A    between atoms: C_6  and  C_8
REMARK    8  A    between atoms: C_7  and  C_9
REMARK                            x       y       z     vdW  Elec       q    Type
REMARK                         _______ _______ _______ _____ _____    ______ ____
ROOT
ATOM      1  C   UNL     1       5.959  -0.475  -2.013  0.00  0.00    +0.000 C 
ATOM      2  H   UNL     1       5.018  -0.742  -1.515  0.00  0.00    +0.000 HD
ATOM      3  H   UNL     1       6.282  -1.387  -2.531  0.00  0.00    +0.000 HD
ENDROOT
BRANCH   1   4
ATOM      4  C   UNL     1       5.708   0.631  -3.045  0.00  0.00    +0.000 C 
ATOM      5  H   UNL     1       6.376   1.478  -2.849  0.00  0.00    +0.000 HD
ATOM      6  H   UNL     1       4.678   0.999  -2.963  0.00  0.00    +0.000 HD
BRANCH   4   7
ATOM      7  C   UNL     1       5.934   0.115  -4.469  0.00  0.00    +0.000 C 
ATOM      8  H   UNL     1       6.427   0.895  -5.064  0.00  0.00    +0.000 HD
ATOM      9  H   UNL     1       4.963  -0.077  -4.942  0.00  0.00    +0.000 HD
BRANCH   7  10
ATOM     10  C   UNL     1       6.779  -1.160  -4.525  0.00  0.00    +0.000 C 
ATOM     11  H   UNL     1       6.753  -1.655  -3.547  0.00  0.00    +0.000 HD
ATOM     12  H   UNL     1       6.335  -1.857  -5.246  0.00  0.00    +0.000 HD
BRANCH  10  13
ATOM     13  C   UNL     1       8.228  -0.911  -4.912  0.00  0.00    +0.000 C 
ATOM     14  H   UNL     1       8.889  -1.596  -4.371  0.00  0.00    +0.000 HD
ATOM     15  H   UNL     1       8.526   0.113  -4.670  0.00  0.00    +0.000 HD
ATOM     16  H   UNL     1       8.378  -1.069  -5.984  0.00  0.00    +0.000 HD
ENDBRANCH  10  13
ENDBRANCH   7  10
ENDBRANCH   4   7
ENDBRANCH   1   4
BRANCH   1  17
ATOM     17  C   UNL     1       7.008  -0.121  -0.949  0.00  0.00    +0.000 C 
ATOM     18  H   UNL     1       7.632  -1.003  -0.755  0.00  0.00    +0.000 HD
BRANCH  17  19
ATOM     19  C   UNL     1       7.913   1.046  -1.356  0.00  0.00    +0.000 C 
ATOM     20  H   UNL     1       7.999   1.756  -0.525  0.00  0.00    +0.000 HD
ATOM     21  H   UNL     1       7.488   1.583  -2.211  0.00  0.00    +0.000 HD
BRANCH  19  22
ATOM     22  C   UNL     1       9.315   0.580  -1.730  0.00  0.00    +0.000 C 
ATOM     23  H   UNL     1      10.076   1.202  -1.248  0.00  0.00    +0.000 HD
ATOM     24  H   UNL     1       9.467  -0.453  -1.404  0.00  0.00    +0.000 HD
ATOM     25  H   UNL     1       9.475   0.615  -2.812  0.00  0.00    +0.000 HD
ENDBRANCH  19  22
ENDBRANCH  17  19
BRANCH  17  26
ATOM     26  O   UNL     1       6.357   0.204   0.278  0.00  0.00    +0.000 OA
ATOM     27  H   UNL     1       6.266   1.171   0.315  0.00  0.00    +0.000 HD
ENDBRANCH  17  26
ENDBRANCH   1  17
TORSDOF 8
ENDMDL
MODEL 10
REMARK VINA RESULT:    -3.962      2.104      4.435
REMARK INTER + INTRA:          -5.912
REMARK INTER:                  -5.468
REMARK INTRA:                  -0.444
REMARK UNBOUND:                -0.444
REMARK  Name = 11527
REMARK  8 active torsions:
REMARK  status: ('A' for Active; 'I' for Inactive)
REMARK    1  A    between atoms: O_1  and  C_4
REMARK    2  A    between atoms: C_2  and  C_3
REMARK    3  A    between atoms: C_2  and  C_4
REMARK    4  A    between atoms: C_3  and  C_5
REMARK    5  A    between atoms: C_4  and  C_6
REMARK    6  A    between atoms: C_5  and  C_7
REMARK    7  A    between atoms: C_6  and  C_8
REMARK    8  A    between atoms: C_7  and  C_9
REMARK                            x       y       z     vdW  Elec       q    Type
REMARK                         _______ _______ _______ _____ _____    ______ ____
ROOT
ATOM      1  C   UNL     1       7.438  -0.037  -1.980  0.00  0.00    +0.000 C 
ATOM      2  H   UNL     1       7.637   0.785  -1.280  0.00  0.00    +0.000 HD
ATOM      3  H   UNL     1       8.041   0.186  -2.869  0.00  0.00    +0.000 HD
ENDROOT
BRANCH   1   4
ATOM      4  C   UNL     1       7.908  -1.364  -1.371  0.00  0.00    +0.000 C 
ATOM      5  H   UNL     1       7.040  -1.999  -1.155  0.00  0.00    +0.000 HD
ATOM      6  H   UNL     1       8.426  -1.183  -0.422  0.00  0.00    +0.000 HD
BRANCH   4   7
ATOM      7  C   UNL     1       8.860  -2.098  -2.320  0.00  0.00    +0.000 C 
ATOM      8  H   UNL     1       8.292  -2.827  -2.912  0.00  0.00    +0.000 HD
ATOM      9  H   UNL     1       9.589  -2.668  -1.730  0.00  0.00    +0.000 HD
BRANCH   7  10
ATOM     10  C   UNL     1       9.609  -1.161  -3.271  0.00  0.00    +0.000 C 
ATOM     11  H   UNL     1       8.888  -0.533  -3.805  0.00  0.00    +0.000 HD
ATOM     12  H   UNL     1      10.247  -0.487  -2.687  0.00  0.00    +0.000 HD
BRANCH  10  13
ATOM     13  C   UNL     1      10.472  -1.893  -4.287  0.00  0.00    +0.000 C 
ATOM     14  H   UNL     1      11.484  -1.474  -4.299  0.00  0.00    +0.000 HD
ATOM     15  H   UNL     1      10.053  -1.801  -5.293  0.00  0.00    +0.000 HD
ATOM     16  H   UNL     1      10.548  -2.957  -4.042  0.00  0.00    +0.000 HD
ENDBRANCH  10  13
ENDBRANCH   7  10
ENDBRANCH   4   7
ENDBRANCH   1   4
BRANCH   1  17
ATOM     17  C   UNL     1       5.955  -0.013  -2.377  0.00  0.00    +0.000 C 
ATOM     18  H   UNL     1       5.394   0.560  -1.628  0.00  0.00    +0.000 HD
BRANCH  17  19
ATOM     19  C   UNL     1       5.708   0.602  -3.758  0.00  0.00    +0.000 C 
ATOM     20  H   UNL     1       6.237   1.559  -3.837  0.00  0.00    +0.000 HD
ATOM     21  H   UNL     1       4.642   0.798  -3.908  0.00  0.00    +0.000 HD
BRANCH  19  22
ATOM     22  C   UNL     1       6.194  -0.304  -4.883  0.00  0.00    +0.000 C 
ATOM     23  H   UNL     1       5.430  -1.042  -5.150  0.00  0.00    +0.000 HD
ATOM     24  H   UNL     1       6.416   0.290  -5.774  0.00  0.00    +0.000 HD
ATOM     25  H   UNL     1       7.108  -0.838  -4.603  0.00  0.00    +0.000 HD
ENDBRANCH  19  22
ENDBRANCH  17  19
BRANCH  17  26
ATOM     26  O   UNL     1       5.431  -1.340  -2.360  0.00  0.00    +0.000 OA
ATOM     27  H   UNL     1       6.167  -1.943  -2.157  0.00  0.00    +0.000 HD
ENDBRANCH  17  26
ENDBRANCH   1  17
TORSDOF 8
ENDMDL
