MODEL 1
REMARK VINA RESULT:    -4.725      0.000      0.000
REMARK INTER + INTRA:          -6.112
REMARK INTER:                  -5.793
REMARK INTRA:                  -0.319
REMARK UNBOUND:                -0.144
REMARK  Name = 9862
REMARK  6 active torsions:
REMARK  status: ('A' for Active; 'I' for Inactive)
REMARK    1  A    between atoms: C_2  and  C_3
REMARK    2  A    between atoms: C_2  and  C_4
REMARK    3  A    between atoms: C_3  and  C_6
REMARK    4  A    between atoms: C_5  and  C_7
REMARK    5  A    between atoms: C_5  and  C_8
REMARK    6  A    between atoms: C_6  and  C_9
REMARK                            x       y       z     vdW  Elec       q    Type
REMARK                         _______ _______ _______ _____ _____    ______ ____
ROOT
ATOM      1  C   UNL     1       6.780  -1.682  -2.358  0.00  0.00    +0.000 C 
ATOM      2  H   UNL     1       6.141  -2.472  -1.945  0.00  0.00    +0.000 HD
ATOM      3  H   UNL     1       6.662  -0.828  -1.680  0.00  0.00    +0.000 HD
ENDROOT
BRANCH   1   4
ATOM      4  C   UNL     1       8.238  -2.134  -2.382  0.00  0.00    +0.000 C 
ATOM      5  H   UNL     1       8.344  -3.040  -2.991  0.00  0.00    +0.000 HD
ATOM      6  H   UNL     1       8.580  -2.360  -1.365  0.00  0.00    +0.000 HD
BRANCH   4   8
ATOM      7  O   UNL     1       9.227   0.069  -2.513  0.00  0.00    +0.000 OA
ATOM      8  C   UNL     1       9.166  -1.078  -2.956  0.00  0.00    +0.000 C 
BRANCH   8   9
ATOM      9  C   UNL     1      10.026  -1.509  -4.115  0.00  0.00    +0.000 C 
ATOM     10  H   UNL     1       9.672  -2.470  -4.496  0.00  0.00    +0.000 HD
ATOM     11  H   UNL     1       9.965  -0.767  -4.916  0.00  0.00    +0.000 HD
ATOM     12  H   UNL     1      11.066  -1.592  -3.789  0.00  0.00    +0.000 HD
ENDBRANCH   8   9
ENDBRANCH   4   8
ENDBRANCH   1   4
BRANCH   1  13
ATOM     13  C   UNL     1       6.315  -1.272  -3.727  0.00  0.00    +0.000 C 
ATOM     14  C   UNL     1       5.869  -0.063  -4.117  0.00  0.00    +0.000 C 
ATOM     15  H   UNL     1       6.364  -2.066  -4.470  0.00  0.00    +0.000 HD
BRANCH  14  16
ATOM     16  C   UNL     1       5.475   0.179  -5.549  0.00  0.00    +0.000 C 
ATOM     17  H   UNL     1       5.421   1.253  -5.751  0.00  0.00    +0.000 HD
ATOM     18  H   UNL     1       4.493  -0.263  -5.750  0.00  0.00    +0.000 HD
ATOM     19  H   UNL     1       6.186  -0.257  -6.258  0.00  0.00    +0.000 HD
ENDBRANCH  14  16
BRANCH  14  20
ATOM     20  C   UNL     1       5.709   1.130  -3.217  0.00  0.00    +0.000 C 
ATOM     21  H   UNL     1       6.034   2.065  -3.680  0.00  0.00    +0.000 HD
ATOM     22  H   UNL     1       6.305   0.998  -2.308  0.00  0.00    +0.000 HD
ATOM     23  H   UNL     1       4.659   1.246  -2.928  0.00  0.00    +0.000 HD
ENDBRANCH  14  20
ENDBRANCH   1  13
TORSDOF 6
ENDMDL
MODEL 2
REMARK VINA RESULT:    -4.623     15.452     16.353
REMARK INTER + INTRA:          -5.983
REMARK INTER:                  -5.848
REMARK INTRA:                  -0.135
REMARK UNBOUND:                -0.144
REMARK  Name = 9862
REMARK  6 active torsions:
REMARK  status: ('A' for Active; 'I' for Inactive)
REMARK    1  A    between atoms: C_2  and  C_3
REMARK    2  A    between atoms: C_2  and  C_4
REMARK    3  A    between atoms: C_3  and  C_6
REMARK    4  A    between atoms: C_5  and  C_7
REMARK    5  A    between atoms: C_5  and  C_8
REMARK    6  A    between atoms: C_6  and  C_9
REMARK                            x       y       z     vdW  Elec       q    Type
REMARK                         _______ _______ _______ _____ _____    ______ ____
ROOT
ATOM      1  C   UNL     1      -0.825 -13.082  -9.811  0.00  0.00    +0.000 C 
ATOM      2  H   UNL     1      -0.717 -14.109  -9.444  0.00  0.00    +0.000 HD
ATOM      3  H   UNL     1      -1.887 -12.974 -10.066  0.00  0.00    +0.000 HD
ENDROOT
BRANCH   1   4
ATOM      4  C   UNL     1      -0.446 -12.083  -8.720  0.00  0.00    +0.000 C 
ATOM      5  H   UNL     1      -0.950 -11.124  -8.893  0.00  0.00    +0.000 HD
ATOM      6  H   UNL     1       0.637 -11.910  -8.727  0.00  0.00    +0.000 HD
BRANCH   4   8
ATOM      7  O   UNL     1      -0.359 -12.075  -6.304  0.00  0.00    +0.000 OA
ATOM      8  C   UNL     1      -0.827 -12.564  -7.332  0.00  0.00    +0.000 C 
BRANCH   8   9
ATOM      9  C   UNL     1      -1.826 -13.690  -7.270  0.00  0.00    +0.000 C 
ATOM     10  H   UNL     1      -2.287 -13.824  -8.252  0.00  0.00    +0.000 HD
ATOM     11  H   UNL     1      -1.320 -14.618  -6.987  0.00  0.00    +0.000 HD
ATOM     12  H   UNL     1      -2.590 -13.462  -6.524  0.00  0.00    +0.000 HD
ENDBRANCH   8   9
ENDBRANCH   4   8
ENDBRANCH   1   4
BRANCH   1  13
ATOM     13  C   UNL     1      -0.012 -12.864 -11.055  0.00  0.00    +0.000 C 
ATOM     14  C   UNL     1      -0.237 -13.367 -12.284  0.00  0.00    +0.000 C 
ATOM     15  H   UNL     1       0.848 -12.212 -10.917  0.00  0.00    +0.000 HD
BRANCH  14  16
ATOM     16  C   UNL     1       0.670 -13.011 -13.431  0.00  0.00    +0.000 C 
ATOM     17  H   UNL     1       0.100 -12.523 -14.228  0.00  0.00    +0.000 HD
ATOM     18  H   UNL     1       1.135 -13.915 -13.840  0.00  0.00    +0.000 HD
ATOM     19  H   UNL     1       1.474 -12.330 -13.133  0.00  0.00    +0.000 HD
ENDBRANCH  14  16
BRANCH  14  20
ATOM     20  C   UNL     1      -1.356 -14.304 -12.643  0.00  0.00    +0.000 C 
ATOM     21  H   UNL     1      -1.724 -14.164 -13.662  0.00  0.00    +0.000 HD
ATOM     22  H   UNL     1      -2.207 -14.148 -11.971  0.00  0.00    +0.000 HD
ATOM     23  H   UNL     1      -1.024 -15.342 -12.545  0.00  0.00    +0.000 HD
ENDBRANCH  14  20
ENDBRANCH   1  13
TORSDOF 6
ENDMDL
MODEL 3
REMARK VINA RESULT:    -4.616      1.510      2.165
REMARK INTER + INTRA:          -5.974
REMARK INTER:                  -5.663
REMARK INTRA:                  -0.311
REMARK UNBOUND:                -0.144
REMARK  Name = 9862
REMARK  6 active torsions:
REMARK  status: ('A' for Active; 'I' for Inactive)
REMARK    1  A    between atoms: C_2  and  C_3
REMARK    2  A    between atoms: C_2  and  C_4
REMARK    3  A    between atoms: C_3  and  C_6
REMARK    4  A    between atoms: C_5  and  C_7
REMARK    5  A    between atoms: C_5  and  C_8
REMARK    6  A    between atoms: C_6  and  C_9
REMARK                            x       y       z     vdW  Elec       q    Type
REMARK                         _______ _______ _______ _____ _____    ______ ____
ROOT
ATOM      1  C   UNL     1       6.542  -1.907  -2.506  0.00  0.00    +0.000 C 
ATOM      2  H   UNL     1       6.342  -2.982  -2.431  0.00  0.00    +0.000 HD
ATOM      3  H   UNL     1       5.861  -1.434  -1.787  0.00  0.00    +0.000 HD
ENDROOT
BRANCH   1   4
ATOM      4  C   UNL     1       7.991  -1.605  -2.132  0.00  0.00    +0.000 C 
ATOM      5  H   UNL     1       8.380  -0.790  -2.753  0.00  0.00    +0.000 HD
ATOM      6  H   UNL     1       8.615  -2.492  -2.294  0.00  0.00    +0.000 HD
BRANCH   4   8
ATOM      7  O   UNL     1       9.086  -1.559   0.024  0.00  0.00    +0.000 OA
ATOM      8  C   UNL     1       8.143  -1.194  -0.678  0.00  0.00    +0.000 C 
BRANCH   8   9
ATOM      9  C   UNL     1       7.064  -0.301  -0.124  0.00  0.00    +0.000 C 
ATOM     10  H   UNL     1       6.696  -0.713   0.819  0.00  0.00    +0.000 HD
ATOM     11  H   UNL     1       7.470   0.698   0.061  0.00  0.00    +0.000 HD
ATOM     12  H   UNL     1       6.247  -0.222  -0.845  0.00  0.00    +0.000 HD
ENDBRANCH   8   9
ENDBRANCH   4   8
ENDBRANCH   1   4
BRANCH   1  13
ATOM     13  C   UNL     1       6.215  -1.391  -3.879  0.00  0.00    +0.000 C 
ATOM     14  C   UNL     1       5.848  -0.142  -4.224  0.00  0.00    +0.000 C 
ATOM     15  H   UNL     1       6.305  -2.137  -4.667  0.00  0.00    +0.000 HD
BRANCH  14  16
ATOM     16  C   UNL     1       5.593   0.206  -5.666  0.00  0.00    +0.000 C 
ATOM     17  H   UNL     1       6.410   0.819  -6.059  0.00  0.00    +0.000 HD
ATOM     18  H   UNL     1       4.659   0.770  -5.759  0.00  0.00    +0.000 HD
ATOM     19  H   UNL     1       5.509  -0.681  -6.302  0.00  0.00    +0.000 HD
ENDBRANCH  14  16
BRANCH  14  20
ATOM     20  C   UNL     1       5.648   0.996  -3.264  0.00  0.00    +0.000 C 
ATOM     21  H   UNL     1       4.964   0.753  -2.447  0.00  0.00    +0.000 HD
ATOM     22  H   UNL     1       5.228   1.861  -3.788  0.00  0.00    +0.000 HD
ATOM     23  H   UNL     1       6.607   1.290  -2.824  0.00  0.00    +0.000 HD
ENDBRANCH  14  20
ENDBRANCH   1  13
TORSDOF 6
ENDMDL
MODEL 4
REMARK VINA RESULT:    -4.609      3.122      4.187
REMARK INTER + INTRA:          -5.965
REMARK INTER:                  -5.784
REMARK INTRA:                  -0.181
REMARK UNBOUND:                -0.144
REMARK  Name = 9862
REMARK  6 active torsions:
REMARK  status: ('A' for Active; 'I' for Inactive)
REMARK    1  A    between atoms: C_2  and  C_3
REMARK    2  A    between atoms: C_2  and  C_4
REMARK    3  A    between atoms: C_3  and  C_6
REMARK    4  A    between atoms: C_5  and  C_7
REMARK    5  A    between atoms: C_5  and  C_8
REMARK    6  A    between atoms: C_6  and  C_9
REMARK                            x       y       z     vdW  Elec       q    Type
REMARK                         _______ _______ _______ _____ _____    ______ ____
ROOT
ATOM      1  C   UNL     1       7.313   1.054  -1.488  0.00  0.00    +0.000 C 
ATOM      2  H   UNL     1       8.279   1.539  -1.671  0.00  0.00    +0.000 HD
ATOM      3  H   UNL     1       7.544  -0.008  -1.341  0.00  0.00    +0.000 HD
ENDROOT
BRANCH   1   4
ATOM      4  C   UNL     1       6.658   1.625  -0.233  0.00  0.00    +0.000 C 
ATOM      5  H   UNL     1       7.147   1.228   0.664  0.00  0.00    +0.000 HD
ATOM      6  H   UNL     1       5.598   1.347  -0.200  0.00  0.00    +0.000 HD
BRANCH   4   8
ATOM      7  O   UNL     1       5.831   3.873  -0.565  0.00  0.00    +0.000 OA
ATOM      8  C   UNL     1       6.738   3.141  -0.172  0.00  0.00    +0.000 C 
BRANCH   8   9
ATOM      9  C   UNL     1       8.006   3.716   0.404  0.00  0.00    +0.000 C 
ATOM     10  H   UNL     1       8.527   4.295  -0.364  0.00  0.00    +0.000 HD
ATOM     11  H   UNL     1       7.765   4.375   1.242  0.00  0.00    +0.000 HD
ATOM     12  H   UNL     1       8.645   2.906   0.763  0.00  0.00    +0.000 HD
ENDBRANCH   8   9
ENDBRANCH   4   8
ENDBRANCH   1   4
BRANCH   1  13
ATOM     13  C   UNL     1       6.409   1.184  -2.681  0.00  0.00    +0.000 C 
ATOM     14  C   UNL     1       5.897   0.195  -3.439  0.00  0.00    +0.000 C 
ATOM     15  H   UNL     1       6.148   2.211  -2.932  0.00  0.00    +0.000 HD
BRANCH  14  16
ATOM     16  C   UNL     1       4.974   0.512  -4.584  0.00  0.00    +0.000 C 
ATOM     17  H   UNL     1       4.293  -0.326  -4.765  0.00  0.00    +0.000 HD
ATOM     18  H   UNL     1       5.551   0.694  -5.497  0.00  0.00    +0.000 HD
ATOM     19  H   UNL     1       4.363   1.401  -4.395  0.00  0.00    +0.000 HD
ENDBRANCH  14  16
BRANCH  14  20
ATOM     20  C   UNL     1       6.178  -1.269  -3.252  0.00  0.00    +0.000 C 
ATOM     21  H   UNL     1       6.906  -1.662  -3.966  0.00  0.00    +0.000 HD
ATOM     22  H   UNL     1       5.257  -1.848  -3.381  0.00  0.00    +0.000 HD
ATOM     23  H   UNL     1       6.564  -1.453  -2.244  0.00  0.00    +0.000 HD
ENDBRANCH  14  20
ENDBRANCH   1  13
TORSDOF 6
ENDMDL
MODEL 5
REMARK VINA RESULT:    -4.429      2.079      3.383
REMARK INTER + INTRA:          -5.738
REMARK INTER:                  -5.368
REMARK INTRA:                  -0.371
REMARK UNBOUND:                -0.144
REMARK  Name = 9862
REMARK  6 active torsions:
REMARK  status: ('A' for Active; 'I' for Inactive)
REMARK    1  A    between atoms: C_2  and  C_3
REMARK    2  A    between atoms: C_2  and  C_4
REMARK    3  A    between atoms: C_3  and  C_6
REMARK    4  A    between atoms: C_5  and  C_7
REMARK    5  A    between atoms: C_5  and  C_8
REMARK    6  A    between atoms: C_6  and  C_9
REMARK                            x       y       z     vdW  Elec       q    Type
REMARK                         _______ _______ _______ _____ _____    ______ ____
ROOT
ATOM      1  C   UNL     1       5.257   0.526  -3.402  0.00  0.00    +0.000 C 
ATOM      2  H   UNL     1       4.406   1.142  -3.716  0.00  0.00    +0.000 HD
ATOM      3  H   UNL     1       4.828  -0.264  -2.772  0.00  0.00    +0.000 HD
ENDROOT
BRANCH   1   4
ATOM      4  C   UNL     1       5.946  -0.091  -4.617  0.00  0.00    +0.000 C 
ATOM      5  H   UNL     1       6.451   0.688  -5.201  0.00  0.00    +0.000 HD
ATOM      6  H   UNL     1       5.207  -0.582  -5.261  0.00  0.00    +0.000 HD
BRANCH   4   8
ATOM      7  O   UNL     1       6.737  -2.079  -3.490  0.00  0.00    +0.000 OA
ATOM      8  C   UNL     1       6.985  -1.130  -4.233  0.00  0.00    +0.000 C 
BRANCH   8   9
ATOM      9  C   UNL     1       8.361  -0.940  -4.816  0.00  0.00    +0.000 C 
ATOM     10  H   UNL     1       9.057  -1.639  -4.346  0.00  0.00    +0.000 HD
ATOM     11  H   UNL     1       8.336  -1.135  -5.892  0.00  0.00    +0.000 HD
ATOM     12  H   UNL     1       8.690   0.089  -4.651  0.00  0.00    +0.000 HD
ENDBRANCH   8   9
ENDBRANCH   4   8
ENDBRANCH   1   4
BRANCH   1  13
ATOM     13  C   UNL     1       6.224   1.323  -2.574  0.00  0.00    +0.000 C 
ATOM     14  C   UNL     1       6.709   1.020  -1.354  0.00  0.00    +0.000 C 
ATOM     15  H   UNL     1       6.561   2.244  -3.046  0.00  0.00    +0.000 HD
BRANCH  14  16
ATOM     16  C   UNL     1       7.706   1.926  -0.684  0.00  0.00    +0.000 C 
ATOM     17  H   UNL     1       8.149   2.610  -1.414  0.00  0.00    +0.000 HD
ATOM     18  H   UNL     1       8.509   1.335  -0.229  0.00  0.00    +0.000 HD
ATOM     19  H   UNL     1       7.253   2.534   0.107  0.00  0.00    +0.000 HD
ENDBRANCH  14  16
BRANCH  14  20
ATOM     20  C   UNL     1       6.329  -0.191  -0.550  0.00  0.00    +0.000 C 
ATOM     21  H   UNL     1       5.680   0.044   0.298  0.00  0.00    +0.000 HD
ATOM     22  H   UNL     1       7.226  -0.670  -0.144  0.00  0.00    +0.000 HD
ATOM     23  H   UNL     1       5.806  -0.914  -1.183  0.00  0.00    +0.000 HD
ENDBRANCH  14  20
ENDBRANCH   1  13
TORSDOF 6
ENDMDL
MODEL 6
REMARK VINA RESULT:    -4.355      2.800      3.383
REMARK INTER + INTRA:          -5.644
REMARK INTER:                  -5.471
REMARK INTRA:                  -0.173
REMARK UNBOUND:                -0.144
REMARK  Name = 9862
REMARK  6 active torsions:
REMARK  status: ('A' for Active; 'I' for Inactive)
REMARK    1  A    between atoms: C_2  and  C_3
REMARK    2  A    between atoms: C_2  and  C_4
REMARK    3  A    between atoms: C_3  and  C_6
REMARK    4  A    between atoms: C_5  and  C_7
REMARK    5  A    between atoms: C_5  and  C_8
REMARK    6  A    between atoms: C_6  and  C_9
REMARK                            x       y       z     vdW  Elec       q    Type
REMARK                         _______ _______ _______ _____ _____    ______ ____
ROOT
ATOM      1  C   UNL     1       6.656   1.596  -1.467  0.00  0.00    +0.000 C 
ATOM      2  H   UNL     1       5.800   1.147  -0.949  0.00  0.00    +0.000 HD
ATOM      3  H   UNL     1       6.274   2.521  -1.914  0.00  0.00    +0.000 HD
ENDROOT
BRANCH   1   4
ATOM      4  C   UNL     1       7.771   1.916  -0.474  0.00  0.00    +0.000 C 
ATOM      5  H   UNL     1       7.477   2.755   0.167  0.00  0.00    +0.000 HD
ATOM      6  H   UNL     1       8.686   2.195  -1.011  0.00  0.00    +0.000 HD
BRANCH   4   8
ATOM      7  O   UNL     1       7.249  -0.014   0.886  0.00  0.00    +0.000 OA
ATOM      8  C   UNL     1       8.106   0.739   0.426  0.00  0.00    +0.000 C 
BRANCH   8   9
ATOM      9  C   UNL     1       9.566   0.533   0.733  0.00  0.00    +0.000 C 
ATOM     10  H   UNL     1      10.112   1.464   0.560  0.00  0.00    +0.000 HD
ATOM     11  H   UNL     1       9.686   0.243   1.781  0.00  0.00    +0.000 HD
ATOM     12  H   UNL     1       9.966  -0.262   0.099  0.00  0.00    +0.000 HD
ENDBRANCH   8   9
ENDBRANCH   4   8
ENDBRANCH   1   4
BRANCH   1  13
ATOM     13  C   UNL     1       7.149   0.702  -2.569  0.00  0.00    +0.000 C 
ATOM     14  C   UNL     1       6.489   0.326  -3.682  0.00  0.00    +0.000 C 
ATOM     15  H   UNL     1       8.166   0.341  -2.429  0.00  0.00    +0.000 HD
BRANCH  14  16
ATOM     16  C   UNL     1       7.157  -0.553  -4.704  0.00  0.00    +0.000 C 
ATOM     17  H   UNL     1       6.994  -1.608  -4.463  0.00  0.00    +0.000 HD
ATOM     18  H   UNL     1       8.235  -0.361  -4.721  0.00  0.00    +0.000 HD
ATOM     19  H   UNL     1       6.774  -0.382  -5.716  0.00  0.00    +0.000 HD
ENDBRANCH  14  16
BRANCH  14  20
ATOM     20  C   UNL     1       5.074   0.707  -4.017  0.00  0.00    +0.000 C 
ATOM     21  H   UNL     1       4.967   1.117  -5.024  0.00  0.00    +0.000 HD
ATOM     22  H   UNL     1       4.716   1.472  -3.320  0.00  0.00    +0.000 HD
ATOM     23  H   UNL     1       4.420  -0.167  -3.938  0.00  0.00    +0.000 HD
ENDBRANCH  14  20
ENDBRANCH   1  13
TORSDOF 6
ENDMDL
MODEL 7
REMARK VINA RESULT:    -4.268     15.710     16.572
REMARK INTER + INTRA:          -5.534
REMARK INTER:                  -5.431
REMARK INTRA:                  -0.103
REMARK UNBOUND:                -0.144
REMARK  Name = 9862
REMARK  6 active torsions:
REMARK  status: ('A' for Active; 'I' for Inactive)
REMARK    1  A    between atoms: C_2  and  C_3
REMARK    2  A    between atoms: C_2  and  C_4
REMARK    3  A    between atoms: C_3  and  C_6
REMARK    4  A    between atoms: C_5  and  C_7
REMARK    5  A    between atoms: C_5  and  C_8
REMARK    6  A    between atoms: C_6  and  C_9
REMARK                            x       y       z     vdW  Elec       q    Type
REMARK                         _______ _______ _______ _____ _____    ______ ____
ROOT
ATOM      1  C   UNL     1      -1.071 -13.122  -9.772  0.00  0.00    +0.000 C 
ATOM      2  H   UNL     1      -2.073 -12.762 -10.034  0.00  0.00    +0.000 HD
ATOM      3  H   UNL     1      -1.160 -14.214  -9.714  0.00  0.00    +0.000 HD
ENDROOT
BRANCH   1   4
ATOM      4  C   UNL     1      -0.066 -12.736 -10.854  0.00  0.00    +0.000 C 
ATOM      5  H   UNL     1       0.958 -12.869 -10.484  0.00  0.00    +0.000 HD
ATOM      6  H   UNL     1      -0.198 -11.685 -11.134  0.00  0.00    +0.000 HD
BRANCH   4   8
ATOM      7  O   UNL     1      -1.301 -14.003 -12.502  0.00  0.00    +0.000 OA
ATOM      8  C   UNL     1      -0.217 -13.571 -12.114  0.00  0.00    +0.000 C 
BRANCH   8   9
ATOM      9  C   UNL     1       1.050 -13.850 -12.881  0.00  0.00    +0.000 C 
ATOM     10  H   UNL     1       0.970 -14.821 -13.378  0.00  0.00    +0.000 HD
ATOM     11  H   UNL     1       1.201 -13.076 -13.638  0.00  0.00    +0.000 HD
ATOM     12  H   UNL     1       1.901 -13.846 -12.196  0.00  0.00    +0.000 HD
ENDBRANCH   8   9
ENDBRANCH   4   8
ENDBRANCH   1   4
BRANCH   1  13
ATOM     13  C   UNL     1      -0.647 -12.607  -8.426  0.00  0.00    +0.000 C 
ATOM     14  C   UNL     1      -1.085 -13.005  -7.216  0.00  0.00    +0.000 C 
ATOM     15  H   UNL     1       0.112 -11.828  -8.467  0.00  0.00    +0.000 HD
BRANCH  14  16
ATOM     16  C   UNL     1      -0.518 -12.396  -5.962  0.00  0.00    +0.000 C 
ATOM     17  H   UNL     1      -0.699 -11.317  -5.948  0.00  0.00    +0.000 HD
ATOM     18  H   UNL     1       0.562 -12.569  -5.913  0.00  0.00    +0.000 HD
ATOM     19  H   UNL     1      -0.962 -12.819  -5.055  0.00  0.00    +0.000 HD
ENDBRANCH  14  16
BRANCH  14  20
ATOM     20  C   UNL     1      -2.146 -14.042  -6.980  0.00  0.00    +0.000 C 
ATOM     21  H   UNL     1      -2.481 -14.531  -7.899  0.00  0.00    +0.000 HD
ATOM     22  H   UNL     1      -3.029 -13.581  -6.523  0.00  0.00    +0.000 HD
ATOM     23  H   UNL     1      -1.772 -14.817  -6.304  0.00  0.00    +0.000 HD
ENDBRANCH  14  20
ENDBRANCH   1  13
TORSDOF 6
ENDMDL
MODEL 8
REMARK VINA RESULT:    -4.058     24.458     25.739
REMARK INTER + INTRA:          -5.269
REMARK INTER:                  -5.120
REMARK INTRA:                  -0.149
REMARK UNBOUND:                -0.144
REMARK  Name = 9862
REMARK  6 active torsions:
REMARK  status: ('A' for Active; 'I' for Inactive)
REMARK    1  A    between atoms: C_2  and  C_3
REMARK    2  A    between atoms: C_2  and  C_4
REMARK    3  A    between atoms: C_3  and  C_6
REMARK    4  A    between atoms: C_5  and  C_7
REMARK    5  A    between atoms: C_5  and  C_8
REMARK    6  A    between atoms: C_6  and  C_9
REMARK                            x       y       z     vdW  Elec       q    Type
REMARK                         _______ _______ _______ _____ _____    ______ ____
ROOT
ATOM      1  C   UNL     1       1.132  -7.233  20.350  0.00  0.00    +0.000 C 
ATOM      2  H   UNL     1       1.008  -8.185  19.819  0.00  0.00    +0.000 HD
ATOM      3  H   UNL     1       1.643  -7.488  21.287  0.00  0.00    +0.000 HD
ENDROOT
BRANCH   1   4
ATOM      4  C   UNL     1       1.990  -6.273  19.530  0.00  0.00    +0.000 C 
ATOM      5  H   UNL     1       1.366  -5.731  18.809  0.00  0.00    +0.000 HD
ATOM      6  H   UNL     1       2.755  -6.829  18.975  0.00  0.00    +0.000 HD
BRANCH   4   8
ATOM      7  O   UNL     1       2.943  -4.103  20.007  0.00  0.00    +0.000 OA
ATOM      8  C   UNL     1       2.701  -5.246  20.393  0.00  0.00    +0.000 C 
BRANCH   8   9
ATOM      9  C   UNL     1       3.104  -5.702  21.771  0.00  0.00    +0.000 C 
ATOM     10  H   UNL     1       2.537  -6.596  22.041  0.00  0.00    +0.000 HD
ATOM     11  H   UNL     1       4.171  -5.943  21.783  0.00  0.00    +0.000 HD
ATOM     12  H   UNL     1       2.914  -4.903  22.491  0.00  0.00    +0.000 HD
ENDBRANCH   8   9
ENDBRANCH   4   8
ENDBRANCH   1   4
BRANCH   1  13
ATOM     13  C   UNL     1      -0.200  -6.625  20.684  0.00  0.00    +0.000 C 
ATOM     14  C   UNL     1      -1.376  -7.259  20.854  0.00  0.00    +0.000 C 
ATOM     15  H   UNL     1      -0.177  -5.543  20.806  0.00  0.00    +0.000 HD
BRANCH  14  16
ATOM     16  C   UNL     1      -2.613  -6.485  21.224  0.00  0.00    +0.000 C 
ATOM     17  H   UNL     1      -3.439  -7.171  21.439  0.00  0.00    +0.000 HD
ATOM     18  H   UNL     1      -2.910  -5.830  20.398  0.00  0.00    +0.000 HD
ATOM     19  H   UNL     1      -2.464  -5.857  22.109  0.00  0.00    +0.000 HD
ENDBRANCH  14  16
BRANCH  14  20
ATOM     20  C   UNL     1      -1.591  -8.737  20.693  0.00  0.00    +0.000 C 
ATOM     21  H   UNL     1      -0.661  -9.310  20.700  0.00  0.00    +0.000 HD
ATOM     22  H   UNL     1      -2.088  -8.944  19.739  0.00  0.00    +0.000 HD
ATOM     23  H   UNL     1      -2.225  -9.116  21.502  0.00  0.00    +0.000 HD
ENDBRANCH  14  20
ENDBRANCH   1  13
TORSDOF 6
ENDMDL
MODEL 9
REMARK VINA RESULT:    -4.039     15.694     16.525
REMARK INTER + INTRA:          -5.246
REMARK INTER:                  -5.023
REMARK INTRA:                  -0.223
REMARK UNBOUND:                -0.144
REMARK  Name = 9862
REMARK  6 active torsions:
REMARK  status: ('A' for Active; 'I' for Inactive)
REMARK    1  A    between atoms: C_2  and  C_3
REMARK    2  A    between atoms: C_2  and  C_4
REMARK    3  A    between atoms: C_3  and  C_6
REMARK    4  A    between atoms: C_5  and  C_7
REMARK    5  A    between atoms: C_5  and  C_8
REMARK    6  A    between atoms: C_6  and  C_9
REMARK                            x       y       z     vdW  Elec       q    Type
REMARK                         _______ _______ _______ _____ _____    ______ ____
ROOT
ATOM      1  C   UNL     1      -1.154 -14.596  -8.796  0.00  0.00    +0.000 C 
ATOM      2  H   UNL     1      -0.062 -14.541  -8.719  0.00  0.00    +0.000 HD
ATOM      3  H   UNL     1      -1.432 -15.543  -8.317  0.00  0.00    +0.000 HD
ENDROOT
BRANCH   1   4
ATOM      4  C   UNL     1      -1.801 -13.426  -8.059  0.00  0.00    +0.000 C 
ATOM      5  H   UNL     1      -2.486 -13.798  -7.288  0.00  0.00    +0.000 HD
ATOM      6  H   UNL     1      -2.373 -12.808  -8.761  0.00  0.00    +0.000 HD
BRANCH   4   8
ATOM      7  O   UNL     1      -0.093 -11.716  -7.998  0.00  0.00    +0.000 OA
ATOM      8  C   UNL     1      -0.780 -12.529  -7.382  0.00  0.00    +0.000 C 
BRANCH   8   9
ATOM      9  C   UNL     1      -0.648 -12.684  -5.889  0.00  0.00    +0.000 C 
ATOM     10  H   UNL     1      -1.452 -13.322  -5.514  0.00  0.00    +0.000 HD
ATOM     11  H   UNL     1       0.313 -13.149  -5.649  0.00  0.00    +0.000 HD
ATOM     12  H   UNL     1      -0.694 -11.702  -5.413  0.00  0.00    +0.000 HD
ENDBRANCH   8   9
ENDBRANCH   4   8
ENDBRANCH   1   4
BRANCH   1  13
ATOM     13  C   UNL     1      -1.591 -14.644 -10.233  0.00  0.00    +0.000 C 
ATOM     14  C   UNL     1      -1.061 -13.979 -11.278  0.00  0.00    +0.000 C 
ATOM     15  H   UNL     1      -2.431 -15.310 -10.421  0.00  0.00    +0.000 HD
BRANCH  14  16
ATOM     16  C   UNL     1      -1.610 -14.177 -12.665  0.00  0.00    +0.000 C 
ATOM     17  H   UNL     1      -1.075 -14.986 -13.173  0.00  0.00    +0.000 HD
ATOM     18  H   UNL     1      -1.493 -13.260 -13.252  0.00  0.00    +0.000 HD
ATOM     19  H   UNL     1      -2.674 -14.435 -12.661  0.00  0.00    +0.000 HD
ENDBRANCH  14  16
BRANCH  14  20
ATOM     20  C   UNL     1       0.076 -13.001 -11.192  0.00  0.00    +0.000 C 
ATOM     21  H   UNL     1       0.085 -12.279 -12.012  0.00  0.00    +0.000 HD
ATOM     22  H   UNL     1       1.033 -13.533 -11.222  0.00  0.00    +0.000 HD
ATOM     23  H   UNL     1       0.021 -12.441 -10.252  0.00  0.00    +0.000 HD
ENDBRANCH  14  20
ENDBRANCH   1  13
TORSDOF 6
ENDMDL
MODEL 10
REMARK VINA RESULT:    -3.879     24.661     26.074
REMARK INTER + INTRA:          -5.043
REMARK INTER:                  -4.899
REMARK INTRA:                  -0.144
REMARK UNBOUND:                -0.144
REMARK  Name = 9862
REMARK  6 active torsions:
REMARK  status: ('A' for Active; 'I' for Inactive)
REMARK    1  A    between atoms: C_2  and  C_3
REMARK    2  A    between atoms: C_2  and  C_4
REMARK    3  A    between atoms: C_3  and  C_6
REMARK    4  A    between atoms: C_5  and  C_7
REMARK    5  A    between atoms: C_5  and  C_8
REMARK    6  A    between atoms: C_6  and  C_9
REMARK                            x       y       z     vdW  Elec       q    Type
REMARK                         _______ _______ _______ _____ _____    ______ ____
ROOT
ATOM      1  C   UNL     1       0.581  -6.426  20.346  0.00  0.00    +0.000 C 
ATOM      2  H   UNL     1       0.809  -6.555  19.281  0.00  0.00    +0.000 HD
ATOM      3  H   UNL     1      -0.086  -5.557  20.398  0.00  0.00    +0.000 HD
ENDROOT
BRANCH   1   4
ATOM      4  C   UNL     1      -0.127  -7.663  20.893  0.00  0.00    +0.000 C 
ATOM      5  H   UNL     1       0.077  -7.772  21.965  0.00  0.00    +0.000 HD
ATOM      6  H   UNL     1       0.234  -8.562  20.380  0.00  0.00    +0.000 HD
BRANCH   4   8
ATOM      7  O   UNL     1      -2.275  -8.489  20.152  0.00  0.00    +0.000 OA
ATOM      8  C   UNL     1      -1.633  -7.601  20.710  0.00  0.00    +0.000 C 
BRANCH   8   9
ATOM      9  C   UNL     1      -2.318  -6.375  21.257  0.00  0.00    +0.000 C 
ATOM     10  H   UNL     1      -1.877  -5.480  20.810  0.00  0.00    +0.000 HD
ATOM     11  H   UNL     1      -3.383  -6.406  21.010  0.00  0.00    +0.000 HD
ATOM     12  H   UNL     1      -2.207  -6.347  22.343  0.00  0.00    +0.000 HD
ENDBRANCH   8   9
ENDBRANCH   4   8
ENDBRANCH   1   4
BRANCH   1  13
ATOM     13  C   UNL     1       1.825  -6.119  21.130  0.00  0.00    +0.000 C 
ATOM     14  C   UNL     1       2.875  -5.366  20.748  0.00  0.00    +0.000 C 
ATOM     15  H   UNL     1       1.847  -6.564  22.123  0.00  0.00    +0.000 HD
BRANCH  14  16
ATOM     16  C   UNL     1       4.029  -5.135  21.686  0.00  0.00    +0.000 C 
ATOM     17  H   UNL     1       3.682  -5.140  22.724  0.00  0.00    +0.000 HD
ATOM     18  H   UNL     1       4.496  -4.167  21.480  0.00  0.00    +0.000 HD
ATOM     19  H   UNL     1       4.804  -5.904  21.592  0.00  0.00    +0.000 HD
ENDBRANCH  14  16
BRANCH  14  20
ATOM     20  C   UNL     1       3.021  -4.706  19.406  0.00  0.00    +0.000 C 
ATOM     21  H   UNL     1       2.464  -3.769  19.325  0.00  0.00    +0.000 HD
ATOM     22  H   UNL     1       2.650  -5.369  18.618  0.00  0.00    +0.000 HD
ATOM     23  H   UNL     1       4.075  -4.488  19.207  0.00  0.00    +0.000 HD
ENDBRANCH  14  20
ENDBRANCH   1  13
TORSDOF 6
ENDMDL
