MODEL 1
REMARK VINA RESULT:    -5.676      0.000      0.000
REMARK INTER + INTRA:          -6.248
REMARK INTER:                  -6.172
REMARK INTRA:                  -0.077
REMARK UNBOUND:                -0.074
REMARK  Name = 7410
REMARK  2 active torsions:
REMARK  status: ('A' for Active; 'I' for Inactive)
REMARK    1  A    between atoms: C_2  and  C_5
REMARK    2  A    between atoms: C_5  and  C_9
REMARK                            x       y       z     vdW  Elec       q    Type
REMARK                         _______ _______ _______ _____ _____    ______ ____
ROOT
ATOM      1  C   UNL     1       7.594  -0.007  -3.332  0.00  0.00    +0.000 A 
ATOM      2  C   UNL     1       7.265  -0.559  -4.570  0.00  0.00    +0.000 A 
ATOM      3  C   UNL     1       6.699   0.851  -2.691  0.00  0.00    +0.000 A 
ATOM      4  C   UNL     1       6.042  -0.253  -5.167  0.00  0.00    +0.000 A 
ATOM      5  C   UNL     1       5.476   1.157  -3.289  0.00  0.00    +0.000 A 
ATOM      6  C   UNL     1       5.148   0.604  -4.527  0.00  0.00    +0.000 A 
ATOM      7  H   UNL     1       7.927  -1.231  -5.106  0.00  0.00    +0.000 HD
ATOM      8  H   UNL     1       6.934   1.292  -1.727  0.00  0.00    +0.000 HD
ATOM      9  H   UNL     1       5.786  -0.683  -6.131  0.00  0.00    +0.000 HD
ATOM     10  H   UNL     1       4.780   1.825  -2.791  0.00  0.00    +0.000 HD
ATOM     11  H   UNL     1       4.196   0.843  -4.993  0.00  0.00    +0.000 HD
ENDROOT
BRANCH   1  13
ATOM     12  O   UNL     1       9.620   0.527  -2.212  0.00  0.00    +0.000 OA
ATOM     13  C   UNL     1       8.867  -0.325  -2.709  0.00  0.00    +0.000 C 
BRANCH  13  14
ATOM     14  C   UNL     1       9.319  -1.775  -2.652  0.00  0.00    +0.000 C 
ATOM     15  H   UNL     1       9.723  -2.087  -3.618  0.00  0.00    +0.000 HD
ATOM     16  H   UNL     1       8.456  -2.412  -2.431  0.00  0.00    +0.000 HD
ATOM     17  H   UNL     1      10.050  -1.917  -1.852  0.00  0.00    +0.000 HD
ENDBRANCH  13  14
ENDBRANCH   1  13
TORSDOF 2
ENDMDL
MODEL 2
REMARK VINA RESULT:    -5.316      1.426      2.251
REMARK INTER + INTRA:          -5.856
REMARK INTER:                  -5.777
REMARK INTRA:                  -0.079
REMARK UNBOUND:                -0.074
REMARK  Name = 7410
REMARK  2 active torsions:
REMARK  status: ('A' for Active; 'I' for Inactive)
REMARK    1  A    between atoms: C_2  and  C_5
REMARK    2  A    between atoms: C_5  and  C_9
REMARK                            x       y       z     vdW  Elec       q    Type
REMARK                         _______ _______ _______ _____ _____    ______ ____
ROOT
ATOM      1  C   UNL     1       7.145   0.529  -2.671  0.00  0.00    +0.000 A 
ATOM      2  C   UNL     1       5.894   1.102  -2.902  0.00  0.00    +0.000 A 
ATOM      3  C   UNL     1       7.720  -0.303  -3.631  0.00  0.00    +0.000 A 
ATOM      4  C   UNL     1       5.219   0.842  -4.095  0.00  0.00    +0.000 A 
ATOM      5  C   UNL     1       7.044  -0.563  -4.824  0.00  0.00    +0.000 A 
ATOM      6  C   UNL     1       5.793   0.010  -5.055  0.00  0.00    +0.000 A 
ATOM      7  H   UNL     1       5.408   1.755  -2.186  0.00  0.00    +0.000 HD
ATOM      8  H   UNL     1       8.693  -0.760  -3.472  0.00  0.00    +0.000 HD
ATOM      9  H   UNL     1       4.245   1.287  -4.276  0.00  0.00    +0.000 HD
ATOM     10  H   UNL     1       7.491  -1.211  -5.572  0.00  0.00    +0.000 HD
ATOM     11  H   UNL     1       5.267  -0.192  -5.984  0.00  0.00    +0.000 HD
ENDROOT
BRANCH   1  13
ATOM     12  O   UNL     1       7.287   0.885  -0.326  0.00  0.00    +0.000 OA
ATOM     13  C   UNL     1       7.850   0.799  -1.429  0.00  0.00    +0.000 C 
BRANCH  13  14
ATOM     14  C   UNL     1       9.357   0.990  -1.462  0.00  0.00    +0.000 C 
ATOM     15  H   UNL     1       9.850   0.251  -0.826  0.00  0.00    +0.000 HD
ATOM     16  H   UNL     1       9.602   1.983  -1.069  0.00  0.00    +0.000 HD
ATOM     17  H   UNL     1       9.725   0.940  -2.490  0.00  0.00    +0.000 HD
ENDBRANCH  13  14
ENDBRANCH   1  13
TORSDOF 2
ENDMDL
MODEL 3
REMARK VINA RESULT:    -5.125     16.560     17.693
REMARK INTER + INTRA:          -5.649
REMARK INTER:                  -5.566
REMARK INTRA:                  -0.083
REMARK UNBOUND:                -0.074
REMARK  Name = 7410
REMARK  2 active torsions:
REMARK  status: ('A' for Active; 'I' for Inactive)
REMARK    1  A    between atoms: C_2  and  C_5
REMARK    2  A    between atoms: C_5  and  C_9
REMARK                            x       y       z     vdW  Elec       q    Type
REMARK                         _______ _______ _______ _____ _____    ______ ____
ROOT
ATOM      1  C   UNL     1      -0.945 -13.656 -10.683  0.00  0.00    +0.000 A 
ATOM      2  C   UNL     1      -0.363 -12.523 -10.114  0.00  0.00    +0.000 A 
ATOM      3  C   UNL     1      -1.602 -14.583  -9.873  0.00  0.00    +0.000 A 
ATOM      4  C   UNL     1      -0.438 -12.317  -8.737  0.00  0.00    +0.000 A 
ATOM      5  C   UNL     1      -1.677 -14.377  -8.495  0.00  0.00    +0.000 A 
ATOM      6  C   UNL     1      -1.095 -13.243  -7.927  0.00  0.00    +0.000 A 
ATOM      7  H   UNL     1       0.158 -11.775 -10.702  0.00  0.00    +0.000 HD
ATOM      8  H   UNL     1      -2.063 -15.472 -10.294  0.00  0.00    +0.000 HD
ATOM      9  H   UNL     1       0.015 -11.435  -8.293  0.00  0.00    +0.000 HD
ATOM     10  H   UNL     1      -2.189 -15.098  -7.865  0.00  0.00    +0.000 HD
ATOM     11  H   UNL     1      -1.153 -13.083  -6.855  0.00  0.00    +0.000 HD
ENDROOT
BRANCH   1  13
ATOM     12  O   UNL     1      -1.686 -14.553 -12.754  0.00  0.00    +0.000 OA
ATOM     13  C   UNL     1      -0.868 -13.871 -12.118  0.00  0.00    +0.000 C 
BRANCH  13  14
ATOM     14  C   UNL     1       0.270 -13.234 -12.898  0.00  0.00    +0.000 C 
ATOM     15  H   UNL     1       0.173 -13.456 -13.964  0.00  0.00    +0.000 HD
ATOM     16  H   UNL     1       1.221 -13.656 -12.555  0.00  0.00    +0.000 HD
ATOM     17  H   UNL     1       0.300 -12.156 -12.718  0.00  0.00    +0.000 HD
ENDBRANCH  13  14
ENDBRANCH   1  13
TORSDOF 2
ENDMDL
MODEL 4
REMARK VINA RESULT:    -4.982     16.045     17.112
REMARK INTER + INTRA:          -5.493
REMARK INTER:                  -5.409
REMARK INTRA:                  -0.084
REMARK UNBOUND:                -0.074
REMARK  Name = 7410
REMARK  2 active torsions:
REMARK  status: ('A' for Active; 'I' for Inactive)
REMARK    1  A    between atoms: C_2  and  C_5
REMARK    2  A    between atoms: C_5  and  C_9
REMARK                            x       y       z     vdW  Elec       q    Type
REMARK                         _______ _______ _______ _____ _____    ______ ____
ROOT
ATOM      1  C   UNL     1      -0.707 -13.150 -10.012  0.00  0.00    +0.000 A 
ATOM      2  C   UNL     1      -1.587 -14.058 -10.601  0.00  0.00    +0.000 A 
ATOM      3  C   UNL     1       0.279 -12.534 -10.782  0.00  0.00    +0.000 A 
ATOM      4  C   UNL     1      -1.480 -14.350 -11.961  0.00  0.00    +0.000 A 
ATOM      5  C   UNL     1       0.386 -12.826 -12.142  0.00  0.00    +0.000 A 
ATOM      6  C   UNL     1      -0.494 -13.734 -12.732  0.00  0.00    +0.000 A 
ATOM      7  H   UNL     1      -2.369 -14.562 -10.043  0.00  0.00    +0.000 HD
ATOM      8  H   UNL     1       0.976 -11.824 -10.345  0.00  0.00    +0.000 HD
ATOM      9  H   UNL     1      -2.164 -15.057 -12.421  0.00  0.00    +0.000 HD
ATOM     10  H   UNL     1       1.154 -12.347 -12.742  0.00  0.00    +0.000 HD
ATOM     11  H   UNL     1      -0.411 -13.961 -13.790  0.00  0.00    +0.000 HD
ENDROOT
BRANCH   1  13
ATOM     12  O   UNL     1      -0.262 -11.875  -8.057  0.00  0.00    +0.000 OA
ATOM     13  C   UNL     1      -0.817 -12.846  -8.595  0.00  0.00    +0.000 C 
BRANCH  13  14
ATOM     14  C   UNL     1      -1.653 -13.754  -7.709  0.00  0.00    +0.000 C 
ATOM     15  H   UNL     1      -2.607 -13.278  -7.467  0.00  0.00    +0.000 HD
ATOM     16  H   UNL     1      -1.120 -13.928  -6.768  0.00  0.00    +0.000 HD
ATOM     17  H   UNL     1      -1.804 -14.724  -8.190  0.00  0.00    +0.000 HD
ENDBRANCH  13  14
ENDBRANCH   1  13
TORSDOF 2
ENDMDL
MODEL 5
REMARK VINA RESULT:    -4.867      8.177      8.838
REMARK INTER + INTRA:          -5.367
REMARK INTER:                  -5.295
REMARK INTRA:                  -0.072
REMARK UNBOUND:                -0.074
REMARK  Name = 7410
REMARK  2 active torsions:
REMARK  status: ('A' for Active; 'I' for Inactive)
REMARK    1  A    between atoms: C_2  and  C_5
REMARK    2  A    between atoms: C_5  and  C_9
REMARK                            x       y       z     vdW  Elec       q    Type
REMARK                         _______ _______ _______ _____ _____    ______ ____
ROOT
ATOM      1  C   UNL     1      10.195   7.789  -2.242  0.00  0.00    +0.000 A 
ATOM      2  C   UNL     1       9.619   7.661  -3.506  0.00  0.00    +0.000 A 
ATOM      3  C   UNL     1      11.583   7.806  -2.107  0.00  0.00    +0.000 A 
ATOM      4  C   UNL     1      10.431   7.550  -4.635  0.00  0.00    +0.000 A 
ATOM      5  C   UNL     1      12.396   7.696  -3.236  0.00  0.00    +0.000 A 
ATOM      6  C   UNL     1      11.819   7.568  -4.500  0.00  0.00    +0.000 A 
ATOM      7  H   UNL     1       8.545   7.642  -3.660  0.00  0.00    +0.000 HD
ATOM      8  H   UNL     1      12.055   7.905  -1.133  0.00  0.00    +0.000 HD
ATOM      9  H   UNL     1       9.982   7.451  -5.619  0.00  0.00    +0.000 HD
ATOM     10  H   UNL     1      13.476   7.710  -3.132  0.00  0.00    +0.000 HD
ATOM     11  H   UNL     1      12.451   7.482  -5.379  0.00  0.00    +0.000 HD
ENDROOT
BRANCH   1  13
ATOM     12  O   UNL     1       8.597   8.867  -0.854  0.00  0.00    +0.000 OA
ATOM     13  C   UNL     1       9.350   7.904  -1.065  0.00  0.00    +0.000 C 
BRANCH  13  14
ATOM     14  C   UNL     1       9.376   6.795  -0.027  0.00  0.00    +0.000 C 
ATOM     15  H   UNL     1       8.643   6.023  -0.274  0.00  0.00    +0.000 HD
ATOM     16  H   UNL     1       9.106   7.210   0.950  0.00  0.00    +0.000 HD
ATOM     17  H   UNL     1      10.382   6.374   0.058  0.00  0.00    +0.000 HD
ENDBRANCH  13  14
ENDBRANCH   1  13
TORSDOF 2
ENDMDL
MODEL 6
REMARK VINA RESULT:    -4.757      7.874      8.661
REMARK INTER + INTRA:          -5.249
REMARK INTER:                  -5.167
REMARK INTRA:                  -0.082
REMARK UNBOUND:                -0.074
REMARK  Name = 7410
REMARK  2 active torsions:
REMARK  status: ('A' for Active; 'I' for Inactive)
REMARK    1  A    between atoms: C_2  and  C_5
REMARK    2  A    between atoms: C_5  and  C_9
REMARK                            x       y       z     vdW  Elec       q    Type
REMARK                         _______ _______ _______ _____ _____    ______ ____
ROOT
ATOM      1  C   UNL     1      13.427   5.454  -4.425  0.00  0.00    +0.000 A 
ATOM      2  C   UNL     1      13.867   6.734  -4.765  0.00  0.00    +0.000 A 
ATOM      3  C   UNL     1      12.442   5.292  -3.452  0.00  0.00    +0.000 A 
ATOM      4  C   UNL     1      13.321   7.850  -4.132  0.00  0.00    +0.000 A 
ATOM      5  C   UNL     1      11.895   6.408  -2.818  0.00  0.00    +0.000 A 
ATOM      6  C   UNL     1      12.335   7.688  -3.158  0.00  0.00    +0.000 A 
ATOM      7  H   UNL     1      14.631   6.910  -5.515  0.00  0.00    +0.000 HD
ATOM      8  H   UNL     1      12.084   4.305  -3.171  0.00  0.00    +0.000 HD
ATOM      9  H   UNL     1      13.663   8.847  -4.396  0.00  0.00    +0.000 HD
ATOM     10  H   UNL     1      11.128   6.281  -2.061  0.00  0.00    +0.000 HD
ATOM     11  H   UNL     1      11.910   8.557  -2.665  0.00  0.00    +0.000 HD
ENDROOT
BRANCH   1  13
ATOM     12  O   UNL     1      13.379   3.227  -5.250  0.00  0.00    +0.000 OA
ATOM     13  C   UNL     1      13.996   4.291  -5.085  0.00  0.00    +0.000 C 
BRANCH  13  14
ATOM     14  C   UNL     1      15.421   4.362  -5.608  0.00  0.00    +0.000 C 
ATOM     15  H   UNL     1      15.858   5.340  -5.392  0.00  0.00    +0.000 HD
ATOM     16  H   UNL     1      15.411   4.234  -6.696  0.00  0.00    +0.000 HD
ATOM     17  H   UNL     1      16.024   3.555  -5.183  0.00  0.00    +0.000 HD
ENDBRANCH  13  14
ENDBRANCH   1  13
TORSDOF 2
ENDMDL
MODEL 7
REMARK VINA RESULT:    -4.698      8.028      9.177
REMARK INTER + INTRA:          -5.184
REMARK INTER:                  -5.106
REMARK INTRA:                  -0.078
REMARK UNBOUND:                -0.074
REMARK  Name = 7410
REMARK  2 active torsions:
REMARK  status: ('A' for Active; 'I' for Inactive)
REMARK    1  A    between atoms: C_2  and  C_5
REMARK    2  A    between atoms: C_5  and  C_9
REMARK                            x       y       z     vdW  Elec       q    Type
REMARK                         _______ _______ _______ _____ _____    ______ ____
ROOT
ATOM      1  C   UNL     1      13.453   6.118  -4.468  0.00  0.00    +0.000 A 
ATOM      2  C   UNL     1      12.765   5.096  -3.814  0.00  0.00    +0.000 A 
ATOM      3  C   UNL     1      14.528   5.812  -5.303  0.00  0.00    +0.000 A 
ATOM      4  C   UNL     1      13.152   3.768  -3.995  0.00  0.00    +0.000 A 
ATOM      5  C   UNL     1      14.915   4.484  -5.484  0.00  0.00    +0.000 A 
ATOM      6  C   UNL     1      14.226   3.461  -4.830  0.00  0.00    +0.000 A 
ATOM      7  H   UNL     1      11.924   5.284  -3.155  0.00  0.00    +0.000 HD
ATOM      8  H   UNL     1      15.078   6.591  -5.822  0.00  0.00    +0.000 HD
ATOM      9  H   UNL     1      12.617   2.971  -3.486  0.00  0.00    +0.000 HD
ATOM     10  H   UNL     1      15.751   4.245  -6.134  0.00  0.00    +0.000 HD
ATOM     11  H   UNL     1      14.527   2.428  -4.971  0.00  0.00    +0.000 HD
ENDROOT
BRANCH   1  13
ATOM     12  O   UNL     1      13.854   8.432  -4.111  0.00  0.00    +0.000 OA
ATOM     13  C   UNL     1      13.051   7.501  -4.280  0.00  0.00    +0.000 C 
BRANCH  13  14
ATOM     14  C   UNL     1      11.571   7.846  -4.287  0.00  0.00    +0.000 C 
ATOM     15  H   UNL     1      10.966   6.936  -4.280  0.00  0.00    +0.000 HD
ATOM     16  H   UNL     1      11.334   8.396  -5.205  0.00  0.00    +0.000 HD
ATOM     17  H   UNL     1      11.325   8.493  -3.440  0.00  0.00    +0.000 HD
ENDBRANCH  13  14
ENDBRANCH   1  13
TORSDOF 2
ENDMDL
MODEL 8
REMARK VINA RESULT:    -4.656      7.846      8.894
REMARK INTER + INTRA:          -5.139
REMARK INTER:                  -5.068
REMARK INTRA:                  -0.070
REMARK UNBOUND:                -0.074
REMARK  Name = 7410
REMARK  2 active torsions:
REMARK  status: ('A' for Active; 'I' for Inactive)
REMARK    1  A    between atoms: C_2  and  C_5
REMARK    2  A    between atoms: C_5  and  C_9
REMARK                            x       y       z     vdW  Elec       q    Type
REMARK                         _______ _______ _______ _____ _____    ______ ____
ROOT
ATOM      1  C   UNL     1      11.533   6.832  -4.180  0.00  0.00    +0.000 A 
ATOM      2  C   UNL     1      12.504   7.668  -4.732  0.00  0.00    +0.000 A 
ATOM      3  C   UNL     1      11.869   5.537  -3.787  0.00  0.00    +0.000 A 
ATOM      4  C   UNL     1      13.811   7.207  -4.891  0.00  0.00    +0.000 A 
ATOM      5  C   UNL     1      13.177   5.077  -3.945  0.00  0.00    +0.000 A 
ATOM      6  C   UNL     1      14.148   5.912  -4.497  0.00  0.00    +0.000 A 
ATOM      7  H   UNL     1      12.290   8.682  -5.052  0.00  0.00    +0.000 HD
ATOM      8  H   UNL     1      11.129   4.869  -3.354  0.00  0.00    +0.000 HD
ATOM      9  H   UNL     1      14.568   7.857  -5.320  0.00  0.00    +0.000 HD
ATOM     10  H   UNL     1      13.439   4.068  -3.639  0.00  0.00    +0.000 HD
ATOM     11  H   UNL     1      15.166   5.554  -4.621  0.00  0.00    +0.000 HD
ENDROOT
BRANCH   1  13
ATOM     12  O   UNL     1       9.704   7.688  -2.928  0.00  0.00    +0.000 OA
ATOM     13  C   UNL     1      10.171   7.311  -4.014  0.00  0.00    +0.000 C 
BRANCH  13  14
ATOM     14  C   UNL     1       9.254   7.359  -5.225  0.00  0.00    +0.000 C 
ATOM     15  H   UNL     1       9.209   8.373  -5.630  0.00  0.00    +0.000 HD
ATOM     16  H   UNL     1       8.240   7.078  -4.920  0.00  0.00    +0.000 HD
ATOM     17  H   UNL     1       9.583   6.642  -5.983  0.00  0.00    +0.000 HD
ENDBRANCH  13  14
ENDBRANCH   1  13
TORSDOF 2
ENDMDL
MODEL 9
REMARK VINA RESULT:    -4.635     15.606     16.634
REMARK INTER + INTRA:          -5.115
REMARK INTER:                  -5.032
REMARK INTRA:                  -0.083
REMARK UNBOUND:                -0.074
REMARK  Name = 7410
REMARK  2 active torsions:
REMARK  status: ('A' for Active; 'I' for Inactive)
REMARK    1  A    between atoms: C_2  and  C_5
REMARK    2  A    between atoms: C_5  and  C_9
REMARK                            x       y       z     vdW  Elec       q    Type
REMARK                         _______ _______ _______ _____ _____    ______ ____
ROOT
ATOM      1  C   UNL     1      -0.897 -13.188  -8.570  0.00  0.00    +0.000 A 
ATOM      2  C   UNL     1      -1.553 -14.247  -7.943  0.00  0.00    +0.000 A 
ATOM      3  C   UNL     1      -0.342 -12.162  -7.806  0.00  0.00    +0.000 A 
ATOM      4  C   UNL     1      -1.653 -14.280  -6.552  0.00  0.00    +0.000 A 
ATOM      5  C   UNL     1      -0.441 -12.195  -6.415  0.00  0.00    +0.000 A 
ATOM      6  C   UNL     1      -1.097 -13.255  -5.788  0.00  0.00    +0.000 A 
ATOM      7  H   UNL     1      -2.001 -15.067  -8.494  0.00  0.00    +0.000 HD
ATOM      8  H   UNL     1       0.174 -11.327  -8.273  0.00  0.00    +0.000 HD
ATOM      9  H   UNL     1      -2.163 -15.105  -6.063  0.00  0.00    +0.000 HD
ATOM     10  H   UNL     1      -0.008 -11.396  -5.820  0.00  0.00    +0.000 HD
ATOM     11  H   UNL     1      -1.174 -13.280  -4.705  0.00  0.00    +0.000 HD
ENDROOT
BRANCH   1  13
ATOM     12  O   UNL     1       0.076 -12.511 -10.629  0.00  0.00    +0.000 OA
ATOM     13  C   UNL     1      -0.794 -13.153 -10.019  0.00  0.00    +0.000 C 
BRANCH  13  14
ATOM     14  C   UNL     1      -1.795 -13.938 -10.850  0.00  0.00    +0.000 C 
ATOM     15  H   UNL     1      -1.379 -14.907 -11.134  0.00  0.00    +0.000 HD
ATOM     16  H   UNL     1      -2.011 -13.385 -11.770  0.00  0.00    +0.000 HD
ATOM     17  H   UNL     1      -2.736 -14.054 -10.304  0.00  0.00    +0.000 HD
ENDBRANCH  13  14
ENDBRANCH   1  13
TORSDOF 2
ENDMDL
MODEL 10
REMARK VINA RESULT:    -4.612      7.698      9.034
REMARK INTER + INTRA:          -5.091
REMARK INTER:                  -5.017
REMARK INTRA:                  -0.074
REMARK UNBOUND:                -0.074
REMARK  Name = 7410
REMARK  2 active torsions:
REMARK  status: ('A' for Active; 'I' for Inactive)
REMARK    1  A    between atoms: C_2  and  C_5
REMARK    2  A    between atoms: C_5  and  C_9
REMARK                            x       y       z     vdW  Elec       q    Type
REMARK                         _______ _______ _______ _____ _____    ______ ____
ROOT
ATOM      1  C   UNL     1      14.754   3.586  -4.181  0.00  0.00    +0.000 A 
ATOM      2  C   UNL     1      14.459   4.187  -5.405  0.00  0.00    +0.000 A 
ATOM      3  C   UNL     1      16.009   3.766  -3.600  0.00  0.00    +0.000 A 
ATOM      4  C   UNL     1      15.421   4.967  -6.048  0.00  0.00    +0.000 A 
ATOM      5  C   UNL     1      16.971   4.546  -4.243  0.00  0.00    +0.000 A 
ATOM      6  C   UNL     1      16.676   5.147  -5.467  0.00  0.00    +0.000 A 
ATOM      7  H   UNL     1      13.498   4.077  -5.895  0.00  0.00    +0.000 HD
ATOM      8  H   UNL     1      16.260   3.308  -2.647  0.00  0.00    +0.000 HD
ATOM      9  H   UNL     1      15.193   5.435  -7.001  0.00  0.00    +0.000 HD
ATOM     10  H   UNL     1      17.948   4.686  -3.791  0.00  0.00    +0.000 HD
ATOM     11  H   UNL     1      17.425   5.754  -5.968  0.00  0.00    +0.000 HD
ENDROOT
BRANCH   1  13
ATOM     12  O   UNL     1      12.632   3.197  -3.184  0.00  0.00    +0.000 OA
ATOM     13  C   UNL     1      13.753   2.774  -3.511  0.00  0.00    +0.000 C 
BRANCH  13  14
ATOM     14  C   UNL     1      14.077   1.326  -3.183  0.00  0.00    +0.000 C 
ATOM     15  H   UNL     1      13.640   0.658  -3.930  0.00  0.00    +0.000 HD
ATOM     16  H   UNL     1      13.639   1.070  -2.212  0.00  0.00    +0.000 HD
ATOM     17  H   UNL     1      15.158   1.184  -3.107  0.00  0.00    +0.000 HD
ENDBRANCH  13  14
ENDBRANCH   1  13
TORSDOF 2
ENDMDL
