MODEL 1
REMARK VINA RESULT:    -5.016      0.000      0.000
REMARK INTER + INTRA:          -7.786
REMARK INTER:                  -6.587
REMARK INTRA:                  -1.200
REMARK UNBOUND:                -0.865
REMARK  Name = 5365976
REMARK  8 active torsions:
REMARK  status: ('A' for Active; 'I' for Inactive)
REMARK    1  A    between atoms: C_2  and  C_7
REMARK    2  A    between atoms: C_2  and  C_8
REMARK    3  A    between atoms: C_3  and  C_10
REMARK    4  A    between atoms: C_6  and  C_11
REMARK    5  A    between atoms: C_12  and  C_13
REMARK    6  A    between atoms: C_13  and  C_14
REMARK    7  A    between atoms: C_14  and  C_15
REMARK    8  A    between atoms: C_15  and  C_16
REMARK                            x       y       z     vdW  Elec       q    Type
REMARK                         _______ _______ _______ _____ _____    ______ ____
ROOT
ATOM      1  C   UNL     1       3.898  15.562  -9.850  0.00  0.00    +0.000 C 
ATOM      2  C   UNL     1       5.226  15.794 -10.655  0.00  0.00    +0.000 C 
ATOM      3  C   UNL     1       4.115  14.430  -8.818  0.00  0.00    +0.000 C 
ATOM      4  C   UNL     1       5.280  14.704  -7.862  0.00  0.00    +0.000 C 
ATOM      5  C   UNL     1       6.443  15.899  -9.745  0.00  0.00    +0.000 C 
ATOM      6  C   UNL     1       6.447  15.398  -8.497  0.00  0.00    +0.000 C 
ATOM      7  H   UNL     1       5.116  16.765 -11.161  0.00  0.00    +0.000 HD
ATOM      8  H   UNL     1       4.306  13.485  -9.342  0.00  0.00    +0.000 HD
ATOM      9  H   UNL     1       3.203  14.265  -8.231  0.00  0.00    +0.000 HD
ATOM     10  H   UNL     1       5.614  13.755  -7.428  0.00  0.00    +0.000 HD
ATOM     11  H   UNL     1       4.928  15.322  -7.027  0.00  0.00    +0.000 HD
ATOM     12  H   UNL     1       7.333  15.506  -7.877  0.00  0.00    +0.000 HD
ENDROOT
BRANCH   1  13
ATOM     13  C   UNL     1       3.490  16.870  -9.127  0.00  0.00    +0.000 C 
ATOM     14  H   UNL     1       4.359  17.344  -8.657  0.00  0.00    +0.000 HD
ATOM     15  H   UNL     1       3.040  17.605  -9.801  0.00  0.00    +0.000 HD
ATOM     16  H   UNL     1       2.758  16.666  -8.337  0.00  0.00    +0.000 HD
ENDBRANCH   1  13
BRANCH   1  17
ATOM     17  C   UNL     1       2.722  15.181 -10.776  0.00  0.00    +0.000 C 
ATOM     18  H   UNL     1       1.899  14.740 -10.202  0.00  0.00    +0.000 HD
ATOM     19  H   UNL     1       2.330  16.060 -11.299  0.00  0.00    +0.000 HD
ATOM     20  H   UNL     1       3.015  14.441 -11.529  0.00  0.00    +0.000 HD
ENDBRANCH   1  17
BRANCH   2  21
ATOM     21  C   UNL     1       5.476  14.738 -11.701  0.00  0.00    +0.000 C 
ATOM     22  C   UNL     1       5.594  15.007 -13.006  0.00  0.00    +0.000 C 
ATOM     23  H   UNL     1       5.567  13.711 -11.350  0.00  0.00    +0.000 HD
ATOM     24  H   UNL     1       5.511  16.020 -13.387  0.00  0.00    +0.000 HD
BRANCH  22  26
ATOM     25  O   UNL     1       6.325  14.146 -15.100  0.00  0.00    +0.000 OA
ATOM     26  C   UNL     1       5.841  13.918 -13.993  0.00  0.00    +0.000 C 
BRANCH  26  27
ATOM     27  C   UNL     1       5.451  12.522 -13.537  0.00  0.00    +0.000 C 
ATOM     28  H   UNL     1       6.176  11.814 -13.956  0.00  0.00    +0.000 HD
ATOM     29  H   UNL     1       5.523  12.489 -12.442  0.00  0.00    +0.000 HD
BRANCH  27  30
ATOM     30  C   UNL     1       4.038  12.140 -13.976  0.00  0.00    +0.000 C 
ATOM     31  H   UNL     1       4.068  11.205 -14.551  0.00  0.00    +0.000 HD
ATOM     32  H   UNL     1       3.641  12.907 -14.651  0.00  0.00    +0.000 HD
BRANCH  30  33
ATOM     33  C   UNL     1       3.116  12.014 -12.800  0.00  0.00    +0.000 C 
ATOM     34  C   UNL     1       3.508  11.630 -11.580  0.00  0.00    +0.000 C 
ATOM     35  H   UNL     1       2.065  12.236 -12.963  0.00  0.00    +0.000 HD
ATOM     36  H   UNL     1       2.788  11.552 -10.773  0.00  0.00    +0.000 HD
ATOM     37  H   UNL     1       4.543  11.389 -11.365  0.00  0.00    +0.000 HD
ENDBRANCH  30  33
ENDBRANCH  27  30
ENDBRANCH  26  27
ENDBRANCH  22  26
ENDBRANCH   2  21
BRANCH   5  38
ATOM     38  C   UNL     1       7.647  16.606 -10.304  0.00  0.00    +0.000 C 
ATOM     39  H   UNL     1       8.566  16.072 -10.045  0.00  0.00    +0.000 HD
ATOM     40  H   UNL     1       7.739  17.628  -9.921  0.00  0.00    +0.000 HD
ATOM     41  H   UNL     1       7.576  16.668 -11.395  0.00  0.00    +0.000 HD
ENDBRANCH   5  38
TORSDOF 8
ENDMDL
MODEL 2
REMARK VINA RESULT:    -4.911     36.871     39.365
REMARK INTER + INTRA:          -7.642
REMARK INTER:                  -7.117
REMARK INTRA:                  -0.525
REMARK UNBOUND:                -0.865
REMARK  Name = 5365976
REMARK  8 active torsions:
REMARK  status: ('A' for Active; 'I' for Inactive)
REMARK    1  A    between atoms: C_2  and  C_7
REMARK    2  A    between atoms: C_2  and  C_8
REMARK    3  A    between atoms: C_3  and  C_10
REMARK    4  A    between atoms: C_6  and  C_11
REMARK    5  A    between atoms: C_12  and  C_13
REMARK    6  A    between atoms: C_13  and  C_14
REMARK    7  A    between atoms: C_14  and  C_15
REMARK    8  A    between atoms: C_15  and  C_16
REMARK                            x       y       z     vdW  Elec       q    Type
REMARK                         _______ _______ _______ _____ _____    ______ ____
ROOT
ATOM      1  C   UNL     1     -19.541 -14.791   5.199  0.00  0.00    +0.000 C 
ATOM      2  C   UNL     1     -19.686 -13.256   5.492  0.00  0.00    +0.000 C 
ATOM      3  C   UNL     1     -18.654 -15.439   6.289  0.00  0.00    +0.000 C 
ATOM      4  C   UNL     1     -19.184 -15.213   7.707  0.00  0.00    +0.000 C 
ATOM      5  C   UNL     1     -20.044 -12.975   6.945  0.00  0.00    +0.000 C 
ATOM      6  C   UNL     1     -19.806 -13.866   7.924  0.00  0.00    +0.000 C 
ATOM      7  H   UNL     1     -20.526 -12.901   4.877  0.00  0.00    +0.000 HD
ATOM      8  H   UNL     1     -17.636 -15.034   6.226  0.00  0.00    +0.000 HD
ATOM      9  H   UNL     1     -18.556 -16.518   6.112  0.00  0.00    +0.000 HD
ATOM     10  H   UNL     1     -18.364 -15.353   8.420  0.00  0.00    +0.000 HD
ATOM     11  H   UNL     1     -19.935 -15.977   7.943  0.00  0.00    +0.000 HD
ATOM     12  H   UNL     1     -20.089 -13.630   8.947  0.00  0.00    +0.000 HD
ENDROOT
BRANCH   1  13
ATOM     13  C   UNL     1     -20.940 -15.456   5.187  0.00  0.00    +0.000 C 
ATOM     14  H   UNL     1     -20.882 -16.482   4.802  0.00  0.00    +0.000 HD
ATOM     15  H   UNL     1     -21.395 -15.505   6.180  0.00  0.00    +0.000 HD
ATOM     16  H   UNL     1     -21.630 -14.901   4.541  0.00  0.00    +0.000 HD
ENDBRANCH   1  13
BRANCH   1  17
ATOM     17  C   UNL     1     -18.911 -15.057   3.814  0.00  0.00    +0.000 C 
ATOM     18  H   UNL     1     -18.920 -16.127   3.579  0.00  0.00    +0.000 HD
ATOM     19  H   UNL     1     -19.464 -14.538   3.023  0.00  0.00    +0.000 HD
ATOM     20  H   UNL     1     -17.866 -14.731   3.768  0.00  0.00    +0.000 HD
ENDBRANCH   1  17
BRANCH   2  21
ATOM     21  C   UNL     1     -18.458 -12.464   5.120  0.00  0.00    +0.000 C 
ATOM     22  C   UNL     1     -18.497 -11.350   4.382  0.00  0.00    +0.000 C 
ATOM     23  H   UNL     1     -17.504 -12.836   5.489  0.00  0.00    +0.000 HD
ATOM     24  H   UNL     1     -19.431 -10.952   4.001  0.00  0.00    +0.000 HD
BRANCH  22  26
ATOM     25  O   UNL     1     -16.136 -11.052   4.335  0.00  0.00    +0.000 OA
ATOM     26  C   UNL     1     -17.246 -10.609   4.047  0.00  0.00    +0.000 C 
BRANCH  26  27
ATOM     27  C   UNL     1     -17.444  -9.282   3.336  0.00  0.00    +0.000 C 
ATOM     28  H   UNL     1     -18.462  -8.933   3.547  0.00  0.00    +0.000 HD
ATOM     29  H   UNL     1     -16.734  -8.559   3.757  0.00  0.00    +0.000 HD
BRANCH  27  30
ATOM     30  C   UNL     1     -17.237  -9.393   1.826  0.00  0.00    +0.000 C 
ATOM     31  H   UNL     1     -17.933  -8.724   1.304  0.00  0.00    +0.000 HD
ATOM     32  H   UNL     1     -17.476 -10.411   1.494  0.00  0.00    +0.000 HD
BRANCH  30  33
ATOM     33  C   UNL     1     -15.818  -9.089   1.445  0.00  0.00    +0.000 C 
ATOM     34  C   UNL     1     -15.053  -9.896   0.702  0.00  0.00    +0.000 C 
ATOM     35  H   UNL     1     -15.390  -8.161   1.814  0.00  0.00    +0.000 HD
ATOM     36  H   UNL     1     -14.031  -9.621   0.469  0.00  0.00    +0.000 HD
ATOM     37  H   UNL     1     -15.429 -10.838   0.316  0.00  0.00    +0.000 HD
ENDBRANCH  30  33
ENDBRANCH  27  30
ENDBRANCH  26  27
ENDBRANCH  22  26
ENDBRANCH   2  21
BRANCH   5  38
ATOM     38  C   UNL     1     -20.697 -11.652   7.238  0.00  0.00    +0.000 C 
ATOM     39  H   UNL     1     -19.943 -10.877   7.408  0.00  0.00    +0.000 HD
ATOM     40  H   UNL     1     -21.333 -11.694   8.128  0.00  0.00    +0.000 HD
ATOM     41  H   UNL     1     -21.326 -11.346   6.395  0.00  0.00    +0.000 HD
ENDBRANCH   5  38
TORSDOF 8
ENDMDL
MODEL 3
REMARK VINA RESULT:    -4.850     44.252     46.155
REMARK INTER + INTRA:          -7.558
REMARK INTER:                  -6.714
REMARK INTRA:                  -0.844
REMARK UNBOUND:                -0.865
REMARK  Name = 5365976
REMARK  8 active torsions:
REMARK  status: ('A' for Active; 'I' for Inactive)
REMARK    1  A    between atoms: C_2  and  C_7
REMARK    2  A    between atoms: C_2  and  C_8
REMARK    3  A    between atoms: C_3  and  C_10
REMARK    4  A    between atoms: C_6  and  C_11
REMARK    5  A    between atoms: C_12  and  C_13
REMARK    6  A    between atoms: C_13  and  C_14
REMARK    7  A    between atoms: C_14  and  C_15
REMARK    8  A    between atoms: C_15  and  C_16
REMARK                            x       y       z     vdW  Elec       q    Type
REMARK                         _______ _______ _______ _____ _____    ______ ____
ROOT
ATOM      1  C   UNL     1     -15.546 -10.826  18.362  0.00  0.00    +0.000 C 
ATOM      2  C   UNL     1     -15.891 -11.915  19.440  0.00  0.00    +0.000 C 
ATOM      3  C   UNL     1     -15.484 -11.490  16.965  0.00  0.00    +0.000 C 
ATOM      4  C   UNL     1     -16.774 -12.224  16.591  0.00  0.00    +0.000 C 
ATOM      5  C   UNL     1     -17.068 -12.788  19.024  0.00  0.00    +0.000 C 
ATOM      6  C   UNL     1     -17.444 -12.916  17.739  0.00  0.00    +0.000 C 
ATOM      7  H   UNL     1     -16.196 -11.369  20.345  0.00  0.00    +0.000 HD
ATOM      8  H   UNL     1     -14.651 -12.204  16.933  0.00  0.00    +0.000 HD
ATOM      9  H   UNL     1     -15.263 -10.740  16.194  0.00  0.00    +0.000 HD
ATOM     10  H   UNL     1     -16.552 -12.956  15.806  0.00  0.00    +0.000 HD
ATOM     11  H   UNL     1     -17.488 -11.511  16.159  0.00  0.00    +0.000 HD
ATOM     12  H   UNL     1     -18.299 -13.539  17.488  0.00  0.00    +0.000 HD
ENDROOT
BRANCH   1  13
ATOM     13  C   UNL     1     -16.627  -9.716  18.376  0.00  0.00    +0.000 C 
ATOM     14  H   UNL     1     -17.528 -10.041  17.843  0.00  0.00    +0.000 HD
ATOM     15  H   UNL     1     -16.930  -9.432  19.388  0.00  0.00    +0.000 HD
ATOM     16  H   UNL     1     -16.261  -8.810  17.881  0.00  0.00    +0.000 HD
ENDBRANCH   1  13
BRANCH   1  17
ATOM     17  C   UNL     1     -14.196 -10.135  18.652  0.00  0.00    +0.000 C 
ATOM     18  H   UNL     1     -14.342  -9.074  18.885  0.00  0.00    +0.000 HD
ATOM     19  H   UNL     1     -13.692 -10.597  19.509  0.00  0.00    +0.000 HD
ATOM     20  H   UNL     1     -13.518 -10.181  17.793  0.00  0.00    +0.000 HD
ENDBRANCH   1  17
BRANCH   2  21
ATOM     21  C   UNL     1     -14.717 -12.795  19.787  0.00  0.00    +0.000 C 
ATOM     22  C   UNL     1     -14.482 -13.973  19.199  0.00  0.00    +0.000 C 
ATOM     23  H   UNL     1     -14.038 -12.428  20.554  0.00  0.00    +0.000 HD
ATOM     24  H   UNL     1     -15.138 -14.366  18.429  0.00  0.00    +0.000 HD
BRANCH  22  26
ATOM     25  O   UNL     1     -12.817 -15.630  18.821  0.00  0.00    +0.000 OA
ATOM     26  C   UNL     1     -13.302 -14.800  19.585  0.00  0.00    +0.000 C 
BRANCH  26  27
ATOM     27  C   UNL     1     -12.756 -14.545  20.980  0.00  0.00    +0.000 C 
ATOM     28  H   UNL     1     -11.689 -14.800  20.977  0.00  0.00    +0.000 HD
ATOM     29  H   UNL     1     -12.858 -13.474  21.196  0.00  0.00    +0.000 HD
BRANCH  27  30
ATOM     30  C   UNL     1     -13.482 -15.362  22.048  0.00  0.00    +0.000 C 
ATOM     31  H   UNL     1     -12.806 -16.123  22.458  0.00  0.00    +0.000 HD
ATOM     32  H   UNL     1     -14.321 -15.902  21.593  0.00  0.00    +0.000 HD
BRANCH  30  33
ATOM     33  C   UNL     1     -14.018 -14.481  23.138  0.00  0.00    +0.000 C 
ATOM     34  C   UNL     1     -15.295 -14.094  23.227  0.00  0.00    +0.000 C 
ATOM     35  H   UNL     1     -13.314 -14.130  23.887  0.00  0.00    +0.000 HD
ATOM     36  H   UNL     1     -15.617 -13.449  24.037  0.00  0.00    +0.000 HD
ATOM     37  H   UNL     1     -16.036 -14.409  22.501  0.00  0.00    +0.000 HD
ENDBRANCH  30  33
ENDBRANCH  27  30
ENDBRANCH  26  27
ENDBRANCH  22  26
ENDBRANCH   2  21
BRANCH   5  38
ATOM     38  C   UNL     1     -17.808 -13.495  20.127  0.00  0.00    +0.000 C 
ATOM     39  H   UNL     1     -18.226 -14.441  19.769  0.00  0.00    +0.000 HD
ATOM     40  H   UNL     1     -18.636 -12.895  20.518  0.00  0.00    +0.000 HD
ATOM     41  H   UNL     1     -17.131 -13.707  20.961  0.00  0.00    +0.000 HD
ENDBRANCH   5  38
TORSDOF 8
ENDMDL
MODEL 4
REMARK VINA RESULT:    -4.667     32.797     35.029
REMARK INTER + INTRA:          -7.305
REMARK INTER:                  -6.348
REMARK INTRA:                  -0.957
REMARK UNBOUND:                -0.865
REMARK  Name = 5365976
REMARK  8 active torsions:
REMARK  status: ('A' for Active; 'I' for Inactive)
REMARK    1  A    between atoms: C_2  and  C_7
REMARK    2  A    between atoms: C_2  and  C_8
REMARK    3  A    between atoms: C_3  and  C_10
REMARK    4  A    between atoms: C_6  and  C_11
REMARK    5  A    between atoms: C_12  and  C_13
REMARK    6  A    between atoms: C_13  and  C_14
REMARK    7  A    between atoms: C_14  and  C_15
REMARK    8  A    between atoms: C_15  and  C_16
REMARK                            x       y       z     vdW  Elec       q    Type
REMARK                         _______ _______ _______ _____ _____    ______ ____
ROOT
ATOM      1  C   UNL     1     -16.988 -11.198   1.577  0.00  0.00    +0.000 C 
ATOM      2  C   UNL     1     -17.170 -11.039   0.025  0.00  0.00    +0.000 C 
ATOM      3  C   UNL     1     -15.801 -10.324   2.046  0.00  0.00    +0.000 C 
ATOM      4  C   UNL     1     -15.958  -8.847   1.674  0.00  0.00    +0.000 C 
ATOM      5  C   UNL     1     -17.157  -9.580  -0.413  0.00  0.00    +0.000 C 
ATOM      6  C   UNL     1     -16.604  -8.613   0.341  0.00  0.00    +0.000 C 
ATOM      7  H   UNL     1     -18.166 -11.440  -0.212  0.00  0.00    +0.000 HD
ATOM      8  H   UNL     1     -14.869 -10.699   1.605  0.00  0.00    +0.000 HD
ATOM      9  H   UNL     1     -15.669 -10.406   3.133  0.00  0.00    +0.000 HD
ATOM     10  H   UNL     1     -14.972  -8.369   1.688  0.00  0.00    +0.000 HD
ATOM     11  H   UNL     1     -16.561  -8.340   2.438  0.00  0.00    +0.000 HD
ATOM     12  H   UNL     1     -16.628  -7.582  -0.004  0.00  0.00    +0.000 HD
ENDROOT
BRANCH   1  13
ATOM     13  C   UNL     1     -18.287 -10.765   2.302  0.00  0.00    +0.000 C 
ATOM     14  H   UNL     1     -18.066 -10.059   3.112  0.00  0.00    +0.000 HD
ATOM     15  H   UNL     1     -19.005 -10.281   1.634  0.00  0.00    +0.000 HD
ATOM     16  H   UNL     1     -18.791 -11.630   2.748  0.00  0.00    +0.000 HD
ENDBRANCH   1  13
BRANCH   1  17
ATOM     17  C   UNL     1     -16.723 -12.665   1.979  0.00  0.00    +0.000 C 
ATOM     18  H   UNL     1     -16.752 -13.322   1.102  0.00  0.00    +0.000 HD
ATOM     19  H   UNL     1     -15.737 -12.775   2.444  0.00  0.00    +0.000 HD
ATOM     20  H   UNL     1     -17.474 -13.041   2.682  0.00  0.00    +0.000 HD
ENDBRANCH   1  17
BRANCH   2  21
ATOM     21  C   UNL     1     -16.146 -11.806  -0.771  0.00  0.00    +0.000 C 
ATOM     22  C   UNL     1     -16.465 -12.677  -1.735  0.00  0.00    +0.000 C 
ATOM     23  H   UNL     1     -15.100 -11.621  -0.535  0.00  0.00    +0.000 HD
ATOM     24  H   UNL     1     -17.498 -12.882  -1.997  0.00  0.00    +0.000 HD
BRANCH  22  26
ATOM     25  O   UNL     1     -15.564 -13.749  -3.659  0.00  0.00    +0.000 OA
ATOM     26  C   UNL     1     -15.406 -13.407  -2.490  0.00  0.00    +0.000 C 
BRANCH  26  27
ATOM     27  C   UNL     1     -14.133 -13.697  -1.712  0.00  0.00    +0.000 C 
ATOM     28  H   UNL     1     -14.190 -13.160  -0.757  0.00  0.00    +0.000 HD
ATOM     29  H   UNL     1     -14.098 -14.774  -1.504  0.00  0.00    +0.000 HD
BRANCH  27  30
ATOM     30  C   UNL     1     -12.877 -13.273  -2.472  0.00  0.00    +0.000 C 
ATOM     31  H   UNL     1     -12.893 -13.699  -3.484  0.00  0.00    +0.000 HD
ATOM     32  H   UNL     1     -11.989 -13.682  -1.976  0.00  0.00    +0.000 HD
BRANCH  30  33
ATOM     33  C   UNL     1     -12.749 -11.779  -2.524  0.00  0.00    +0.000 C 
ATOM     34  C   UNL     1     -12.560 -11.007  -1.448  0.00  0.00    +0.000 C 
ATOM     35  H   UNL     1     -12.831 -11.305  -3.498  0.00  0.00    +0.000 HD
ATOM     36  H   UNL     1     -12.483  -9.930  -1.553  0.00  0.00    +0.000 HD
ATOM     37  H   UNL     1     -12.479 -11.429  -0.453  0.00  0.00    +0.000 HD
ENDBRANCH  30  33
ENDBRANCH  27  30
ENDBRANCH  26  27
ENDBRANCH  22  26
ENDBRANCH   2  21
BRANCH   5  38
ATOM     38  C   UNL     1     -17.810  -9.264  -1.730  0.00  0.00    +0.000 C 
ATOM     39  H   UNL     1     -18.546 -10.030  -1.992  0.00  0.00    +0.000 HD
ATOM     40  H   UNL     1     -17.084  -9.210  -2.547  0.00  0.00    +0.000 HD
ATOM     41  H   UNL     1     -18.320  -8.296  -1.676  0.00  0.00    +0.000 HD
ENDBRANCH   5  38
TORSDOF 8
ENDMDL
MODEL 5
REMARK VINA RESULT:    -4.638     32.968     34.920
REMARK INTER + INTRA:          -7.265
REMARK INTER:                  -6.654
REMARK INTRA:                  -0.611
REMARK UNBOUND:                -0.865
REMARK  Name = 5365976
REMARK  8 active torsions:
REMARK  status: ('A' for Active; 'I' for Inactive)
REMARK    1  A    between atoms: C_2  and  C_7
REMARK    2  A    between atoms: C_2  and  C_8
REMARK    3  A    between atoms: C_3  and  C_10
REMARK    4  A    between atoms: C_6  and  C_11
REMARK    5  A    between atoms: C_12  and  C_13
REMARK    6  A    between atoms: C_13  and  C_14
REMARK    7  A    between atoms: C_14  and  C_15
REMARK    8  A    between atoms: C_15  and  C_16
REMARK                            x       y       z     vdW  Elec       q    Type
REMARK                         _______ _______ _______ _____ _____    ______ ____
ROOT
ATOM      1  C   UNL     1     -17.926 -11.770   1.038  0.00  0.00    +0.000 C 
ATOM      2  C   UNL     1     -17.283 -10.498   0.381  0.00  0.00    +0.000 C 
ATOM      3  C   UNL     1     -16.869 -12.486   1.913  0.00  0.00    +0.000 C 
ATOM      4  C   UNL     1     -16.263 -11.578   2.986  0.00  0.00    +0.000 C 
ATOM      5  C   UNL     1     -16.516  -9.651   1.388  0.00  0.00    +0.000 C 
ATOM      6  C   UNL     1     -16.063 -10.157   2.549  0.00  0.00    +0.000 C 
ATOM      7  H   UNL     1     -18.117  -9.885   0.011  0.00  0.00    +0.000 HD
ATOM      8  H   UNL     1     -16.060 -12.866   1.276  0.00  0.00    +0.000 HD
ATOM      9  H   UNL     1     -17.306 -13.369   2.398  0.00  0.00    +0.000 HD
ATOM     10  H   UNL     1     -15.302 -11.997   3.305  0.00  0.00    +0.000 HD
ATOM     11  H   UNL     1     -16.911 -11.574   3.871  0.00  0.00    +0.000 HD
ATOM     12  H   UNL     1     -15.532  -9.514   3.246  0.00  0.00    +0.000 HD
ENDROOT
BRANCH   1  13
ATOM     13  C   UNL     1     -19.140 -11.353   1.906  0.00  0.00    +0.000 C 
ATOM     14  H   UNL     1     -20.052 -11.295   1.301  0.00  0.00    +0.000 HD
ATOM     15  H   UNL     1     -19.336 -12.052   2.726  0.00  0.00    +0.000 HD
ATOM     16  H   UNL     1     -18.978 -10.366   2.354  0.00  0.00    +0.000 HD
ENDBRANCH   1  13
BRANCH   1  17
ATOM     17  C   UNL     1     -18.457 -12.761  -0.021  0.00  0.00    +0.000 C 
ATOM     18  H   UNL     1     -18.392 -12.329  -1.027  0.00  0.00    +0.000 HD
ATOM     19  H   UNL     1     -17.876 -13.689  -0.020  0.00  0.00    +0.000 HD
ATOM     20  H   UNL     1     -19.509 -13.017   0.146  0.00  0.00    +0.000 HD
ENDBRANCH   1  17
BRANCH   2  21
ATOM     21  C   UNL     1     -16.381 -10.826  -0.781  0.00  0.00    +0.000 C 
ATOM     22  C   UNL     1     -16.550 -10.321  -2.009  0.00  0.00    +0.000 C 
ATOM     23  H   UNL     1     -15.553 -11.505  -0.585  0.00  0.00    +0.000 HD
ATOM     24  H   UNL     1     -17.363  -9.640  -2.237  0.00  0.00    +0.000 HD
BRANCH  22  26
ATOM     25  O   UNL     1     -15.609 -10.060  -4.179  0.00  0.00    +0.000 OA
ATOM     26  C   UNL     1     -15.624 -10.684  -3.120  0.00  0.00    +0.000 C 
BRANCH  26  27
ATOM     27  C   UNL     1     -14.714 -11.870  -2.850  0.00  0.00    +0.000 C 
ATOM     28  H   UNL     1     -14.744 -12.082  -1.775  0.00  0.00    +0.000 HD
ATOM     29  H   UNL     1     -15.115 -12.738  -3.388  0.00  0.00    +0.000 HD
BRANCH  27  30
ATOM     30  C   UNL     1     -13.273 -11.609  -3.288  0.00  0.00    +0.000 C 
ATOM     31  H   UNL     1     -12.813 -10.862  -2.627  0.00  0.00    +0.000 HD
ATOM     32  H   UNL     1     -13.264 -11.179  -4.297  0.00  0.00    +0.000 HD
BRANCH  30  33
ATOM     33  C   UNL     1     -12.469 -12.875  -3.303  0.00  0.00    +0.000 C 
ATOM     34  C   UNL     1     -11.418 -13.104  -2.506  0.00  0.00    +0.000 C 
ATOM     35  H   UNL     1     -12.755 -13.640  -4.018  0.00  0.00    +0.000 HD
ATOM     36  H   UNL     1     -10.874 -14.038  -2.572  0.00  0.00    +0.000 HD
ATOM     37  H   UNL     1     -11.086 -12.370  -1.780  0.00  0.00    +0.000 HD
ENDBRANCH  30  33
ENDBRANCH  27  30
ENDBRANCH  26  27
ENDBRANCH  22  26
ENDBRANCH   2  21
BRANCH   5  38
ATOM     38  C   UNL     1     -16.299  -8.206   1.031  0.00  0.00    +0.000 C 
ATOM     39  H   UNL     1     -15.609  -8.115   0.187  0.00  0.00    +0.000 HD
ATOM     40  H   UNL     1     -15.879  -7.635   1.865  0.00  0.00    +0.000 HD
ATOM     41  H   UNL     1     -17.250  -7.738   0.755  0.00  0.00    +0.000 HD
ENDBRANCH   5  38
TORSDOF 8
ENDMDL
MODEL 6
REMARK VINA RESULT:    -4.583     26.828     29.418
REMARK INTER + INTRA:          -7.189
REMARK INTER:                  -6.705
REMARK INTRA:                  -0.484
REMARK UNBOUND:                -0.865
REMARK  Name = 5365976
REMARK  8 active torsions:
REMARK  status: ('A' for Active; 'I' for Inactive)
REMARK    1  A    between atoms: C_2  and  C_7
REMARK    2  A    between atoms: C_2  and  C_8
REMARK    3  A    between atoms: C_3  and  C_10
REMARK    4  A    between atoms: C_6  and  C_11
REMARK    5  A    between atoms: C_12  and  C_13
REMARK    6  A    between atoms: C_13  and  C_14
REMARK    7  A    between atoms: C_14  and  C_15
REMARK    8  A    between atoms: C_15  and  C_16
REMARK                            x       y       z     vdW  Elec       q    Type
REMARK                         _______ _______ _______ _____ _____    ______ ____
ROOT
ATOM      1  C   UNL     1      -5.525  15.141  16.797  0.00  0.00    +0.000 C 
ATOM      2  C   UNL     1      -5.708  13.625  17.162  0.00  0.00    +0.000 C 
ATOM      3  C   UNL     1      -6.102  15.401  15.385  0.00  0.00    +0.000 C 
ATOM      4  C   UNL     1      -7.572  14.992  15.252  0.00  0.00    +0.000 C 
ATOM      5  C   UNL     1      -7.120  13.128  16.879  0.00  0.00    +0.000 C 
ATOM      6  C   UNL     1      -7.938  13.754  16.014  0.00  0.00    +0.000 C 
ATOM      7  H   UNL     1      -5.549  13.546  18.248  0.00  0.00    +0.000 HD
ATOM      8  H   UNL     1      -5.516  14.850  14.639  0.00  0.00    +0.000 HD
ATOM      9  H   UNL     1      -6.001  16.461  15.119  0.00  0.00    +0.000 HD
ATOM     10  H   UNL     1      -7.806  14.848  14.192  0.00  0.00    +0.000 HD
ATOM     11  H   UNL     1      -8.212  15.811  15.604  0.00  0.00    +0.000 HD
ATOM     12  H   UNL     1      -8.943  13.373  15.852  0.00  0.00    +0.000 HD
ENDROOT
BRANCH   1  13
ATOM     13  C   UNL     1      -6.255  16.022  17.841  0.00  0.00    +0.000 C 
ATOM     14  H   UNL     1      -7.292  15.690  17.976  0.00  0.00    +0.000 HD
ATOM     15  H   UNL     1      -5.775  16.003  18.824  0.00  0.00    +0.000 HD
ATOM     16  H   UNL     1      -6.285  17.068  17.516  0.00  0.00    +0.000 HD
ENDBRANCH   1  13
BRANCH   1  17
ATOM     17  C   UNL     1      -4.040  15.564  16.820  0.00  0.00    +0.000 C 
ATOM     18  H   UNL     1      -3.446  14.942  16.139  0.00  0.00    +0.000 HD
ATOM     19  H   UNL     1      -3.922  16.607  16.505  0.00  0.00    +0.000 HD
ATOM     20  H   UNL     1      -3.597  15.457  17.816  0.00  0.00    +0.000 HD
ENDBRANCH   1  17
BRANCH   2  21
ATOM     21  C   UNL     1      -4.716  12.726  16.469  0.00  0.00    +0.000 C 
ATOM     22  C   UNL     1      -3.956  11.834  17.114  0.00  0.00    +0.000 C 
ATOM     23  H   UNL     1      -4.637  12.823  15.388  0.00  0.00    +0.000 HD
ATOM     24  H   UNL     1      -4.012  11.712  18.191  0.00  0.00    +0.000 HD
BRANCH  22  26
ATOM     25  O   UNL     1      -1.777  11.081  16.526  0.00  0.00    +0.000 OA
ATOM     26  C   UNL     1      -2.991  10.972  16.373  0.00  0.00    +0.000 C 
BRANCH  26  27
ATOM     27  C   UNL     1      -3.614   9.963  15.423  0.00  0.00    +0.000 C 
ATOM     28  H   UNL     1      -4.550   9.609  15.871  0.00  0.00    +0.000 HD
ATOM     29  H   UNL     1      -3.851  10.479  14.484  0.00  0.00    +0.000 HD
BRANCH  27  30
ATOM     30  C   UNL     1      -2.690   8.778  15.145  0.00  0.00    +0.000 C 
ATOM     31  H   UNL     1      -2.625   8.140  16.036  0.00  0.00    +0.000 HD
ATOM     32  H   UNL     1      -1.674   9.140  14.946  0.00  0.00    +0.000 HD
BRANCH  30  33
ATOM     33  C   UNL     1      -3.157   7.989  13.957  0.00  0.00    +0.000 C 
ATOM     34  C   UNL     1      -2.368   7.643  12.933  0.00  0.00    +0.000 C 
ATOM     35  H   UNL     1      -4.203   7.700  13.929  0.00  0.00    +0.000 HD
ATOM     36  H   UNL     1      -2.770   7.079  12.099  0.00  0.00    +0.000 HD
ATOM     37  H   UNL     1      -1.319   7.914  12.907  0.00  0.00    +0.000 HD
ENDBRANCH  30  33
ENDBRANCH  27  30
ENDBRANCH  26  27
ENDBRANCH  22  26
ENDBRANCH   2  21
BRANCH   5  38
ATOM     38  C   UNL     1      -7.568  11.903  17.627  0.00  0.00    +0.000 C 
ATOM     39  H   UNL     1      -7.873  11.114  16.933  0.00  0.00    +0.000 HD
ATOM     40  H   UNL     1      -8.419  12.110  18.285  0.00  0.00    +0.000 HD
ATOM     41  H   UNL     1      -6.754  11.522  18.252  0.00  0.00    +0.000 HD
ENDBRANCH   5  38
TORSDOF 8
ENDMDL
MODEL 7
REMARK VINA RESULT:    -4.548     27.879     30.648
REMARK INTER + INTRA:          -7.142
REMARK INTER:                  -6.643
REMARK INTRA:                  -0.499
REMARK UNBOUND:                -0.865
REMARK  Name = 5365976
REMARK  8 active torsions:
REMARK  status: ('A' for Active; 'I' for Inactive)
REMARK    1  A    between atoms: C_2  and  C_7
REMARK    2  A    between atoms: C_2  and  C_8
REMARK    3  A    between atoms: C_3  and  C_10
REMARK    4  A    between atoms: C_6  and  C_11
REMARK    5  A    between atoms: C_12  and  C_13
REMARK    6  A    between atoms: C_13  and  C_14
REMARK    7  A    between atoms: C_14  and  C_15
REMARK    8  A    between atoms: C_15  and  C_16
REMARK                            x       y       z     vdW  Elec       q    Type
REMARK                         _______ _______ _______ _____ _____    ______ ____
ROOT
ATOM      1  C   UNL     1       2.193   9.001  20.363  0.00  0.00    +0.000 C 
ATOM      2  C   UNL     1       1.532   8.226  19.168  0.00  0.00    +0.000 C 
ATOM      3  C   UNL     1       1.123   9.873  21.063  0.00  0.00    +0.000 C 
ATOM      4  C   UNL     1      -0.084   9.066  21.550  0.00  0.00    +0.000 C 
ATOM      5  C   UNL     1       0.228   7.549  19.568  0.00  0.00    +0.000 C 
ATOM      6  C   UNL     1      -0.483   7.945  20.638  0.00  0.00    +0.000 C 
ATOM      7  H   UNL     1       2.238   7.431  18.887  0.00  0.00    +0.000 HD
ATOM      8  H   UNL     1       0.770  10.650  20.373  0.00  0.00    +0.000 HD
ATOM      9  H   UNL     1       1.561  10.409  21.915  0.00  0.00    +0.000 HD
ATOM     10  H   UNL     1      -0.934   9.744  21.685  0.00  0.00    +0.000 HD
ATOM     11  H   UNL     1       0.135   8.641  22.537  0.00  0.00    +0.000 HD
ATOM     12  H   UNL     1      -1.403   7.425  20.896  0.00  0.00    +0.000 HD
ENDROOT
BRANCH   1  13
ATOM     13  C   UNL     1       2.799   7.992  21.370  0.00  0.00    +0.000 C 
ATOM     14  H   UNL     1       3.874   7.866  21.199  0.00  0.00    +0.000 HD
ATOM     15  H   UNL     1       2.667   8.301  22.412  0.00  0.00    +0.000 HD
ATOM     16  H   UNL     1       2.331   7.007  21.263  0.00  0.00    +0.000 HD
ENDBRANCH   1  13
BRANCH   1  17
ATOM     17  C   UNL     1       3.351   9.908  19.892  0.00  0.00    +0.000 C 
ATOM     18  H   UNL     1       3.253  10.146  18.827  0.00  0.00    +0.000 HD
ATOM     19  H   UNL     1       3.362  10.854  20.445  0.00  0.00    +0.000 HD
ATOM     20  H   UNL     1       4.327   9.428  20.021  0.00  0.00    +0.000 HD
ENDBRANCH   1  17
BRANCH   2  21
ATOM     21  C   UNL     1       1.291   9.096  17.961  0.00  0.00    +0.000 C 
ATOM     22  C   UNL     1       0.082   9.548  17.610  0.00  0.00    +0.000 C 
ATOM     23  H   UNL     1       2.162   9.361  17.364  0.00  0.00    +0.000 HD
ATOM     24  H   UNL     1      -0.805   9.304  18.185  0.00  0.00    +0.000 HD
BRANCH  22  26
ATOM     25  O   UNL     1       0.842  11.034  15.914  0.00  0.00    +0.000 OA
ATOM     26  C   UNL     1      -0.094  10.407  16.403  0.00  0.00    +0.000 C 
BRANCH  26  27
ATOM     27  C   UNL     1      -1.502  10.452  15.834  0.00  0.00    +0.000 C 
ATOM     28  H   UNL     1      -2.038  11.275  16.321  0.00  0.00    +0.000 HD
ATOM     29  H   UNL     1      -1.430  10.670  14.761  0.00  0.00    +0.000 HD
BRANCH  27  30
ATOM     30  C   UNL     1      -2.258   9.141  16.048  0.00  0.00    +0.000 C 
ATOM     31  H   UNL     1      -3.128   9.315  16.695  0.00  0.00    +0.000 HD
ATOM     32  H   UNL     1      -1.616   8.425  16.575  0.00  0.00    +0.000 HD
BRANCH  30  33
ATOM     33  C   UNL     1      -2.678   8.534  14.743  0.00  0.00    +0.000 C 
ATOM     34  C   UNL     1      -3.863   8.755  14.161  0.00  0.00    +0.000 C 
ATOM     35  H   UNL     1      -1.977   7.863  14.255  0.00  0.00    +0.000 HD
ATOM     36  H   UNL     1      -4.109   8.278  13.219  0.00  0.00    +0.000 HD
ATOM     37  H   UNL     1      -4.602   9.410  14.610  0.00  0.00    +0.000 HD
ENDBRANCH  30  33
ENDBRANCH  27  30
ENDBRANCH  26  27
ENDBRANCH  22  26
ENDBRANCH   2  21
BRANCH   5  38
ATOM     38  C   UNL     1      -0.224   6.396  18.714  0.00  0.00    +0.000 C 
ATOM     39  H   UNL     1      -1.311   6.410  18.589  0.00  0.00    +0.000 HD
ATOM     40  H   UNL     1       0.045   5.429  19.151  0.00  0.00    +0.000 HD
ATOM     41  H   UNL     1       0.241   6.453  17.725  0.00  0.00    +0.000 HD
ENDBRANCH   5  38
TORSDOF 8
ENDMDL
MODEL 8
REMARK VINA RESULT:    -4.525     43.862     45.755
REMARK INTER + INTRA:          -7.109
REMARK INTER:                  -6.034
REMARK INTRA:                  -1.074
REMARK UNBOUND:                -0.865
REMARK  Name = 5365976
REMARK  8 active torsions:
REMARK  status: ('A' for Active; 'I' for Inactive)
REMARK    1  A    between atoms: C_2  and  C_7
REMARK    2  A    between atoms: C_2  and  C_8
REMARK    3  A    between atoms: C_3  and  C_10
REMARK    4  A    between atoms: C_6  and  C_11
REMARK    5  A    between atoms: C_12  and  C_13
REMARK    6  A    between atoms: C_13  and  C_14
REMARK    7  A    between atoms: C_14  and  C_15
REMARK    8  A    between atoms: C_15  and  C_16
REMARK                            x       y       z     vdW  Elec       q    Type
REMARK                         _______ _______ _______ _____ _____    ______ ____
ROOT
ATOM      1  C   UNL     1     -16.082 -12.547  19.298  0.00  0.00    +0.000 C 
ATOM      2  C   UNL     1     -15.945 -13.301  17.927  0.00  0.00    +0.000 C 
ATOM      3  C   UNL     1     -15.031 -11.414  19.366  0.00  0.00    +0.000 C 
ATOM      4  C   UNL     1     -15.136 -10.427  18.200  0.00  0.00    +0.000 C 
ATOM      5  C   UNL     1     -15.869 -12.344  16.745  0.00  0.00    +0.000 C 
ATOM      6  C   UNL     1     -15.499 -11.059  16.890  0.00  0.00    +0.000 C 
ATOM      7  H   UNL     1     -16.864 -13.893  17.807  0.00  0.00    +0.000 HD
ATOM      8  H   UNL     1     -14.022 -11.845  19.371  0.00  0.00    +0.000 HD
ATOM      9  H   UNL     1     -15.123 -10.861  20.310  0.00  0.00    +0.000 HD
ATOM     10  H   UNL     1     -14.182  -9.898  18.095  0.00  0.00    +0.000 HD
ATOM     11  H   UNL     1     -15.891  -9.666  18.432  0.00  0.00    +0.000 HD
ATOM     12  H   UNL     1     -15.471 -10.406  16.021  0.00  0.00    +0.000 HD
ENDROOT
BRANCH   1  13
ATOM     13  C   UNL     1     -17.508 -11.959  19.432  0.00  0.00    +0.000 C 
ATOM     14  H   UNL     1     -17.817 -11.916  20.483  0.00  0.00    +0.000 HD
ATOM     15  H   UNL     1     -17.590 -10.946  19.025  0.00  0.00    +0.000 HD
ATOM     16  H   UNL     1     -18.238 -12.581  18.900  0.00  0.00    +0.000 HD
ENDBRANCH   1  13
BRANCH   1  17
ATOM     17  C   UNL     1     -15.878 -13.495  20.500  0.00  0.00    +0.000 C 
ATOM     18  H   UNL     1     -16.648 -13.332  21.262  0.00  0.00    +0.000 HD
ATOM     19  H   UNL     1     -15.935 -14.545  20.189  0.00  0.00    +0.000 HD
ATOM     20  H   UNL     1     -14.910 -13.338  20.989  0.00  0.00    +0.000 HD
ENDBRANCH   1  17
BRANCH   2  21
ATOM     21  C   UNL     1     -14.766 -14.240  17.884  0.00  0.00    +0.000 C 
ATOM     22  C   UNL     1     -14.858 -15.520  17.505  0.00  0.00    +0.000 C 
ATOM     23  H   UNL     1     -13.801 -13.830  18.175  0.00  0.00    +0.000 HD
ATOM     24  H   UNL     1     -15.805 -15.958  17.208  0.00  0.00    +0.000 HD
BRANCH  22  26
ATOM     25  O   UNL     1     -13.472 -17.222  16.588  0.00  0.00    +0.000 OA
ATOM     26  C   UNL     1     -13.655 -16.400  17.483  0.00  0.00    +0.000 C 
BRANCH  26  27
ATOM     27  C   UNL     1     -12.685 -16.209  18.637  0.00  0.00    +0.000 C 
ATOM     28  H   UNL     1     -11.757 -16.740  18.392  0.00  0.00    +0.000 HD
ATOM     29  H   UNL     1     -12.462 -15.139  18.722  0.00  0.00    +0.000 HD
BRANCH  27  30
ATOM     30  C   UNL     1     -13.246 -16.730  19.960  0.00  0.00    +0.000 C 
ATOM     31  H   UNL     1     -12.798 -17.703  20.197  0.00  0.00    +0.000 HD
ATOM     32  H   UNL     1     -14.326 -16.900  19.863  0.00  0.00    +0.000 HD
BRANCH  30  33
ATOM     33  C   UNL     1     -13.017 -15.751  21.073  0.00  0.00    +0.000 C 
ATOM     34  C   UNL     1     -12.523 -14.520  20.897  0.00  0.00    +0.000 C 
ATOM     35  H   UNL     1     -13.255 -16.076  22.082  0.00  0.00    +0.000 HD
ATOM     36  H   UNL     1     -12.373 -13.863  21.746  0.00  0.00    +0.000 HD
ATOM     37  H   UNL     1     -12.261 -14.149  19.912  0.00  0.00    +0.000 HD
ENDBRANCH  30  33
ENDBRANCH  27  30
ENDBRANCH  26  27
ENDBRANCH  22  26
ENDBRANCH   2  21
BRANCH   5  38
ATOM     38  C   UNL     1     -16.245 -12.900  15.400  0.00  0.00    +0.000 C 
ATOM     39  H   UNL     1     -17.134 -12.397  15.007  0.00  0.00    +0.000 HD
ATOM     40  H   UNL     1     -16.464 -13.972  15.443  0.00  0.00    +0.000 HD
ATOM     41  H   UNL     1     -15.423 -12.760  14.690  0.00  0.00    +0.000 HD
ENDBRANCH   5  38
TORSDOF 8
ENDMDL
MODEL 9
REMARK VINA RESULT:    -4.472     10.716     13.640
REMARK INTER + INTRA:          -7.036
REMARK INTER:                  -6.172
REMARK INTRA:                  -0.865
REMARK UNBOUND:                -0.865
REMARK  Name = 5365976
REMARK  8 active torsions:
REMARK  status: ('A' for Active; 'I' for Inactive)
REMARK    1  A    between atoms: C_2  and  C_7
REMARK    2  A    between atoms: C_2  and  C_8
REMARK    3  A    between atoms: C_3  and  C_10
REMARK    4  A    between atoms: C_6  and  C_11
REMARK    5  A    between atoms: C_12  and  C_13
REMARK    6  A    between atoms: C_13  and  C_14
REMARK    7  A    between atoms: C_14  and  C_15
REMARK    8  A    between atoms: C_15  and  C_16
REMARK                            x       y       z     vdW  Elec       q    Type
REMARK                         _______ _______ _______ _____ _____    ______ ____
ROOT
ATOM      1  C   UNL     1      14.524  13.910 -22.613  0.00  0.00    +0.000 C 
ATOM      2  C   UNL     1      14.257  12.773 -21.563  0.00  0.00    +0.000 C 
ATOM      3  C   UNL     1      15.186  15.116 -21.904  0.00  0.00    +0.000 C 
ATOM      4  C   UNL     1      16.480  14.747 -21.173  0.00  0.00    +0.000 C 
ATOM      5  C   UNL     1      15.474  12.493 -20.691  0.00  0.00    +0.000 C 
ATOM      6  C   UNL     1      16.458  13.395 -20.527  0.00  0.00    +0.000 C 
ATOM      7  H   UNL     1      14.055  11.860 -22.141  0.00  0.00    +0.000 HD
ATOM      8  H   UNL     1      14.485  15.549 -21.179  0.00  0.00    +0.000 HD
ATOM      9  H   UNL     1      15.399  15.916 -22.625  0.00  0.00    +0.000 HD
ATOM     10  H   UNL     1      16.689  15.509 -20.414  0.00  0.00    +0.000 HD
ATOM     11  H   UNL     1      17.319  14.773 -21.880  0.00  0.00    +0.000 HD
ATOM     12  H   UNL     1      17.315  13.148 -19.905  0.00  0.00    +0.000 HD
ENDROOT
BRANCH   1  13
ATOM     13  C   UNL     1      15.450  13.379 -23.735  0.00  0.00    +0.000 C 
ATOM     14  H   UNL     1      14.868  12.876 -24.516  0.00  0.00    +0.000 HD
ATOM     15  H   UNL     1      16.030  14.172 -24.218  0.00  0.00    +0.000 HD
ATOM     16  H   UNL     1      16.166  12.651 -23.338  0.00  0.00    +0.000 HD
ENDBRANCH   1  13
BRANCH   1  17
ATOM     17  C   UNL     1      13.222  14.381 -23.297  0.00  0.00    +0.000 C 
ATOM     18  H   UNL     1      12.348  14.143 -22.679  0.00  0.00    +0.000 HD
ATOM     19  H   UNL     1      13.230  15.465 -23.457  0.00  0.00    +0.000 HD
ATOM     20  H   UNL     1      13.068  13.895 -24.266  0.00  0.00    +0.000 HD
ENDBRANCH   1  17
BRANCH   2  21
ATOM     21  C   UNL     1      13.066  13.051 -20.681  0.00  0.00    +0.000 C 
ATOM     22  C   UNL     1      12.050  12.195 -20.526  0.00  0.00    +0.000 C 
ATOM     23  H   UNL     1      13.059  14.001 -20.150  0.00  0.00    +0.000 HD
ATOM     24  H   UNL     1      12.028  11.240 -21.039  0.00  0.00    +0.000 HD
BRANCH  22  26
ATOM     25  O   UNL     1      11.046  13.166 -18.600  0.00  0.00    +0.000 OA
ATOM     26  C   UNL     1      10.898  12.527 -19.638  0.00  0.00    +0.000 C 
BRANCH  26  27
ATOM     27  C   UNL     1       9.546  12.017 -20.106  0.00  0.00    +0.000 C 
ATOM     28  H   UNL     1       9.148  11.350 -19.331  0.00  0.00    +0.000 HD
ATOM     29  H   UNL     1       8.872  12.877 -20.205  0.00  0.00    +0.000 HD
BRANCH  27  30
ATOM     30  C   UNL     1       9.634  11.271 -21.437  0.00  0.00    +0.000 C 
ATOM     31  H   UNL     1       9.188  10.273 -21.335  0.00  0.00    +0.000 HD
ATOM     32  H   UNL     1      10.686  11.116 -21.705  0.00  0.00    +0.000 HD
BRANCH  30  33
ATOM     33  C   UNL     1       8.970  12.042 -22.540  0.00  0.00    +0.000 C 
ATOM     34  C   UNL     1       9.552  13.044 -23.208  0.00  0.00    +0.000 C 
ATOM     35  H   UNL     1       7.948  11.772 -22.793  0.00  0.00    +0.000 HD
ATOM     36  H   UNL     1       9.014  13.567 -23.990  0.00  0.00    +0.000 HD
ATOM     37  H   UNL     1      10.567  13.358 -22.990  0.00  0.00    +0.000 HD
ENDBRANCH  30  33
ENDBRANCH  27  30
ENDBRANCH  26  27
ENDBRANCH  22  26
ENDBRANCH   2  21
BRANCH   5  38
ATOM     38  C   UNL     1      15.534  11.144 -20.029  0.00  0.00    +0.000 C 
ATOM     39  H   UNL     1      15.341  11.230 -18.955  0.00  0.00    +0.000 HD
ATOM     40  H   UNL     1      16.513  10.668 -20.152  0.00  0.00    +0.000 HD
ATOM     41  H   UNL     1      14.785  10.475 -20.464  0.00  0.00    +0.000 HD
ENDBRANCH   5  38
TORSDOF 8
ENDMDL
MODEL 10
REMARK VINA RESULT:    -4.466      1.488      3.212
REMARK INTER + INTRA:          -7.028
REMARK INTER:                  -6.239
REMARK INTRA:                  -0.789
REMARK UNBOUND:                -0.865
REMARK  Name = 5365976
REMARK  8 active torsions:
REMARK  status: ('A' for Active; 'I' for Inactive)
REMARK    1  A    between atoms: C_2  and  C_7
REMARK    2  A    between atoms: C_2  and  C_8
REMARK    3  A    between atoms: C_3  and  C_10
REMARK    4  A    between atoms: C_6  and  C_11
REMARK    5  A    between atoms: C_12  and  C_13
REMARK    6  A    between atoms: C_13  and  C_14
REMARK    7  A    between atoms: C_14  and  C_15
REMARK    8  A    between atoms: C_15  and  C_16
REMARK                            x       y       z     vdW  Elec       q    Type
REMARK                         _______ _______ _______ _____ _____    ______ ____
ROOT
ATOM      1  C   UNL     1       4.436  15.063  -9.521  0.00  0.00    +0.000 C 
ATOM      2  C   UNL     1       4.510  13.963 -10.639  0.00  0.00    +0.000 C 
ATOM      3  C   UNL     1       3.010  15.661  -9.484  0.00  0.00    +0.000 C 
ATOM      4  C   UNL     1       1.922  14.605  -9.269  0.00  0.00    +0.000 C 
ATOM      5  C   UNL     1       3.342  12.987 -10.568  0.00  0.00    +0.000 C 
ATOM      6  C   UNL     1       2.188  13.298  -9.952  0.00  0.00    +0.000 C 
ATOM      7  H   UNL     1       5.426  13.386 -10.445  0.00  0.00    +0.000 HD
ATOM      8  H   UNL     1       2.806  16.188 -10.424  0.00  0.00    +0.000 HD
ATOM      9  H   UNL     1       2.932  16.420  -8.694  0.00  0.00    +0.000 HD
ATOM     10  H   UNL     1       0.963  15.007  -9.615  0.00  0.00    +0.000 HD
ATOM     11  H   UNL     1       1.808  14.411  -8.195  0.00  0.00    +0.000 HD
ATOM     12  H   UNL     1       1.384  12.567  -9.914  0.00  0.00    +0.000 HD
ENDROOT
BRANCH   1  13
ATOM     13  C   UNL     1       4.787  14.438  -8.148  0.00  0.00    +0.000 C 
ATOM     14  H   UNL     1       5.380  15.133  -7.542  0.00  0.00    +0.000 HD
ATOM     15  H   UNL     1       3.901  14.170  -7.565  0.00  0.00    +0.000 HD
ATOM     16  H   UNL     1       5.379  13.524  -8.275  0.00  0.00    +0.000 HD
ENDBRANCH   1  13
BRANCH   1  17
ATOM     17  C   UNL     1       5.453  16.200  -9.764  0.00  0.00    +0.000 C 
ATOM     18  H   UNL     1       5.113  17.134  -9.300  0.00  0.00    +0.000 HD
ATOM     19  H   UNL     1       6.431  15.953  -9.337  0.00  0.00    +0.000 HD
ATOM     20  H   UNL     1       5.590  16.408 -10.830  0.00  0.00    +0.000 HD
ENDBRANCH   1  17
BRANCH   2  21
ATOM     21  C   UNL     1       4.594  14.538 -12.029  0.00  0.00    +0.000 C 
ATOM     22  C   UNL     1       5.642  14.352 -12.840  0.00  0.00    +0.000 C 
ATOM     23  H   UNL     1       3.745  15.126 -12.370  0.00  0.00    +0.000 HD
ATOM     24  H   UNL     1       6.503  13.769 -12.532  0.00  0.00    +0.000 HD
BRANCH  22  26
ATOM     25  O   UNL     1       5.373  16.123 -14.406  0.00  0.00    +0.000 OA
ATOM     26  C   UNL     1       5.668  14.947 -14.207  0.00  0.00    +0.000 C 
BRANCH  26  27
ATOM     27  C   UNL     1       6.076  14.001 -15.324  0.00  0.00    +0.000 C 
ATOM     28  H   UNL     1       5.674  14.394 -16.265  0.00  0.00    +0.000 HD
ATOM     29  H   UNL     1       7.171  13.999 -15.386  0.00  0.00    +0.000 HD
BRANCH  27  30
ATOM     30  C   UNL     1       5.566  12.578 -15.096  0.00  0.00    +0.000 C 
ATOM     31  H   UNL     1       5.809  12.255 -14.075  0.00  0.00    +0.000 HD
ATOM     32  H   UNL     1       6.084  11.887 -15.773  0.00  0.00    +0.000 HD
BRANCH  30  33
ATOM     33  C   UNL     1       4.092  12.479 -15.351  0.00  0.00    +0.000 C 
ATOM     34  C   UNL     1       3.495  12.910 -16.469  0.00  0.00    +0.000 C 
ATOM     35  H   UNL     1       3.477  12.044 -14.568  0.00  0.00    +0.000 HD
ATOM     36  H   UNL     1       2.422  12.816 -16.588  0.00  0.00    +0.000 HD
ATOM     37  H   UNL     1       4.060  13.360 -17.277  0.00  0.00    +0.000 HD
ENDBRANCH  30  33
ENDBRANCH  27  30
ENDBRANCH  26  27
ENDBRANCH  22  26
ENDBRANCH   2  21
BRANCH   5  38
ATOM     38  C   UNL     1       3.545  11.643 -11.211  0.00  0.00    +0.000 C 
ATOM     39  H   UNL     1       4.581  11.524 -11.543  0.00  0.00    +0.000 HD
ATOM     40  H   UNL     1       2.899  11.502 -12.084  0.00  0.00    +0.000 HD
ATOM     41  H   UNL     1       3.315  10.844 -10.498  0.00  0.00    +0.000 HD
ENDBRANCH   5  38
TORSDOF 8
ENDMDL
