MODEL 1
REMARK VINA RESULT:    -4.401      0.000      0.000
REMARK INTER + INTRA:          -5.243
REMARK INTER:                  -5.062
REMARK INTRA:                  -0.182
REMARK UNBOUND:                -0.199
REMARK  Name = 261491
REMARK  4 active torsions:
REMARK  status: ('A' for Active; 'I' for Inactive)
REMARK    1  A    between atoms: C_2  and  C_7
REMARK    2  A    between atoms: C_5  and  C_9
REMARK    3  A    between atoms: C_7  and  C_10
REMARK    4  A    between atoms: C_7  and  C_11
REMARK                            x       y       z     vdW  Elec       q    Type
REMARK                         _______ _______ _______ _____ _____    ______ ____
ROOT
ATOM      1  O   UNL     1     -15.768 -12.043   3.441  0.00  0.00    +0.000 OA
ATOM      2  C   UNL     1     -16.588  -9.781   0.810  0.00  0.00    +0.000 C 
ATOM      3  C   UNL     1     -17.124  -9.061   2.008  0.00  0.00    +0.000 C 
ATOM      4  C   UNL     1     -15.972  -8.475   1.234  0.00  0.00    +0.000 C 
ATOM      5  C   UNL     1     -16.878  -9.881   3.250  0.00  0.00    +0.000 C 
ATOM      6  C   UNL     1     -15.985 -11.089   1.225  0.00  0.00    +0.000 C 
ATOM      7  C   UNL     1     -16.157 -11.123   2.733  0.00  0.00    +0.000 C 
ATOM      8  H   UNL     1     -18.072  -8.546   1.971  0.00  0.00    +0.000 HD
ATOM      9  H   UNL     1     -14.986  -8.489   1.682  0.00  0.00    +0.000 HD
ATOM     10  H   UNL     1     -16.167  -7.586   0.645  0.00  0.00    +0.000 HD
ATOM     11  H   UNL     1     -16.212  -9.341   3.931  0.00  0.00    +0.000 HD
ATOM     12  H   UNL     1     -14.919 -11.118   0.984  0.00  0.00    +0.000 HD
ATOM     13  H   UNL     1     -16.482 -11.966   0.808  0.00  0.00    +0.000 HD
ENDROOT
BRANCH   5  14
ATOM     14  C   UNL     1     -18.171 -10.272   3.946  0.00  0.00    +0.000 C 
ATOM     15  H   UNL     1     -18.392  -9.602   4.784  0.00  0.00    +0.000 HD
ATOM     16  H   UNL     1     -19.017 -10.225   3.252  0.00  0.00    +0.000 HD
ATOM     17  H   UNL     1     -18.108 -11.291   4.340  0.00  0.00    +0.000 HD
ENDBRANCH   5  14
BRANCH   2  18
ATOM     18  C   UNL     1     -17.390  -9.787  -0.444  0.00  0.00    +0.000 C 
ATOM     19  H   UNL     1     -17.705  -8.764  -0.689  0.00  0.00    +0.000 HD
BRANCH  18  20
ATOM     20  C   UNL     1     -16.570 -10.307  -1.632  0.00  0.00    +0.000 C 
ATOM     21  H   UNL     1     -15.494 -10.254  -1.440  0.00  0.00    +0.000 HD
ATOM     22  H   UNL     1     -16.822 -11.351  -1.848  0.00  0.00    +0.000 HD
ATOM     23  H   UNL     1     -16.777  -9.717  -2.532  0.00  0.00    +0.000 HD
ENDBRANCH  18  20
BRANCH  18  24
ATOM     24  C   UNL     1     -18.667 -10.623  -0.288  0.00  0.00    +0.000 C 
ATOM     25  H   UNL     1     -18.635 -11.287   0.581  0.00  0.00    +0.000 HD
ATOM     26  H   UNL     1     -18.812 -11.257  -1.171  0.00  0.00    +0.000 HD
ATOM     27  H   UNL     1     -19.550  -9.985  -0.191  0.00  0.00    +0.000 HD
ENDBRANCH  18  24
ENDBRANCH   2  18
TORSDOF 4
ENDMDL
MODEL 2
REMARK VINA RESULT:    -4.392      1.680      2.453
REMARK INTER + INTRA:          -5.233
REMARK INTER:                  -5.032
REMARK INTRA:                  -0.201
REMARK UNBOUND:                -0.199
REMARK  Name = 261491
REMARK  4 active torsions:
REMARK  status: ('A' for Active; 'I' for Inactive)
REMARK    1  A    between atoms: C_2  and  C_7
REMARK    2  A    between atoms: C_5  and  C_9
REMARK    3  A    between atoms: C_7  and  C_10
REMARK    4  A    between atoms: C_7  and  C_11
REMARK                            x       y       z     vdW  Elec       q    Type
REMARK                         _______ _______ _______ _____ _____    ______ ____
ROOT
ATOM      1  O   UNL     1     -17.768 -13.322   3.772  0.00  0.00    +0.000 OA
ATOM      2  C   UNL     1     -16.569 -10.173   2.605  0.00  0.00    +0.000 C 
ATOM      3  C   UNL     1     -18.048 -10.020   2.429  0.00  0.00    +0.000 C 
ATOM      4  C   UNL     1     -17.319  -9.159   3.427  0.00  0.00    +0.000 C 
ATOM      5  C   UNL     1     -18.749 -11.282   2.868  0.00  0.00    +0.000 C 
ATOM      6  C   UNL     1     -16.257 -11.532   3.154  0.00  0.00    +0.000 C 
ATOM      7  C   UNL     1     -17.613 -12.192   3.326  0.00  0.00    +0.000 C 
ATOM      8  H   UNL     1     -18.459  -9.541   1.553  0.00  0.00    +0.000 HD
ATOM      9  H   UNL     1     -17.464  -9.354   4.483  0.00  0.00    +0.000 HD
ATOM     10  H   UNL     1     -17.208  -8.107   3.193  0.00  0.00    +0.000 HD
ATOM     11  H   UNL     1     -19.402 -11.071   3.722  0.00  0.00    +0.000 HD
ATOM     12  H   UNL     1     -15.769 -11.453   4.129  0.00  0.00    +0.000 HD
ATOM     13  H   UNL     1     -15.658 -12.159   2.491  0.00  0.00    +0.000 HD
ENDROOT
BRANCH   5  14
ATOM     14  C   UNL     1     -19.523 -11.933   1.735  0.00  0.00    +0.000 C 
ATOM     15  H   UNL     1     -19.216 -12.975   1.588  0.00  0.00    +0.000 HD
ATOM     16  H   UNL     1     -20.598 -11.932   1.945  0.00  0.00    +0.000 HD
ATOM     17  H   UNL     1     -19.358 -11.401   0.793  0.00  0.00    +0.000 HD
ENDBRANCH   5  14
BRANCH   2  18
ATOM     18  C   UNL     1     -15.662  -9.660   1.543  0.00  0.00    +0.000 C 
ATOM     19  H   UNL     1     -14.682  -9.418   1.976  0.00  0.00    +0.000 HD
BRANCH  18  20
ATOM     20  C   UNL     1     -15.429 -10.711   0.449  0.00  0.00    +0.000 C 
ATOM     21  H   UNL     1     -16.175 -11.511   0.486  0.00  0.00    +0.000 HD
ATOM     22  H   UNL     1     -15.478 -10.252  -0.544  0.00  0.00    +0.000 HD
ATOM     23  H   UNL     1     -14.442 -11.172   0.560  0.00  0.00    +0.000 HD
ENDBRANCH  18  20
BRANCH  18  24
ATOM     24  C   UNL     1     -16.205  -8.369   0.916  0.00  0.00    +0.000 C 
ATOM     25  H   UNL     1     -17.070  -7.969   1.453  0.00  0.00    +0.000 HD
ATOM     26  H   UNL     1     -16.526  -8.558  -0.115  0.00  0.00    +0.000 HD
ATOM     27  H   UNL     1     -15.438  -7.590   0.886  0.00  0.00    +0.000 HD
ENDBRANCH  18  24
ENDBRANCH   2  18
TORSDOF 4
ENDMDL
MODEL 3
REMARK VINA RESULT:    -4.327      2.012      3.788
REMARK INTER + INTRA:          -5.158
REMARK INTER:                  -4.979
REMARK INTRA:                  -0.179
REMARK UNBOUND:                -0.199
REMARK  Name = 261491
REMARK  4 active torsions:
REMARK  status: ('A' for Active; 'I' for Inactive)
REMARK    1  A    between atoms: C_2  and  C_7
REMARK    2  A    between atoms: C_5  and  C_9
REMARK    3  A    between atoms: C_7  and  C_10
REMARK    4  A    between atoms: C_7  and  C_11
REMARK                            x       y       z     vdW  Elec       q    Type
REMARK                         _______ _______ _______ _____ _____    ______ ____
ROOT
ATOM      1  O   UNL     1     -17.343  -9.728  -0.985  0.00  0.00    +0.000 OA
ATOM      2  C   UNL     1     -17.670 -10.501   2.480  0.00  0.00    +0.000 C 
ATOM      3  C   UNL     1     -16.383  -9.736   2.458  0.00  0.00    +0.000 C 
ATOM      4  C   UNL     1     -17.582  -9.167   3.171  0.00  0.00    +0.000 C 
ATOM      5  C   UNL     1     -16.058  -9.320   1.045  0.00  0.00    +0.000 C 
ATOM      6  C   UNL     1     -18.221 -10.616   1.091  0.00  0.00    +0.000 C 
ATOM      7  C   UNL     1     -17.223  -9.867   0.225  0.00  0.00    +0.000 C 
ATOM      8  H   UNL     1     -15.539 -10.047   3.057  0.00  0.00    +0.000 HD
ATOM      9  H   UNL     1     -18.093  -8.321   2.729  0.00  0.00    +0.000 HD
ATOM     10  H   UNL     1     -17.552  -9.137   4.254  0.00  0.00    +0.000 HD
ATOM     11  H   UNL     1     -16.050  -8.228   0.968  0.00  0.00    +0.000 HD
ATOM     12  H   UNL     1     -19.197 -10.128   1.020  0.00  0.00    +0.000 HD
ATOM     13  H   UNL     1     -18.291 -11.639   0.717  0.00  0.00    +0.000 HD
ENDROOT
BRANCH   5  14
ATOM     14  C   UNL     1     -14.747  -9.913   0.558  0.00  0.00    +0.000 C 
ATOM     15  H   UNL     1     -13.915  -9.640   1.218  0.00  0.00    +0.000 HD
ATOM     16  H   UNL     1     -14.800 -11.007   0.530  0.00  0.00    +0.000 HD
ATOM     17  H   UNL     1     -14.507  -9.556  -0.448  0.00  0.00    +0.000 HD
ENDBRANCH   5  14
BRANCH   2  18
ATOM     18  C   UNL     1     -17.771 -11.713   3.338  0.00  0.00    +0.000 C 
ATOM     19  H   UNL     1     -18.495 -12.417   2.903  0.00  0.00    +0.000 HD
BRANCH  18  20
ATOM     20  C   UNL     1     -16.427 -12.446   3.434  0.00  0.00    +0.000 C 
ATOM     21  H   UNL     1     -15.874 -12.168   4.337  0.00  0.00    +0.000 HD
ATOM     22  H   UNL     1     -16.579 -13.531   3.454  0.00  0.00    +0.000 HD
ATOM     23  H   UNL     1     -15.795 -12.210   2.571  0.00  0.00    +0.000 HD
ENDBRANCH  18  20
BRANCH  18  24
ATOM     24  C   UNL     1     -18.276 -11.365   4.744  0.00  0.00    +0.000 C 
ATOM     25  H   UNL     1     -19.335 -11.093   4.759  0.00  0.00    +0.000 HD
ATOM     26  H   UNL     1     -17.718 -10.508   5.142  0.00  0.00    +0.000 HD
ATOM     27  H   UNL     1     -18.133 -12.201   5.435  0.00  0.00    +0.000 HD
ENDBRANCH  18  24
ENDBRANCH   2  18
TORSDOF 4
ENDMDL
MODEL 4
REMARK VINA RESULT:    -4.250     32.510     34.059
REMARK INTER + INTRA:          -5.070
REMARK INTER:                  -4.986
REMARK INTRA:                  -0.084
REMARK UNBOUND:                -0.199
REMARK  Name = 261491
REMARK  4 active torsions:
REMARK  status: ('A' for Active; 'I' for Inactive)
REMARK    1  A    between atoms: C_2  and  C_7
REMARK    2  A    between atoms: C_5  and  C_9
REMARK    3  A    between atoms: C_7  and  C_10
REMARK    4  A    between atoms: C_7  and  C_11
REMARK                            x       y       z     vdW  Elec       q    Type
REMARK                         _______ _______ _______ _____ _____    ______ ____
ROOT
ATOM      1  O   UNL     1       6.188  15.879 -10.324  0.00  0.00    +0.000 OA
ATOM      2  C   UNL     1       3.532  13.538 -10.744  0.00  0.00    +0.000 C 
ATOM      3  C   UNL     1       3.327  13.981  -9.328  0.00  0.00    +0.000 C 
ATOM      4  C   UNL     1       2.293  14.307 -10.374  0.00  0.00    +0.000 C 
ATOM      5  C   UNL     1       4.383  14.988  -8.949  0.00  0.00    +0.000 C 
ATOM      6  C   UNL     1       4.725  14.231 -11.329  0.00  0.00    +0.000 C 
ATOM      7  C   UNL     1       5.223  15.133 -10.215  0.00  0.00    +0.000 C 
ATOM      8  H   UNL     1       3.059  13.274  -8.556  0.00  0.00    +0.000 HD
ATOM      9  H   UNL     1       2.201  15.334 -10.709  0.00  0.00    +0.000 HD
ATOM     10  H   UNL     1       1.345  13.784 -10.320  0.00  0.00    +0.000 HD
ATOM     11  H   UNL     1       3.917  15.952  -8.719  0.00  0.00    +0.000 HD
ATOM     12  H   UNL     1       4.434  14.845 -12.186  0.00  0.00    +0.000 HD
ATOM     13  H   UNL     1       5.540  13.564 -11.614  0.00  0.00    +0.000 HD
ENDROOT
BRANCH   5  14
ATOM     14  C   UNL     1       5.247  14.509  -7.795  0.00  0.00    +0.000 C 
ATOM     15  H   UNL     1       4.663  13.923  -7.075  0.00  0.00    +0.000 HD
ATOM     16  H   UNL     1       6.062  13.873  -8.155  0.00  0.00    +0.000 HD
ATOM     17  H   UNL     1       5.686  15.356  -7.258  0.00  0.00    +0.000 HD
ENDBRANCH   5  14
BRANCH   2  18
ATOM     18  C   UNL     1       3.371  12.096 -11.077  0.00  0.00    +0.000 C 
ATOM     19  H   UNL     1       3.862  11.481 -10.310  0.00  0.00    +0.000 HD
BRANCH  18  20
ATOM     20  C   UNL     1       1.892  11.689 -11.109  0.00  0.00    +0.000 C 
ATOM     21  H   UNL     1       1.577  11.220 -10.171  0.00  0.00    +0.000 HD
ATOM     22  H   UNL     1       1.255  12.564 -11.277  0.00  0.00    +0.000 HD
ATOM     23  H   UNL     1       1.705  10.975 -11.917  0.00  0.00    +0.000 HD
ENDBRANCH  18  20
BRANCH  18  24
ATOM     24  C   UNL     1       4.034  11.754 -12.417  0.00  0.00    +0.000 C 
ATOM     25  H   UNL     1       3.744  10.768 -12.793  0.00  0.00    +0.000 HD
ATOM     26  H   UNL     1       5.125  11.748 -12.308  0.00  0.00    +0.000 HD
ATOM     27  H   UNL     1       3.782  12.492 -13.184  0.00  0.00    +0.000 HD
ENDBRANCH  18  24
ENDBRANCH   2  18
TORSDOF 4
ENDMDL
MODEL 5
REMARK VINA RESULT:    -4.214     27.225     28.611
REMARK INTER + INTRA:          -5.029
REMARK INTER:                  -4.832
REMARK INTRA:                  -0.197
REMARK UNBOUND:                -0.199
REMARK  Name = 261491
REMARK  4 active torsions:
REMARK  status: ('A' for Active; 'I' for Inactive)
REMARK    1  A    between atoms: C_2  and  C_7
REMARK    2  A    between atoms: C_5  and  C_9
REMARK    3  A    between atoms: C_7  and  C_10
REMARK    4  A    between atoms: C_7  and  C_11
REMARK                            x       y       z     vdW  Elec       q    Type
REMARK                         _______ _______ _______ _____ _____    ______ ____
ROOT
ATOM      1  O   UNL     1       0.494  11.114  15.988  0.00  0.00    +0.000 OA
ATOM      2  C   UNL     1      -2.750  10.119  14.893  0.00  0.00    +0.000 C 
ATOM      3  C   UNL     1      -2.750   9.646  16.314  0.00  0.00    +0.000 C 
ATOM      4  C   UNL     1      -3.690  10.744  15.889  0.00  0.00    +0.000 C 
ATOM      5  C   UNL     1      -1.427   9.973  16.962  0.00  0.00    +0.000 C 
ATOM      6  C   UNL     1      -1.435  10.759  14.566  0.00  0.00    +0.000 C 
ATOM      7  C   UNL     1      -0.642  10.675  15.858  0.00  0.00    +0.000 C 
ATOM      8  H   UNL     1      -3.177   8.692  16.584  0.00  0.00    +0.000 HD
ATOM      9  H   UNL     1      -3.491  11.755  16.224  0.00  0.00    +0.000 HD
ATOM     10  H   UNL     1      -4.746  10.506  15.837  0.00  0.00    +0.000 HD
ATOM     11  H   UNL     1      -1.578  10.672  17.791  0.00  0.00    +0.000 HD
ATOM     12  H   UNL     1      -1.572  11.809  14.295  0.00  0.00    +0.000 HD
ATOM     13  H   UNL     1      -0.867  10.248  13.787  0.00  0.00    +0.000 HD
ENDROOT
BRANCH   5  14
ATOM     14  C   UNL     1      -0.690   8.727  17.423  0.00  0.00    +0.000 C 
ATOM     15  H   UNL     1      -1.221   7.815  17.126  0.00  0.00    +0.000 HD
ATOM     16  H   UNL     1       0.313   8.683  16.986  0.00  0.00    +0.000 HD
ATOM     17  H   UNL     1      -0.589   8.715  18.513  0.00  0.00    +0.000 HD
ENDBRANCH   5  14
BRANCH   2  18
ATOM     18  C   UNL     1      -3.343   9.244  13.845  0.00  0.00    +0.000 C 
ATOM     19  H   UNL     1      -4.439   9.261  13.923  0.00  0.00    +0.000 HD
BRANCH  18  20
ATOM     20  C   UNL     1      -2.981   9.734  12.436  0.00  0.00    +0.000 C 
ATOM     21  H   UNL     1      -3.843  10.170  11.921  0.00  0.00    +0.000 HD
ATOM     22  H   UNL     1      -2.196  10.496  12.482  0.00  0.00    +0.000 HD
ATOM     23  H   UNL     1      -2.612   8.905  11.822  0.00  0.00    +0.000 HD
ENDBRANCH  18  20
BRANCH  18  24
ATOM     24  C   UNL     1      -2.903   7.785  14.017  0.00  0.00    +0.000 C 
ATOM     25  H   UNL     1      -2.407   7.603  14.974  0.00  0.00    +0.000 HD
ATOM     26  H   UNL     1      -2.192   7.511  13.228  0.00  0.00    +0.000 HD
ATOM     27  H   UNL     1      -3.756   7.103  13.945  0.00  0.00    +0.000 HD
ENDBRANCH  18  24
ENDBRANCH   2  18
TORSDOF 4
ENDMDL
MODEL 6
REMARK VINA RESULT:    -4.025     32.322     33.865
REMARK INTER + INTRA:          -4.812
REMARK INTER:                  -4.656
REMARK INTRA:                  -0.156
REMARK UNBOUND:                -0.199
REMARK  Name = 261491
REMARK  4 active torsions:
REMARK  status: ('A' for Active; 'I' for Inactive)
REMARK    1  A    between atoms: C_2  and  C_7
REMARK    2  A    between atoms: C_5  and  C_9
REMARK    3  A    between atoms: C_7  and  C_10
REMARK    4  A    between atoms: C_7  and  C_11
REMARK                            x       y       z     vdW  Elec       q    Type
REMARK                         _______ _______ _______ _____ _____    ______ ____
ROOT
ATOM      1  O   UNL     1       2.390  15.926 -10.557  0.00  0.00    +0.000 OA
ATOM      2  C   UNL     1       3.327  12.783 -11.958  0.00  0.00    +0.000 C 
ATOM      3  C   UNL     1       3.504  12.529 -10.493  0.00  0.00    +0.000 C 
ATOM      4  C   UNL     1       2.443  11.784 -11.261  0.00  0.00    +0.000 C 
ATOM      5  C   UNL     1       3.159  13.772  -9.712  0.00  0.00    +0.000 C 
ATOM      6  C   UNL     1       2.870  14.194 -12.181  0.00  0.00    +0.000 C 
ATOM      7  C   UNL     1       2.756  14.780 -10.786  0.00  0.00    +0.000 C 
ATOM      8  H   UNL     1       4.348  11.966 -10.123  0.00  0.00    +0.000 HD
ATOM      9  H   UNL     1       1.404  12.042 -11.091  0.00  0.00    +0.000 HD
ATOM     10  H   UNL     1       2.603  10.727 -11.438  0.00  0.00    +0.000 HD
ATOM     11  H   UNL     1       2.299  13.581  -9.063  0.00  0.00    +0.000 HD
ATOM     12  H   UNL     1       1.888  14.211 -12.661  0.00  0.00    +0.000 HD
ATOM     13  H   UNL     1       3.570  14.809 -12.750  0.00  0.00    +0.000 HD
ENDROOT
BRANCH   5  14
ATOM     14  C   UNL     1       4.341  14.296  -8.915  0.00  0.00    +0.000 C 
ATOM     15  H   UNL     1       5.269  13.780  -9.189  0.00  0.00    +0.000 HD
ATOM     16  H   UNL     1       4.492  15.366  -9.097  0.00  0.00    +0.000 HD
ATOM     17  H   UNL     1       4.183  14.151  -7.842  0.00  0.00    +0.000 HD
ENDBRANCH   5  14
BRANCH   2  18
ATOM     18  C   UNL     1       4.343  12.255 -12.908  0.00  0.00    +0.000 C 
ATOM     19  H   UNL     1       4.808  11.351 -12.491  0.00  0.00    +0.000 HD
BRANCH  18  20
ATOM     20  C   UNL     1       3.708  11.863 -14.249  0.00  0.00    +0.000 C 
ATOM     21  H   UNL     1       3.390  12.740 -14.822  0.00  0.00    +0.000 HD
ATOM     22  H   UNL     1       4.418  11.299 -14.862  0.00  0.00    +0.000 HD
ATOM     23  H   UNL     1       2.826  11.234 -14.089  0.00  0.00    +0.000 HD
ENDBRANCH  18  20
BRANCH  18  24
ATOM     24  C   UNL     1       5.470  13.270 -13.144  0.00  0.00    +0.000 C 
ATOM     25  H   UNL     1       6.441  12.915 -12.786  0.00  0.00    +0.000 HD
ATOM     26  H   UNL     1       5.253  14.204 -12.612  0.00  0.00    +0.000 HD
ATOM     27  H   UNL     1       5.571  13.510 -14.206  0.00  0.00    +0.000 HD
ENDBRANCH  18  24
ENDBRANCH   2  18
TORSDOF 4
ENDMDL
MODEL 7
REMARK VINA RESULT:    -4.009     25.617     26.932
REMARK INTER + INTRA:          -4.794
REMARK INTER:                  -4.604
REMARK INTRA:                  -0.190
REMARK UNBOUND:                -0.199
REMARK  Name = 261491
REMARK  4 active torsions:
REMARK  status: ('A' for Active; 'I' for Inactive)
REMARK    1  A    between atoms: C_2  and  C_7
REMARK    2  A    between atoms: C_5  and  C_9
REMARK    3  A    between atoms: C_7  and  C_10
REMARK    4  A    between atoms: C_7  and  C_11
REMARK                            x       y       z     vdW  Elec       q    Type
REMARK                         _______ _______ _______ _____ _____    ______ ____
ROOT
ATOM      1  O   UNL     1      -3.592   4.820 -13.036  0.00  0.00    +0.000 OA
ATOM      2  C   UNL     1      -1.468   3.746 -15.692  0.00  0.00    +0.000 C 
ATOM      3  C   UNL     1      -0.613   4.771 -15.013  0.00  0.00    +0.000 C 
ATOM      4  C   UNL     1      -0.197   3.323 -15.007  0.00  0.00    +0.000 C 
ATOM      5  C   UNL     1      -1.356   5.363 -13.842  0.00  0.00    +0.000 C 
ATOM      6  C   UNL     1      -2.792   3.642 -14.996  0.00  0.00    +0.000 C 
ATOM      7  C   UNL     1      -2.696   4.632 -13.849  0.00  0.00    +0.000 C 
ATOM      8  H   UNL     1      -0.016   5.466 -15.584  0.00  0.00    +0.000 HD
ATOM      9  H   UNL     1      -0.269   2.768 -14.080  0.00  0.00    +0.000 HD
ATOM     10  H   UNL     1       0.659   3.046 -15.611  0.00  0.00    +0.000 HD
ATOM     11  H   UNL     1      -0.830   5.134 -12.909  0.00  0.00    +0.000 HD
ATOM     12  H   UNL     1      -2.938   2.636 -14.592  0.00  0.00    +0.000 HD
ATOM     13  H   UNL     1      -3.648   3.920 -15.612  0.00  0.00    +0.000 HD
ENDROOT
BRANCH   5  14
ATOM     14  C   UNL     1      -1.572   6.859 -13.995  0.00  0.00    +0.000 C 
ATOM     15  H   UNL     1      -0.811   7.308 -14.644  0.00  0.00    +0.000 HD
ATOM     16  H   UNL     1      -2.551   7.069 -14.438  0.00  0.00    +0.000 HD
ATOM     17  H   UNL     1      -1.520   7.362 -13.024  0.00  0.00    +0.000 HD
ENDBRANCH   5  14
BRANCH   2  18
ATOM     18  C   UNL     1      -1.495   3.703 -17.179  0.00  0.00    +0.000 C 
ATOM     19  H   UNL     1      -0.485   3.504 -17.563  0.00  0.00    +0.000 HD
BRANCH  18  20
ATOM     20  C   UNL     1      -2.405   2.579 -17.691  0.00  0.00    +0.000 C 
ATOM     21  H   UNL     1      -2.257   2.386 -18.758  0.00  0.00    +0.000 HD
ATOM     22  H   UNL     1      -2.209   1.646 -17.151  0.00  0.00    +0.000 HD
ATOM     23  H   UNL     1      -3.459   2.838 -17.544  0.00  0.00    +0.000 HD
ENDBRANCH  18  20
BRANCH  18  24
ATOM     24  C   UNL     1      -1.942   5.045 -17.772  0.00  0.00    +0.000 C 
ATOM     25  H   UNL     1      -2.941   5.000 -18.215  0.00  0.00    +0.000 HD
ATOM     26  H   UNL     1      -1.252   5.355 -18.565  0.00  0.00    +0.000 HD
ATOM     27  H   UNL     1      -1.947   5.832 -17.012  0.00  0.00    +0.000 HD
ENDBRANCH  18  24
ENDBRANCH   2  18
TORSDOF 4
ENDMDL
MODEL 8
REMARK VINA RESULT:    -4.008     25.083     26.210
REMARK INTER + INTRA:          -4.793
REMARK INTER:                  -4.650
REMARK INTRA:                  -0.142
REMARK UNBOUND:                -0.199
REMARK  Name = 261491
REMARK  4 active torsions:
REMARK  status: ('A' for Active; 'I' for Inactive)
REMARK    1  A    between atoms: C_2  and  C_7
REMARK    2  A    between atoms: C_5  and  C_9
REMARK    3  A    between atoms: C_7  and  C_10
REMARK    4  A    between atoms: C_7  and  C_11
REMARK                            x       y       z     vdW  Elec       q    Type
REMARK                         _______ _______ _______ _____ _____    ______ ____
ROOT
ATOM      1  O   UNL     1       2.437  -5.197  17.968  0.00  0.00    +0.000 OA
ATOM      2  C   UNL     1       4.116  -3.924  15.092  0.00  0.00    +0.000 C 
ATOM      3  C   UNL     1       4.765  -5.263  15.256  0.00  0.00    +0.000 C 
ATOM      4  C   UNL     1       3.917  -4.985  14.043  0.00  0.00    +0.000 C 
ATOM      5  C   UNL     1       4.185  -5.970  16.455  0.00  0.00    +0.000 C 
ATOM      6  C   UNL     1       3.102  -3.711  16.175  0.00  0.00    +0.000 C 
ATOM      7  C   UNL     1       3.146  -4.989  16.993  0.00  0.00    +0.000 C 
ATOM      8  H   UNL     1       5.828  -5.389  15.111  0.00  0.00    +0.000 HD
ATOM      9  H   UNL     1       2.948  -5.463  13.968  0.00  0.00    +0.000 HD
ATOM     10  H   UNL     1       4.424  -4.884  13.090  0.00  0.00    +0.000 HD
ATOM     11  H   UNL     1       3.677  -6.888  16.141  0.00  0.00    +0.000 HD
ATOM     12  H   UNL     1       2.101  -3.590  15.750  0.00  0.00    +0.000 HD
ATOM     13  H   UNL     1       3.323  -2.876  16.841  0.00  0.00    +0.000 HD
ENDROOT
BRANCH   5  14
ATOM     14  C   UNL     1       5.234  -6.261  17.515  0.00  0.00    +0.000 C 
ATOM     15  H   UNL     1       5.884  -7.091  17.217  0.00  0.00    +0.000 HD
ATOM     16  H   UNL     1       5.871  -5.386  17.683  0.00  0.00    +0.000 HD
ATOM     17  H   UNL     1       4.764  -6.530  18.466  0.00  0.00    +0.000 HD
ENDBRANCH   5  14
BRANCH   2  18
ATOM     18  C   UNL     1       4.962  -2.754  14.733  0.00  0.00    +0.000 C 
ATOM     19  H   UNL     1       4.878  -1.982  15.511  0.00  0.00    +0.000 HD
BRANCH  18  20
ATOM     20  C   UNL     1       6.443  -3.141  14.635  0.00  0.00    +0.000 C 
ATOM     21  H   UNL     1       6.801  -3.625  15.550  0.00  0.00    +0.000 HD
ATOM     22  H   UNL     1       6.606  -3.834  13.803  0.00  0.00    +0.000 HD
ATOM     23  H   UNL     1       7.064  -2.255  14.463  0.00  0.00    +0.000 HD
ENDBRANCH  18  20
BRANCH  18  24
ATOM     24  C   UNL     1       4.503  -2.113  13.417  0.00  0.00    +0.000 C 
ATOM     25  H   UNL     1       4.272  -1.049  13.522  0.00  0.00    +0.000 HD
ATOM     26  H   UNL     1       3.593  -2.606  13.055  0.00  0.00    +0.000 HD
ATOM     27  H   UNL     1       5.266  -2.216  12.639  0.00  0.00    +0.000 HD
ENDBRANCH  18  24
ENDBRANCH   2  18
TORSDOF 4
ENDMDL
MODEL 9
REMARK VINA RESULT:    -3.980     26.209     27.345
REMARK INTER + INTRA:          -4.761
REMARK INTER:                  -4.616
REMARK INTRA:                  -0.145
REMARK UNBOUND:                -0.199
REMARK  Name = 261491
REMARK  4 active torsions:
REMARK  status: ('A' for Active; 'I' for Inactive)
REMARK    1  A    between atoms: C_2  and  C_7
REMARK    2  A    between atoms: C_5  and  C_9
REMARK    3  A    between atoms: C_7  and  C_10
REMARK    4  A    between atoms: C_7  and  C_11
REMARK                            x       y       z     vdW  Elec       q    Type
REMARK                         _______ _______ _______ _____ _____    ______ ____
ROOT
ATOM      1  O   UNL     1      -2.529  10.557  14.724  0.00  0.00    +0.000 OA
ATOM      2  C   UNL     1      -1.087   9.983  11.514  0.00  0.00    +0.000 C 
ATOM      3  C   UNL     1      -2.161   8.941  11.557  0.00  0.00    +0.000 C 
ATOM      4  C   UNL     1      -2.249  10.068  10.561  0.00  0.00    +0.000 C 
ATOM      5  C   UNL     1      -2.896   9.016  12.871  0.00  0.00    +0.000 C 
ATOM      6  C   UNL     1      -1.081  10.763  12.794  0.00  0.00    +0.000 C 
ATOM      7  C   UNL     1      -2.213  10.164  13.608  0.00  0.00    +0.000 C 
ATOM      8  H   UNL     1      -1.987   7.945  11.177  0.00  0.00    +0.000 HD
ATOM      9  H   UNL     1      -2.992  10.841  10.719  0.00  0.00    +0.000 HD
ATOM     10  H   UNL     1      -2.092   9.827   9.517  0.00  0.00    +0.000 HD
ATOM     11  H   UNL     1      -3.946   9.277  12.701  0.00  0.00    +0.000 HD
ATOM     12  H   UNL     1      -1.292  11.820  12.605  0.00  0.00    +0.000 HD
ATOM     13  H   UNL     1      -0.161  10.669  13.374  0.00  0.00    +0.000 HD
ENDROOT
BRANCH   5  14
ATOM     14  C   UNL     1      -2.775   7.730  13.672  0.00  0.00    +0.000 C 
ATOM     15  H   UNL     1      -3.589   7.634  14.399  0.00  0.00    +0.000 HD
ATOM     16  H   UNL     1      -2.816   6.856  13.013  0.00  0.00    +0.000 HD
ATOM     17  H   UNL     1      -1.830   7.701  14.222  0.00  0.00    +0.000 HD
ENDBRANCH   5  14
BRANCH   2  18
ATOM     18  C   UNL     1       0.241   9.625  10.947  0.00  0.00    +0.000 C 
ATOM     19  H   UNL     1       1.024   9.797  11.698  0.00  0.00    +0.000 HD
BRANCH  18  20
ATOM     20  C   UNL     1       0.303   8.142  10.557  0.00  0.00    +0.000 C 
ATOM     21  H   UNL     1       0.665   7.518  11.380  0.00  0.00    +0.000 HD
ATOM     22  H   UNL     1      -0.689   7.776  10.270  0.00  0.00    +0.000 HD
ATOM     23  H   UNL     1       0.976   7.994   9.706  0.00  0.00    +0.000 HD
ENDBRANCH  18  20
BRANCH  18  24
ATOM     24  C   UNL     1       0.586  10.496   9.733  0.00  0.00    +0.000 C 
ATOM     25  H   UNL     1       1.589  10.928   9.792  0.00  0.00    +0.000 HD
ATOM     26  H   UNL     1      -0.120  11.332   9.656  0.00  0.00    +0.000 HD
ATOM     27  H   UNL     1       0.522   9.924   8.802  0.00  0.00    +0.000 HD
ENDBRANCH  18  24
ENDBRANCH   2  18
TORSDOF 4
ENDMDL
MODEL 10
REMARK VINA RESULT:    -3.954     30.223     31.559
REMARK INTER + INTRA:          -4.731
REMARK INTER:                  -4.532
REMARK INTRA:                  -0.199
REMARK UNBOUND:                -0.199
REMARK  Name = 261491
REMARK  4 active torsions:
REMARK  status: ('A' for Active; 'I' for Inactive)
REMARK    1  A    between atoms: C_2  and  C_7
REMARK    2  A    between atoms: C_5  and  C_9
REMARK    3  A    between atoms: C_7  and  C_10
REMARK    4  A    between atoms: C_7  and  C_11
REMARK                            x       y       z     vdW  Elec       q    Type
REMARK                         _______ _______ _______ _____ _____    ______ ____
ROOT
ATOM      1  O   UNL     1       4.196   9.244  17.507  0.00  0.00    +0.000 OA
ATOM      2  C   UNL     1       1.185   8.440  19.240  0.00  0.00    +0.000 C 
ATOM      3  C   UNL     1       2.179   7.556  19.928  0.00  0.00    +0.000 C 
ATOM      4  C   UNL     1       1.514   8.673  20.690  0.00  0.00    +0.000 C 
ATOM      5  C   UNL     1       3.544   7.747  19.317  0.00  0.00    +0.000 C 
ATOM      6  C   UNL     1       1.863   9.227  18.159  0.00  0.00    +0.000 C 
ATOM      7  C   UNL     1       3.318   8.799  18.235  0.00  0.00    +0.000 C 
ATOM      8  H   UNL     1       1.928   6.541  20.200  0.00  0.00    +0.000 HD
ATOM      9  H   UNL     1       2.105   9.543  20.953  0.00  0.00    +0.000 HD
ATOM     10  H   UNL     1       0.787   8.400  21.445  0.00  0.00    +0.000 HD
ATOM     11  H   UNL     1       4.237   8.148  20.064  0.00  0.00    +0.000 HD
ATOM     12  H   UNL     1       1.793  10.300  18.359  0.00  0.00    +0.000 HD
ATOM     13  H   UNL     1       1.501   9.014  17.152  0.00  0.00    +0.000 HD
ENDROOT
BRANCH   5  14
ATOM     14  C   UNL     1       4.083   6.466  18.703  0.00  0.00    +0.000 C 
ATOM     15  H   UNL     1       4.233   6.573  17.622  0.00  0.00    +0.000 HD
ATOM     16  H   UNL     1       5.047   6.196  19.146  0.00  0.00    +0.000 HD
ATOM     17  H   UNL     1       3.389   5.635  18.863  0.00  0.00    +0.000 HD
ENDBRANCH   5  14
BRANCH   2  18
ATOM     18  C   UNL     1      -0.162   7.896  18.921  0.00  0.00    +0.000 C 
ATOM     19  H   UNL     1      -0.869   8.161  19.718  0.00  0.00    +0.000 HD
BRANCH  18  20
ATOM     20  C   UNL     1      -0.709   8.485  17.614  0.00  0.00    +0.000 C 
ATOM     21  H   UNL     1      -0.714   9.580  17.629  0.00  0.00    +0.000 HD
ATOM     22  H   UNL     1      -0.102   8.164  16.761  0.00  0.00    +0.000 HD
ATOM     23  H   UNL     1      -1.738   8.151  17.440  0.00  0.00    +0.000 HD
ENDBRANCH  18  20
BRANCH  18  24
ATOM     24  C   UNL     1      -0.142   6.364  18.832  0.00  0.00    +0.000 C 
ATOM     25  H   UNL     1       0.685   5.987  18.223  0.00  0.00    +0.000 HD
ATOM     26  H   UNL     1      -1.070   6.002  18.375  0.00  0.00    +0.000 HD
ATOM     27  H   UNL     1      -0.063   5.911  19.824  0.00  0.00    +0.000 HD
ENDBRANCH  18  24
ENDBRANCH   2  18
TORSDOF 4
ENDMDL
