MODEL 1
REMARK VINA RESULT:    -4.907      0.000      0.000
REMARK INTER + INTRA:          -5.364
REMARK INTER:                  -5.334
REMARK INTRA:                  -0.030
REMARK UNBOUND:                -0.027
REMARK  Name = 7519
REMARK  2 active torsions:
REMARK  status: ('A' for Active; 'I' for Inactive)
REMARK    1  A    between atoms: O_1  and  C_2
REMARK    2  A    between atoms: O_1  and  C_8
REMARK                            x       y       z     vdW  Elec       q    Type
REMARK                         _______ _______ _______ _____ _____    ______ ____
ROOT
ATOM      1  C   UNL     1       7.752  -0.112  -3.526  0.00  0.00    +0.000 A 
ATOM      2  C   UNL     1       6.969   0.703  -2.708  0.00  0.00    +0.000 A 
ATOM      3  C   UNL     1       7.253  -0.554  -4.751  0.00  0.00    +0.000 A 
ATOM      4  C   UNL     1       5.689   1.077  -3.116  0.00  0.00    +0.000 A 
ATOM      5  C   UNL     1       5.973  -0.181  -5.160  0.00  0.00    +0.000 A 
ATOM      6  C   UNL     1       5.191   0.634  -4.342  0.00  0.00    +0.000 A 
ATOM      7  H   UNL     1       7.294   1.082  -1.745  0.00  0.00    +0.000 HD
ATOM      8  H   UNL     1       7.858  -1.191  -5.393  0.00  0.00    +0.000 HD
ATOM      9  H   UNL     1       5.079   1.712  -2.481  0.00  0.00    +0.000 HD
ATOM     10  H   UNL     1       5.585  -0.525  -6.114  0.00  0.00    +0.000 HD
ATOM     11  H   UNL     1       4.194   0.925  -4.659  0.00  0.00    +0.000 HD
ENDROOT
BRANCH   1  12
ATOM     12  O   UNL     1       9.001  -0.477  -3.127  0.00  0.00    +0.000 OA
BRANCH  12  13
ATOM     13  C   UNL     1       9.662  -1.480  -3.898  0.00  0.00    +0.000 C 
ATOM     14  H   UNL     1      10.452  -1.974  -3.322  0.00  0.00    +0.000 HD
ATOM     15  H   UNL     1      10.030  -1.079  -4.848  0.00  0.00    +0.000 HD
ATOM     16  H   UNL     1       8.917  -2.245  -4.139  0.00  0.00    +0.000 HD
ENDBRANCH  12  13
ENDBRANCH   1  12
TORSDOF 2
ENDMDL
MODEL 2
REMARK VINA RESULT:    -4.747      1.279      2.655
REMARK INTER + INTRA:          -5.190
REMARK INTER:                  -5.169
REMARK INTRA:                  -0.021
REMARK UNBOUND:                -0.027
REMARK  Name = 7519
REMARK  2 active torsions:
REMARK  status: ('A' for Active; 'I' for Inactive)
REMARK    1  A    between atoms: O_1  and  C_2
REMARK    2  A    between atoms: O_1  and  C_8
REMARK                            x       y       z     vdW  Elec       q    Type
REMARK                         _______ _______ _______ _____ _____    ______ ____
ROOT
ATOM      1  C   UNL     1       6.965   0.683  -2.704  0.00  0.00    +0.000 A 
ATOM      2  C   UNL     1       7.661  -0.197  -3.533  0.00  0.00    +0.000 A 
ATOM      3  C   UNL     1       5.708   1.152  -3.085  0.00  0.00    +0.000 A 
ATOM      4  C   UNL     1       7.099  -0.609  -4.741  0.00  0.00    +0.000 A 
ATOM      5  C   UNL     1       5.146   0.741  -4.293  0.00  0.00    +0.000 A 
ATOM      6  C   UNL     1       5.841  -0.140  -5.122  0.00  0.00    +0.000 A 
ATOM      7  H   UNL     1       8.641  -0.600  -3.299  0.00  0.00    +0.000 HD
ATOM      8  H   UNL     1       5.161   1.839  -2.443  0.00  0.00    +0.000 HD
ATOM      9  H   UNL     1       7.640  -1.295  -5.387  0.00  0.00    +0.000 HD
ATOM     10  H   UNL     1       4.167   1.106  -4.590  0.00  0.00    +0.000 HD
ATOM     11  H   UNL     1       5.405  -0.461  -6.062  0.00  0.00    +0.000 HD
ENDROOT
BRANCH   1  12
ATOM     12  O   UNL     1       7.513   1.085  -1.525  0.00  0.00    +0.000 OA
BRANCH  12  13
ATOM     13  C   UNL     1       6.807   0.748  -0.332  0.00  0.00    +0.000 C 
ATOM     14  H   UNL     1       7.238  -0.133   0.155  0.00  0.00    +0.000 HD
ATOM     15  H   UNL     1       5.734   0.636  -0.519  0.00  0.00    +0.000 HD
ATOM     16  H   UNL     1       6.926   1.587   0.362  0.00  0.00    +0.000 HD
ENDBRANCH  12  13
ENDBRANCH   1  12
TORSDOF 2
ENDMDL
MODEL 3
REMARK VINA RESULT:    -4.364      1.935      3.666
REMARK INTER + INTRA:          -4.774
REMARK INTER:                  -4.753
REMARK INTRA:                  -0.021
REMARK UNBOUND:                -0.027
REMARK  Name = 7519
REMARK  2 active torsions:
REMARK  status: ('A' for Active; 'I' for Inactive)
REMARK    1  A    between atoms: O_1  and  C_2
REMARK    2  A    between atoms: O_1  and  C_8
REMARK                            x       y       z     vdW  Elec       q    Type
REMARK                         _______ _______ _______ _____ _____    ______ ____
ROOT
ATOM      1  C   UNL     1       6.842  -0.954  -4.254  0.00  0.00    +0.000 A 
ATOM      2  C   UNL     1       8.213  -0.766  -4.429  0.00  0.00    +0.000 A 
ATOM      3  C   UNL     1       6.373  -1.701  -3.173  0.00  0.00    +0.000 A 
ATOM      4  C   UNL     1       9.115  -1.327  -3.525  0.00  0.00    +0.000 A 
ATOM      5  C   UNL     1       7.275  -2.262  -2.268  0.00  0.00    +0.000 A 
ATOM      6  C   UNL     1       8.646  -2.075  -2.444  0.00  0.00    +0.000 A 
ATOM      7  H   UNL     1       8.645  -0.197  -5.246  0.00  0.00    +0.000 HD
ATOM      8  H   UNL     1       5.306  -1.851  -3.031  0.00  0.00    +0.000 HD
ATOM      9  H   UNL     1      10.183  -1.182  -3.660  0.00  0.00    +0.000 HD
ATOM     10  H   UNL     1       6.910  -2.844  -1.428  0.00  0.00    +0.000 HD
ATOM     11  H   UNL     1       9.348  -2.511  -1.741  0.00  0.00    +0.000 HD
ENDROOT
BRANCH   1  12
ATOM     12  O   UNL     1       5.962  -0.407  -5.136  0.00  0.00    +0.000 OA
BRANCH  12  13
ATOM     13  C   UNL     1       5.045   0.559  -4.625  0.00  0.00    +0.000 C 
ATOM     14  H   UNL     1       5.561   1.465  -4.288  0.00  0.00    +0.000 HD
ATOM     15  H   UNL     1       4.405   0.133  -3.846  0.00  0.00    +0.000 HD
ATOM     16  H   UNL     1       4.390   0.853  -5.452  0.00  0.00    +0.000 HD
ENDBRANCH  12  13
ENDBRANCH   1  12
TORSDOF 2
ENDMDL
MODEL 4
REMARK VINA RESULT:    -4.238     15.418     16.266
REMARK INTER + INTRA:          -4.636
REMARK INTER:                  -4.607
REMARK INTRA:                  -0.029
REMARK UNBOUND:                -0.027
REMARK  Name = 7519
REMARK  2 active torsions:
REMARK  status: ('A' for Active; 'I' for Inactive)
REMARK    1  A    between atoms: O_1  and  C_2
REMARK    2  A    between atoms: O_1  and  C_8
REMARK                            x       y       z     vdW  Elec       q    Type
REMARK                         _______ _______ _______ _____ _____    ______ ____
ROOT
ATOM      1  C   UNL     1      -1.195 -13.309  -7.501  0.00  0.00    +0.000 A 
ATOM      2  C   UNL     1      -0.523 -12.272  -8.149  0.00  0.00    +0.000 A 
ATOM      3  C   UNL     1      -1.720 -14.369  -8.240  0.00  0.00    +0.000 A 
ATOM      4  C   UNL     1      -0.377 -12.296  -9.537  0.00  0.00    +0.000 A 
ATOM      5  C   UNL     1      -1.574 -14.393  -9.627  0.00  0.00    +0.000 A 
ATOM      6  C   UNL     1      -0.903 -13.357 -10.275  0.00  0.00    +0.000 A 
ATOM      7  H   UNL     1      -0.091 -11.419  -7.637  0.00  0.00    +0.000 HD
ATOM      8  H   UNL     1      -2.245 -15.180  -7.740  0.00  0.00    +0.000 HD
ATOM      9  H   UNL     1       0.145 -11.490 -10.042  0.00  0.00    +0.000 HD
ATOM     10  H   UNL     1      -1.983 -15.218 -10.202  0.00  0.00    +0.000 HD
ATOM     11  H   UNL     1      -0.789 -13.374 -11.355  0.00  0.00    +0.000 HD
ENDROOT
BRANCH   1  12
ATOM     12  O   UNL     1      -1.337 -13.286  -6.147  0.00  0.00    +0.000 OA
BRANCH  12  13
ATOM     13  C   UNL     1      -0.378 -12.533  -5.406  0.00  0.00    +0.000 C 
ATOM     14  H   UNL     1      -0.499 -12.681  -4.327  0.00  0.00    +0.000 HD
ATOM     15  H   UNL     1      -0.395 -11.475  -5.685  0.00  0.00    +0.000 HD
ATOM     16  H   UNL     1       0.611 -12.920  -5.672  0.00  0.00    +0.000 HD
ENDBRANCH  12  13
ENDBRANCH   1  12
TORSDOF 2
ENDMDL
MODEL 5
REMARK VINA RESULT:    -4.199     16.163     17.114
REMARK INTER + INTRA:          -4.594
REMARK INTER:                  -4.564
REMARK INTRA:                  -0.029
REMARK UNBOUND:                -0.027
REMARK  Name = 7519
REMARK  2 active torsions:
REMARK  status: ('A' for Active; 'I' for Inactive)
REMARK    1  A    between atoms: O_1  and  C_2
REMARK    2  A    between atoms: O_1  and  C_8
REMARK                            x       y       z     vdW  Elec       q    Type
REMARK                         _______ _______ _______ _____ _____    ______ ____
ROOT
ATOM      1  C   UNL     1      -0.743 -13.376 -10.450  0.00  0.00    +0.000 A 
ATOM      2  C   UNL     1      -1.482 -14.463  -9.982  0.00  0.00    +0.000 A 
ATOM      3  C   UNL     1      -0.368 -12.359  -9.573  0.00  0.00    +0.000 A 
ATOM      4  C   UNL     1      -1.846 -14.531  -8.637  0.00  0.00    +0.000 A 
ATOM      5  C   UNL     1      -0.731 -12.426  -8.228  0.00  0.00    +0.000 A 
ATOM      6  C   UNL     1      -1.470 -13.513  -7.760  0.00  0.00    +0.000 A 
ATOM      7  H   UNL     1      -1.806 -15.287 -10.608  0.00  0.00    +0.000 HD
ATOM      8  H   UNL     1       0.208 -11.509  -9.932  0.00  0.00    +0.000 HD
ATOM      9  H   UNL     1      -2.421 -15.377  -8.271  0.00  0.00    +0.000 HD
ATOM     10  H   UNL     1      -0.439 -11.634  -7.545  0.00  0.00    +0.000 HD
ATOM     11  H   UNL     1      -1.754 -13.567  -6.714  0.00  0.00    +0.000 HD
ENDROOT
BRANCH   1  12
ATOM     12  O   UNL     1      -0.388 -13.309 -11.762  0.00  0.00    +0.000 OA
BRANCH  12  13
ATOM     13  C   UNL     1      -1.109 -14.136 -12.674  0.00  0.00    +0.000 C 
ATOM     14  H   UNL     1      -0.991 -13.794 -13.708  0.00  0.00    +0.000 HD
ATOM     15  H   UNL     1      -2.161 -14.229 -12.385  0.00  0.00    +0.000 HD
ATOM     16  H   UNL     1      -0.672 -15.138 -12.617  0.00  0.00    +0.000 HD
ENDBRANCH  12  13
ENDBRANCH   1  12
TORSDOF 2
ENDMDL
MODEL 6
REMARK VINA RESULT:    -3.908     23.163     24.107
REMARK INTER + INTRA:          -4.278
REMARK INTER:                  -4.253
REMARK INTRA:                  -0.024
REMARK UNBOUND:                -0.027
REMARK  Name = 7519
REMARK  2 active torsions:
REMARK  status: ('A' for Active; 'I' for Inactive)
REMARK    1  A    between atoms: O_1  and  C_2
REMARK    2  A    between atoms: O_1  and  C_8
REMARK                            x       y       z     vdW  Elec       q    Type
REMARK                         _______ _______ _______ _____ _____    ______ ____
ROOT
ATOM      1  C   UNL     1       5.009 -11.856 -24.750  0.00  0.00    +0.000 A 
ATOM      2  C   UNL     1       6.313 -11.538 -25.130  0.00  0.00    +0.000 A 
ATOM      3  C   UNL     1       4.114 -10.840 -24.413  0.00  0.00    +0.000 A 
ATOM      4  C   UNL     1       6.722 -10.205 -25.174  0.00  0.00    +0.000 A 
ATOM      5  C   UNL     1       4.522  -9.507 -24.456  0.00  0.00    +0.000 A 
ATOM      6  C   UNL     1       5.826  -9.190 -24.836  0.00  0.00    +0.000 A 
ATOM      7  H   UNL     1       7.059 -12.277 -25.405  0.00  0.00    +0.000 HD
ATOM      8  H   UNL     1       3.096 -11.082 -24.115  0.00  0.00    +0.000 HD
ATOM      9  H   UNL     1       7.736  -9.957 -25.470  0.00  0.00    +0.000 HD
ATOM     10  H   UNL     1       3.826  -8.717 -24.193  0.00  0.00    +0.000 HD
ATOM     11  H   UNL     1       6.145  -8.153 -24.870  0.00  0.00    +0.000 HD
ENDROOT
BRANCH   1  12
ATOM     12  O   UNL     1       4.610 -13.157 -24.707  0.00  0.00    +0.000 OA
BRANCH  12  13
ATOM     13  C   UNL     1       4.949 -13.977 -25.825  0.00  0.00    +0.000 C 
ATOM     14  H   UNL     1       5.067 -13.383 -26.738  0.00  0.00    +0.000 HD
ATOM     15  H   UNL     1       4.235 -14.797 -25.952  0.00  0.00    +0.000 HD
ATOM     16  H   UNL     1       5.922 -14.429 -25.609  0.00  0.00    +0.000 HD
ENDBRANCH  12  13
ENDBRANCH   1  12
TORSDOF 2
ENDMDL
MODEL 7
REMARK VINA RESULT:    -3.845     22.464     23.672
REMARK INTER + INTRA:          -4.209
REMARK INTER:                  -4.191
REMARK INTRA:                  -0.017
REMARK UNBOUND:                -0.027
REMARK  Name = 7519
REMARK  2 active torsions:
REMARK  status: ('A' for Active; 'I' for Inactive)
REMARK    1  A    between atoms: O_1  and  C_2
REMARK    2  A    between atoms: O_1  and  C_8
REMARK                            x       y       z     vdW  Elec       q    Type
REMARK                         _______ _______ _______ _____ _____    ______ ____
ROOT
ATOM      1  C   UNL     1       4.427 -10.495 -24.587  0.00  0.00    +0.000 A 
ATOM      2  C   UNL     1       4.879 -11.781 -24.880  0.00  0.00    +0.000 A 
ATOM      3  C   UNL     1       5.287  -9.405 -24.724  0.00  0.00    +0.000 A 
ATOM      4  C   UNL     1       6.192 -11.978 -25.309  0.00  0.00    +0.000 A 
ATOM      5  C   UNL     1       6.599  -9.601 -25.154  0.00  0.00    +0.000 A 
ATOM      6  C   UNL     1       7.052 -10.888 -25.446  0.00  0.00    +0.000 A 
ATOM      7  H   UNL     1       4.265 -12.672 -24.795  0.00  0.00    +0.000 HD
ATOM      8  H   UNL     1       4.939  -8.400 -24.497  0.00  0.00    +0.000 HD
ATOM      9  H   UNL     1       6.545 -12.979 -25.538  0.00  0.00    +0.000 HD
ATOM     10  H   UNL     1       7.269  -8.753 -25.260  0.00  0.00    +0.000 HD
ATOM     11  H   UNL     1       8.073 -11.042 -25.781  0.00  0.00    +0.000 HD
ENDROOT
BRANCH   1  12
ATOM     12  O   UNL     1       3.146 -10.303 -24.168  0.00  0.00    +0.000 OA
BRANCH  12  13
ATOM     13  C   UNL     1       2.906 -10.364 -22.762  0.00  0.00    +0.000 C 
ATOM     14  H   UNL     1       3.516  -9.634 -22.219  0.00  0.00    +0.000 HD
ATOM     15  H   UNL     1       3.033 -11.381 -22.377  0.00  0.00    +0.000 HD
ATOM     16  H   UNL     1       1.859 -10.088 -22.601  0.00  0.00    +0.000 HD
ENDBRANCH  12  13
ENDBRANCH   1  12
TORSDOF 2
ENDMDL
MODEL 8
REMARK VINA RESULT:    -3.743     17.682     18.661
REMARK INTER + INTRA:          -4.098
REMARK INTER:                  -4.077
REMARK INTRA:                  -0.020
REMARK UNBOUND:                -0.027
REMARK  Name = 7519
REMARK  2 active torsions:
REMARK  status: ('A' for Active; 'I' for Inactive)
REMARK    1  A    between atoms: O_1  and  C_2
REMARK    2  A    between atoms: O_1  and  C_8
REMARK                            x       y       z     vdW  Elec       q    Type
REMARK                         _______ _______ _______ _____ _____    ______ ____
ROOT
ATOM      1  C   UNL     1      -1.068 -14.521 -11.858  0.00  0.00    +0.000 A 
ATOM      2  C   UNL     1      -1.120 -15.914 -11.844  0.00  0.00    +0.000 A 
ATOM      3  C   UNL     1      -1.305 -13.802 -10.687  0.00  0.00    +0.000 A 
ATOM      4  C   UNL     1      -1.410 -16.589 -10.658  0.00  0.00    +0.000 A 
ATOM      5  C   UNL     1      -1.595 -14.476  -9.501  0.00  0.00    +0.000 A 
ATOM      6  C   UNL     1      -1.648 -15.870  -9.486  0.00  0.00    +0.000 A 
ATOM      7  H   UNL     1      -0.947 -16.534 -12.717  0.00  0.00    +0.000 HD
ATOM      8  H   UNL     1      -1.265 -12.715 -10.692  0.00  0.00    +0.000 HD
ATOM      9  H   UNL     1      -1.452 -17.674 -10.646  0.00  0.00    +0.000 HD
ATOM     10  H   UNL     1      -1.780 -13.917  -8.588  0.00  0.00    +0.000 HD
ATOM     11  H   UNL     1      -1.873 -16.396  -8.564  0.00  0.00    +0.000 HD
ENDROOT
BRANCH   1  12
ATOM     12  O   UNL     1      -0.785 -13.862 -13.016  0.00  0.00    +0.000 OA
BRANCH  12  13
ATOM     13  C   UNL     1       0.412 -13.086 -13.045  0.00  0.00    +0.000 C 
ATOM     14  H   UNL     1       0.603 -12.604 -12.080  0.00  0.00    +0.000 HD
ATOM     15  H   UNL     1       0.406 -12.370 -13.873  0.00  0.00    +0.000 HD
ATOM     16  H   UNL     1       1.242 -13.778 -13.225  0.00  0.00    +0.000 HD
ENDBRANCH  12  13
ENDBRANCH   1  12
TORSDOF 2
ENDMDL
MODEL 9
REMARK VINA RESULT:    -3.656     26.100     27.184
REMARK INTER + INTRA:          -4.004
REMARK INTER:                  -3.977
REMARK INTRA:                  -0.027
REMARK UNBOUND:                -0.027
REMARK  Name = 7519
REMARK  2 active torsions:
REMARK  status: ('A' for Active; 'I' for Inactive)
REMARK    1  A    between atoms: O_1  and  C_2
REMARK    2  A    between atoms: O_1  and  C_8
REMARK                            x       y       z     vdW  Elec       q    Type
REMARK                         _______ _______ _______ _____ _____    ______ ____
ROOT
ATOM      1  C   UNL     1     -17.547  -9.703   2.638  0.00  0.00    +0.000 A 
ATOM      2  C   UNL     1     -16.643  -8.706   2.274  0.00  0.00    +0.000 A 
ATOM      3  C   UNL     1     -18.073 -10.556   1.668  0.00  0.00    +0.000 A 
ATOM      4  C   UNL     1     -16.264  -8.561   0.939  0.00  0.00    +0.000 A 
ATOM      5  C   UNL     1     -17.695 -10.413   0.333  0.00  0.00    +0.000 A 
ATOM      6  C   UNL     1     -16.791  -9.415  -0.032  0.00  0.00    +0.000 A 
ATOM      7  H   UNL     1     -16.196  -8.010   2.976  0.00  0.00    +0.000 HD
ATOM      8  H   UNL     1     -18.778 -11.336   1.946  0.00  0.00    +0.000 HD
ATOM      9  H   UNL     1     -15.561  -7.785   0.654  0.00  0.00    +0.000 HD
ATOM     10  H   UNL     1     -18.104 -11.076  -0.423  0.00  0.00    +0.000 HD
ATOM     11  H   UNL     1     -16.495  -9.302  -1.070  0.00  0.00    +0.000 HD
ENDROOT
BRANCH   1  12
ATOM     12  O   UNL     1     -17.917  -9.844   3.940  0.00  0.00    +0.000 OA
BRANCH  12  13
ATOM     13  C   UNL     1     -18.162 -11.171   4.406  0.00  0.00    +0.000 C 
ATOM     14  H   UNL     1     -18.111 -11.229   5.499  0.00  0.00    +0.000 HD
ATOM     15  H   UNL     1     -17.502 -11.896   3.920  0.00  0.00    +0.000 HD
ATOM     16  H   UNL     1     -19.187 -11.429   4.121  0.00  0.00    +0.000 HD
ENDBRANCH  12  13
ENDBRANCH   1  12
TORSDOF 2
ENDMDL
MODEL 10
REMARK VINA RESULT:    -3.612     14.905     15.801
REMARK INTER + INTRA:          -3.956
REMARK INTER:                  -3.927
REMARK INTRA:                  -0.029
REMARK UNBOUND:                -0.027
REMARK  Name = 7519
REMARK  2 active torsions:
REMARK  status: ('A' for Active; 'I' for Inactive)
REMARK    1  A    between atoms: O_1  and  C_2
REMARK    2  A    between atoms: O_1  and  C_8
REMARK                            x       y       z     vdW  Elec       q    Type
REMARK                         _______ _______ _______ _____ _____    ______ ____
ROOT
ATOM      1  C   UNL     1       4.081  12.232 -12.706  0.00  0.00    +0.000 A 
ATOM      2  C   UNL     1       3.327  11.790 -11.620  0.00  0.00    +0.000 A 
ATOM      3  C   UNL     1       4.798  13.425 -12.619  0.00  0.00    +0.000 A 
ATOM      4  C   UNL     1       3.288  12.542 -10.445  0.00  0.00    +0.000 A 
ATOM      5  C   UNL     1       4.760  14.178 -11.445  0.00  0.00    +0.000 A 
ATOM      6  C   UNL     1       4.005  13.736 -10.358  0.00  0.00    +0.000 A 
ATOM      7  H   UNL     1       2.747  10.873 -11.620  0.00  0.00    +0.000 HD
ATOM      8  H   UNL     1       5.388  13.775 -13.462  0.00  0.00    +0.000 HD
ATOM      9  H   UNL     1       2.701  12.200  -9.599  0.00  0.00    +0.000 HD
ATOM     10  H   UNL     1       5.318  15.107 -11.376  0.00  0.00    +0.000 HD
ATOM     11  H   UNL     1       3.975  14.321  -9.444  0.00  0.00    +0.000 HD
ENDROOT
BRANCH   1  12
ATOM     12  O   UNL     1       4.119  11.498 -13.852  0.00  0.00    +0.000 OA
BRANCH  12  13
ATOM     13  C   UNL     1       4.442  12.191 -15.057  0.00  0.00    +0.000 C 
ATOM     14  H   UNL     1       4.373  11.533 -15.930  0.00  0.00    +0.000 HD
ATOM     15  H   UNL     1       5.416  12.686 -14.987  0.00  0.00    +0.000 HD
ATOM     16  H   UNL     1       3.692  12.977 -15.189  0.00  0.00    +0.000 HD
ENDBRANCH  12  13
ENDBRANCH   1  12
TORSDOF 2
ENDMDL
