MODEL 1
REMARK VINA RESULT:    -4.406      0.000      0.000
REMARK INTER + INTRA:          -4.406
REMARK INTER:                  -4.406
REMARK INTRA:                   0.000
REMARK UNBOUND:                 0.000
REMARK  Name = 7222
REMARK  0 active torsions:
REMARK  status: ('A' for Active; 'I' for Inactive)
REMARK                            x       y       z     vdW  Elec       q    Type
REMARK                         _______ _______ _______ _____ _____    ______ ____
ROOT
ATOM      1  S   UNL     1      -2.007 -14.883  -6.750  0.00  0.00    +0.000 S 
ATOM      2  N   UNL     1      -0.773 -12.630  -6.530  0.00  0.00    +0.000 NA
ATOM      3  C   UNL     1      -1.458 -14.134  -8.203  0.00  0.00    +0.000 A 
ATOM      4  C   UNL     1      -0.819 -12.932  -7.883  0.00  0.00    +0.000 A 
ATOM      5  C   UNL     1      -1.584 -14.576  -9.529  0.00  0.00    +0.000 A 
ATOM      6  C   UNL     1      -0.288 -12.148  -8.930  0.00  0.00    +0.000 A 
ATOM      7  C   UNL     1      -1.051 -13.782 -10.547  0.00  0.00    +0.000 A 
ATOM      8  C   UNL     1      -0.410 -12.582 -10.254  0.00  0.00    +0.000 A 
ATOM      9  C   UNL     1      -1.364 -13.581  -5.846  0.00  0.00    +0.000 A 
ATOM     10  H   UNL     1      -2.083 -15.511  -9.765  0.00  0.00    +0.000 HD
ATOM     11  H   UNL     1       0.214 -11.210  -8.713  0.00  0.00    +0.000 HD
ATOM     12  H   UNL     1      -1.137 -14.106 -11.580  0.00  0.00    +0.000 HD
ATOM     13  H   UNL     1      -0.001 -11.978 -11.058  0.00  0.00    +0.000 HD
ATOM     14  H   UNL     1      -1.444 -13.549  -4.769  0.00  0.00    +0.000 HD
ENDROOT
TORSDOF 0
ENDMDL
MODEL 2
REMARK VINA RESULT:    -3.993     30.311     31.498
REMARK INTER + INTRA:          -3.993
REMARK INTER:                  -3.993
REMARK INTRA:                   0.000
REMARK UNBOUND:                 0.000
REMARK  Name = 7222
REMARK  0 active torsions:
REMARK  status: ('A' for Active; 'I' for Inactive)
REMARK                            x       y       z     vdW  Elec       q    Type
REMARK                         _______ _______ _______ _____ _____    ______ ____
ROOT
ATOM      1  S   UNL     1      -1.221   9.881  10.846  0.00  0.00    +0.000 S 
ATOM      2  N   UNL     1      -1.843  11.546  12.716  0.00  0.00    +0.000 NA
ATOM      3  C   UNL     1      -1.955   9.240  12.269  0.00  0.00    +0.000 A 
ATOM      4  C   UNL     1      -2.216  10.285  13.159  0.00  0.00    +0.000 A 
ATOM      5  C   UNL     1      -2.275   7.907  12.575  0.00  0.00    +0.000 A 
ATOM      6  C   UNL     1      -2.820   9.984  14.399  0.00  0.00    +0.000 A 
ATOM      7  C   UNL     1      -2.872   7.636  13.808  0.00  0.00    +0.000 A 
ATOM      8  C   UNL     1      -3.143   8.660  14.711  0.00  0.00    +0.000 A 
ATOM      9  C   UNL     1      -1.312  11.452  11.519  0.00  0.00    +0.000 A 
ATOM     10  H   UNL     1      -2.067   7.104  11.875  0.00  0.00    +0.000 HD
ATOM     11  H   UNL     1      -3.036  10.775  15.111  0.00  0.00    +0.000 HD
ATOM     12  H   UNL     1      -3.129   6.612  14.065  0.00  0.00    +0.000 HD
ATOM     13  H   UNL     1      -3.607   8.430  15.665  0.00  0.00    +0.000 HD
ATOM     14  H   UNL     1      -0.951  12.317  10.982  0.00  0.00    +0.000 HD
ENDROOT
TORSDOF 0
ENDMDL
MODEL 3
REMARK VINA RESULT:    -3.930     29.161     30.141
REMARK INTER + INTRA:          -3.930
REMARK INTER:                  -3.930
REMARK INTRA:                   0.000
REMARK UNBOUND:                 0.000
REMARK  Name = 7222
REMARK  0 active torsions:
REMARK  status: ('A' for Active; 'I' for Inactive)
REMARK                            x       y       z     vdW  Elec       q    Type
REMARK                         _______ _______ _______ _____ _____    ______ ____
ROOT
ATOM      1  S   UNL     1      -1.470  11.988  10.488  0.00  0.00    +0.000 S 
ATOM      2  N   UNL     1      -2.812   9.975  11.382  0.00  0.00    +0.000 NA
ATOM      3  C   UNL     1      -0.699  10.446  10.465  0.00  0.00    +0.000 A 
ATOM      4  C   UNL     1      -1.576   9.489  10.984  0.00  0.00    +0.000 A 
ATOM      5  C   UNL     1       0.589  10.107  10.019  0.00  0.00    +0.000 A 
ATOM      6  C   UNL     1      -1.147   8.146  11.058  0.00  0.00    +0.000 A 
ATOM      7  C   UNL     1       0.990   8.772  10.104  0.00  0.00    +0.000 A 
ATOM      8  C   UNL     1       0.134   7.801  10.617  0.00  0.00    +0.000 A 
ATOM      9  C   UNL     1      -2.866  11.269  11.168  0.00  0.00    +0.000 A 
ATOM     10  H   UNL     1       1.261  10.859   9.618  0.00  0.00    +0.000 HD
ATOM     11  H   UNL     1      -1.806   7.381  11.457  0.00  0.00    +0.000 HD
ATOM     12  H   UNL     1       1.982   8.488   9.765  0.00  0.00    +0.000 HD
ATOM     13  H   UNL     1       0.463   6.768  10.675  0.00  0.00    +0.000 HD
ATOM     14  H   UNL     1      -3.742  11.855  11.407  0.00  0.00    +0.000 HD
ENDROOT
TORSDOF 0
ENDMDL
MODEL 4
REMARK VINA RESULT:    -3.813     18.114     19.223
REMARK INTER + INTRA:          -3.813
REMARK INTER:                  -3.813
REMARK INTRA:                   0.000
REMARK UNBOUND:                 0.000
REMARK  Name = 7222
REMARK  0 active torsions:
REMARK  status: ('A' for Active; 'I' for Inactive)
REMARK                            x       y       z     vdW  Elec       q    Type
REMARK                         _______ _______ _______ _____ _____    ______ ____
ROOT
ATOM      1  S   UNL     1     -18.077 -10.823   4.137  0.00  0.00    +0.000 S 
ATOM      2  N   UNL     1     -16.523 -12.384   2.795  0.00  0.00    +0.000 NA
ATOM      3  C   UNL     1     -17.133 -10.115   2.880  0.00  0.00    +0.000 A 
ATOM      4  C   UNL     1     -16.361 -11.110   2.272  0.00  0.00    +0.000 A 
ATOM      5  C   UNL     1     -17.079  -8.776   2.461  0.00  0.00    +0.000 A 
ATOM      6  C   UNL     1     -15.506 -10.749   1.208  0.00  0.00    +0.000 A 
ATOM      7  C   UNL     1     -16.225  -8.445   1.406  0.00  0.00    +0.000 A 
ATOM      8  C   UNL     1     -15.447  -9.417   0.786  0.00  0.00    +0.000 A 
ATOM      9  C   UNL     1     -17.396 -12.351   3.774  0.00  0.00    +0.000 A 
ATOM     10  H   UNL     1     -17.683  -8.012   2.941  0.00  0.00    +0.000 HD
ATOM     11  H   UNL     1     -14.895 -11.500   0.717  0.00  0.00    +0.000 HD
ATOM     12  H   UNL     1     -16.168  -7.414   1.067  0.00  0.00    +0.000 HD
ATOM     13  H   UNL     1     -14.789  -9.142  -0.033  0.00  0.00    +0.000 HD
ATOM     14  H   UNL     1     -17.675 -13.237   4.326  0.00  0.00    +0.000 HD
ENDROOT
TORSDOF 0
ENDMDL
MODEL 5
REMARK VINA RESULT:    -3.767     18.030     19.458
REMARK INTER + INTRA:          -3.767
REMARK INTER:                  -3.767
REMARK INTRA:                   0.000
REMARK UNBOUND:                 0.000
REMARK  Name = 7222
REMARK  0 active torsions:
REMARK  status: ('A' for Active; 'I' for Inactive)
REMARK                            x       y       z     vdW  Elec       q    Type
REMARK                         _______ _______ _______ _____ _____    ______ ____
ROOT
ATOM      1  S   UNL     1     -17.826 -11.576  -0.412  0.00  0.00    +0.000 S 
ATOM      2  N   UNL     1     -16.201  -9.589  -0.165  0.00  0.00    +0.000 NA
ATOM      3  C   UNL     1     -17.820 -10.738   1.095  0.00  0.00    +0.000 A 
ATOM      4  C   UNL     1     -16.882  -9.702   1.037  0.00  0.00    +0.000 A 
ATOM      5  C   UNL     1     -18.589 -10.979   2.244  0.00  0.00    +0.000 A 
ATOM      6  C   UNL     1     -16.710  -8.881   2.172  0.00  0.00    +0.000 A 
ATOM      7  C   UNL     1     -18.400 -10.152   3.354  0.00  0.00    +0.000 A 
ATOM      8  C   UNL     1     -17.473  -9.115   3.321  0.00  0.00    +0.000 A 
ATOM      9  C   UNL     1     -16.615 -10.518  -0.995  0.00  0.00    +0.000 A 
ATOM     10  H   UNL     1     -19.314 -11.786   2.277  0.00  0.00    +0.000 HD
ATOM     11  H   UNL     1     -15.990  -8.069   2.157  0.00  0.00    +0.000 HD
ATOM     12  H   UNL     1     -18.985 -10.321   4.254  0.00  0.00    +0.000 HD
ATOM     13  H   UNL     1     -17.339  -8.482   4.193  0.00  0.00    +0.000 HD
ATOM     14  H   UNL     1     -16.215 -10.615  -1.995  0.00  0.00    +0.000 HD
ENDROOT
TORSDOF 0
ENDMDL
MODEL 6
REMARK VINA RESULT:    -3.760     18.542     18.888
REMARK INTER + INTRA:          -3.760
REMARK INTER:                  -3.760
REMARK INTRA:                   0.000
REMARK UNBOUND:                 0.000
REMARK  Name = 7222
REMARK  0 active torsions:
REMARK  status: ('A' for Active; 'I' for Inactive)
REMARK                            x       y       z     vdW  Elec       q    Type
REMARK                         _______ _______ _______ _____ _____    ______ ____
ROOT
ATOM      1  S   UNL     1      -3.991   5.062 -13.109  0.00  0.00    +0.000 S 
ATOM      2  N   UNL     1      -1.499   5.537 -12.650  0.00  0.00    +0.000 NA
ATOM      3  C   UNL     1      -2.838   4.338 -14.166  0.00  0.00    +0.000 A 
ATOM      4  C   UNL     1      -1.552   4.708 -13.761  0.00  0.00    +0.000 A 
ATOM      5  C   UNL     1      -3.055   3.503 -15.274  0.00  0.00    +0.000 A 
ATOM      6  C   UNL     1      -0.446   4.224 -14.492  0.00  0.00    +0.000 A 
ATOM      7  C   UNL     1      -1.944   3.037 -15.980  0.00  0.00    +0.000 A 
ATOM      8  C   UNL     1      -0.654   3.392 -15.597  0.00  0.00    +0.000 A 
ATOM      9  C   UNL     1      -2.716   5.786 -12.228  0.00  0.00    +0.000 A 
ATOM     10  H   UNL     1      -4.059   3.222 -15.579  0.00  0.00    +0.000 HD
ATOM     11  H   UNL     1       0.565   4.494 -14.202  0.00  0.00    +0.000 HD
ATOM     12  H   UNL     1      -2.089   2.390 -16.841  0.00  0.00    +0.000 HD
ATOM     13  H   UNL     1       0.198   3.020 -16.158  0.00  0.00    +0.000 HD
ATOM     14  H   UNL     1      -2.909   6.414 -11.369  0.00  0.00    +0.000 HD
ENDROOT
TORSDOF 0
ENDMDL
MODEL 7
REMARK VINA RESULT:    -3.708     17.974     19.025
REMARK INTER + INTRA:          -3.708
REMARK INTER:                  -3.708
REMARK INTRA:                   0.000
REMARK UNBOUND:                 0.000
REMARK  Name = 7222
REMARK  0 active torsions:
REMARK  status: ('A' for Active; 'I' for Inactive)
REMARK                            x       y       z     vdW  Elec       q    Type
REMARK                         _______ _______ _______ _____ _____    ______ ____
ROOT
ATOM      1  S   UNL     1       6.154 -14.236 -25.969  0.00  0.00    +0.000 S 
ATOM      2  N   UNL     1       4.717 -12.536 -24.667  0.00  0.00    +0.000 NA
ATOM      3  C   UNL     1       6.699 -12.601 -25.932  0.00  0.00    +0.000 A 
ATOM      4  C   UNL     1       5.797 -11.836 -25.185  0.00  0.00    +0.000 A 
ATOM      5  C   UNL     1       7.841 -12.035 -26.520  0.00  0.00    +0.000 A 
ATOM      6  C   UNL     1       6.050 -10.457 -25.024  0.00  0.00    +0.000 A 
ATOM      7  C   UNL     1       8.068 -10.668 -26.346  0.00  0.00    +0.000 A 
ATOM      8  C   UNL     1       7.185  -9.886 -25.607  0.00  0.00    +0.000 A 
ATOM      9  C   UNL     1       4.803 -13.799 -25.015  0.00  0.00    +0.000 A 
ATOM     10  H   UNL     1       8.534 -12.639 -27.098  0.00  0.00    +0.000 HD
ATOM     11  H   UNL     1       5.367  -9.838 -24.450  0.00  0.00    +0.000 HD
ATOM     12  H   UNL     1       8.946 -10.210 -26.792  0.00  0.00    +0.000 HD
ATOM     13  H   UNL     1       7.378  -8.825 -25.482  0.00  0.00    +0.000 HD
ATOM     14  H   UNL     1       4.063 -14.528 -24.718  0.00  0.00    +0.000 HD
ENDROOT
TORSDOF 0
ENDMDL
MODEL 8
REMARK VINA RESULT:    -3.708     18.491     18.951
REMARK INTER + INTRA:          -3.708
REMARK INTER:                  -3.708
REMARK INTRA:                   0.000
REMARK UNBOUND:                 0.000
REMARK  Name = 7222
REMARK  0 active torsions:
REMARK  status: ('A' for Active; 'I' for Inactive)
REMARK                            x       y       z     vdW  Elec       q    Type
REMARK                         _______ _______ _______ _____ _____    ______ ____
ROOT
ATOM      1  S   UNL     1      -2.401   5.801 -12.350  0.00  0.00    +0.000 S 
ATOM      2  N   UNL     1      -4.368   4.655 -13.561  0.00  0.00    +0.000 NA
ATOM      3  C   UNL     1      -2.020   4.751 -13.663  0.00  0.00    +0.000 A 
ATOM      4  C   UNL     1      -3.206   4.228 -14.188  0.00  0.00    +0.000 A 
ATOM      5  C   UNL     1      -0.764   4.413 -14.190  0.00  0.00    +0.000 A 
ATOM      6  C   UNL     1      -3.128   3.337 -15.279  0.00  0.00    +0.000 A 
ATOM      7  C   UNL     1      -0.714   3.529 -15.270  0.00  0.00    +0.000 A 
ATOM      8  C   UNL     1      -1.881   2.996 -15.810  0.00  0.00    +0.000 A 
ATOM      9  C   UNL     1      -4.064   5.480 -12.586  0.00  0.00    +0.000 A 
ATOM     10  H   UNL     1       0.150   4.826 -13.774  0.00  0.00    +0.000 HD
ATOM     11  H   UNL     1      -4.032   2.915 -15.708  0.00  0.00    +0.000 HD
ATOM     12  H   UNL     1       0.248   3.255 -15.694  0.00  0.00    +0.000 HD
ATOM     13  H   UNL     1      -1.823   2.310 -16.650  0.00  0.00    +0.000 HD
ATOM     14  H   UNL     1      -4.821   5.934 -11.962  0.00  0.00    +0.000 HD
ENDROOT
TORSDOF 0
ENDMDL
MODEL 9
REMARK VINA RESULT:    -3.663     26.917     27.973
REMARK INTER + INTRA:          -3.663
REMARK INTER:                  -3.663
REMARK INTRA:                   0.000
REMARK UNBOUND:                 0.000
REMARK  Name = 7222
REMARK  0 active torsions:
REMARK  status: ('A' for Active; 'I' for Inactive)
REMARK                            x       y       z     vdW  Elec       q    Type
REMARK                         _______ _______ _______ _____ _____    ______ ____
ROOT
ATOM      1  S   UNL     1       5.620  15.577 -11.499  0.00  0.00    +0.000 S 
ATOM      2  N   UNL     1       4.150  14.689  -9.575  0.00  0.00    +0.000 NA
ATOM      3  C   UNL     1       4.845  14.054 -11.730  0.00  0.00    +0.000 A 
ATOM      4  C   UNL     1       4.099  13.744 -10.588  0.00  0.00    +0.000 A 
ATOM      5  C   UNL     1       4.892  13.197 -12.840  0.00  0.00    +0.000 A 
ATOM      6  C   UNL     1       3.377  12.531 -10.560  0.00  0.00    +0.000 A 
ATOM      7  C   UNL     1       4.169  12.003 -12.787  0.00  0.00    +0.000 A 
ATOM      8  C   UNL     1       3.420  11.672 -11.662  0.00  0.00    +0.000 A 
ATOM      9  C   UNL     1       4.917  15.689  -9.943  0.00  0.00    +0.000 A 
ATOM     10  H   UNL     1       5.475  13.449 -13.721  0.00  0.00    +0.000 HD
ATOM     11  H   UNL     1       2.789  12.263  -9.688  0.00  0.00    +0.000 HD
ATOM     12  H   UNL     1       4.192  11.325 -13.636  0.00  0.00    +0.000 HD
ATOM     13  H   UNL     1       2.863  10.739 -11.639  0.00  0.00    +0.000 HD
ATOM     14  H   UNL     1       5.097  16.540  -9.303  0.00  0.00    +0.000 HD
ENDROOT
TORSDOF 0
ENDMDL
MODEL 10
REMARK VINA RESULT:    -3.651     18.493     19.796
REMARK INTER + INTRA:          -3.651
REMARK INTER:                  -3.651
REMARK INTRA:                   0.000
REMARK UNBOUND:                 0.000
REMARK  Name = 7222
REMARK  0 active torsions:
REMARK  status: ('A' for Active; 'I' for Inactive)
REMARK                            x       y       z     vdW  Elec       q    Type
REMARK                         _______ _______ _______ _____ _____    ______ ____
ROOT
ATOM      1  S   UNL     1       6.554 -12.107 -28.063  0.00  0.00    +0.000 S 
ATOM      2  N   UNL     1       7.445  -9.823 -27.264  0.00  0.00    +0.000 NA
ATOM      3  C   UNL     1       5.879 -11.454 -26.617  0.00  0.00    +0.000 A 
ATOM      4  C   UNL     1       6.483 -10.222 -26.347  0.00  0.00    +0.000 A 
ATOM      5  C   UNL     1       4.887 -11.992 -25.782  0.00  0.00    +0.000 A 
ATOM      6  C   UNL     1       6.078  -9.506 -25.201  0.00  0.00    +0.000 A 
ATOM      7  C   UNL     1       4.504 -11.263 -24.653  0.00  0.00    +0.000 A 
ATOM      8  C   UNL     1       5.091 -10.035 -24.364  0.00  0.00    +0.000 A 
ATOM      9  C   UNL     1       7.564 -10.733 -28.202  0.00  0.00    +0.000 A 
ATOM     10  H   UNL     1       4.425 -12.949 -26.002  0.00  0.00    +0.000 HD
ATOM     11  H   UNL     1       6.529  -8.546 -24.965  0.00  0.00    +0.000 HD
ATOM     12  H   UNL     1       3.738 -11.661 -23.993  0.00  0.00    +0.000 HD
ATOM     13  H   UNL     1       4.780  -9.482 -23.482  0.00  0.00    +0.000 HD
ATOM     14  H   UNL     1       8.260 -10.626 -29.021  0.00  0.00    +0.000 HD
ENDROOT
TORSDOF 0
ENDMDL
