MODEL 1
REMARK VINA RESULT:    -4.605      0.000      0.000
REMARK INTER + INTRA:          -4.887
REMARK INTER:                  -4.874
REMARK INTRA:                  -0.013
REMARK UNBOUND:                -0.012
REMARK  Name = 240
REMARK  1 active torsions:
REMARK  status: ('A' for Active; 'I' for Inactive)
REMARK    1  A    between atoms: C_2  and  C_8
REMARK                            x       y       z     vdW  Elec       q    Type
REMARK                         _______ _______ _______ _____ _____    ______ ____
ROOT
ATOM      1  C   UNL     1      -1.047 -13.199  -7.341  0.00  0.00    +0.000 A 
ATOM      2  C   UNL     1      -1.636 -14.276  -8.004  0.00  0.00    +0.000 A 
ATOM      3  C   UNL     1      -0.428 -12.184  -8.071  0.00  0.00    +0.000 A 
ATOM      4  C   UNL     1      -1.607 -14.337  -9.397  0.00  0.00    +0.000 A 
ATOM      5  C   UNL     1      -0.398 -12.246  -9.464  0.00  0.00    +0.000 A 
ATOM      6  C   UNL     1      -0.988 -13.323 -10.127  0.00  0.00    +0.000 A 
ATOM      7  H   UNL     1      -2.123 -15.074  -7.449  0.00  0.00    +0.000 HD
ATOM      8  H   UNL     1       0.038 -11.337  -7.575  0.00  0.00    +0.000 HD
ATOM      9  H   UNL     1      -2.066 -15.175  -9.914  0.00  0.00    +0.000 HD
ATOM     10  H   UNL     1       0.084 -11.456 -10.032  0.00  0.00    +0.000 HD
ATOM     11  H   UNL     1      -0.965 -13.370 -11.211  0.00  0.00    +0.000 HD
ENDROOT
BRANCH   1  13
ATOM     12  O   UNL     1      -0.289 -12.455  -5.226  0.00  0.00    +0.000 OA
ATOM     13  C   UNL     1      -1.078 -13.135  -5.888  0.00  0.00    +0.000 C 
ATOM     14  H   UNL     1      -1.855 -13.733  -5.382  0.00  0.00    +0.000 HD
ENDBRANCH   1  13
TORSDOF 1
ENDMDL
MODEL 2
REMARK VINA RESULT:    -4.595      2.552      4.019
REMARK INTER + INTRA:          -4.876
REMARK INTER:                  -4.862
REMARK INTRA:                  -0.014
REMARK UNBOUND:                -0.012
REMARK  Name = 240
REMARK  1 active torsions:
REMARK  status: ('A' for Active; 'I' for Inactive)
REMARK    1  A    between atoms: C_2  and  C_8
REMARK                            x       y       z     vdW  Elec       q    Type
REMARK                         _______ _______ _______ _____ _____    ______ ____
ROOT
ATOM      1  C   UNL     1      -0.731 -13.278 -10.196  0.00  0.00    +0.000 A 
ATOM      2  C   UNL     1      -0.214 -12.207  -9.467  0.00  0.00    +0.000 A 
ATOM      3  C   UNL     1      -1.509 -14.245  -9.559  0.00  0.00    +0.000 A 
ATOM      4  C   UNL     1      -0.474 -12.103  -8.101  0.00  0.00    +0.000 A 
ATOM      5  C   UNL     1      -1.768 -14.141  -8.193  0.00  0.00    +0.000 A 
ATOM      6  C   UNL     1      -1.251 -13.070  -7.464  0.00  0.00    +0.000 A 
ATOM      7  H   UNL     1       0.394 -11.446  -9.950  0.00  0.00    +0.000 HD
ATOM      8  H   UNL     1      -1.922 -15.087 -10.107  0.00  0.00    +0.000 HD
ATOM      9  H   UNL     1      -0.071 -11.269  -7.533  0.00  0.00    +0.000 HD
ATOM     10  H   UNL     1      -2.374 -14.894  -7.696  0.00  0.00    +0.000 HD
ATOM     11  H   UNL     1      -1.454 -12.989  -6.400  0.00  0.00    +0.000 HD
ENDROOT
BRANCH   1  13
ATOM     12  O   UNL     1       0.330 -12.646 -12.215  0.00  0.00    +0.000 OA
ATOM     13  C   UNL     1      -0.459 -13.386 -11.622  0.00  0.00    +0.000 C 
ATOM     14  H   UNL     1      -0.999 -14.177 -12.170  0.00  0.00    +0.000 HD
ENDBRANCH   1  13
TORSDOF 1
ENDMDL
MODEL 3
REMARK VINA RESULT:    -4.584      2.016      2.927
REMARK INTER + INTRA:          -4.865
REMARK INTER:                  -4.851
REMARK INTRA:                  -0.014
REMARK UNBOUND:                -0.012
REMARK  Name = 240
REMARK  1 active torsions:
REMARK  status: ('A' for Active; 'I' for Inactive)
REMARK    1  A    between atoms: C_2  and  C_8
REMARK                            x       y       z     vdW  Elec       q    Type
REMARK                         _______ _______ _______ _____ _____    ______ ____
ROOT
ATOM      1  C   UNL     1      -0.472 -12.833 -10.232  0.00  0.00    +0.000 A 
ATOM      2  C   UNL     1      -1.511 -13.715 -10.526  0.00  0.00    +0.000 A 
ATOM      3  C   UNL     1       0.475 -12.519 -11.208  0.00  0.00    +0.000 A 
ATOM      4  C   UNL     1      -1.605 -14.283 -11.797  0.00  0.00    +0.000 A 
ATOM      5  C   UNL     1       0.381 -13.088 -12.478  0.00  0.00    +0.000 A 
ATOM      6  C   UNL     1      -0.659 -13.970 -12.772  0.00  0.00    +0.000 A 
ATOM      7  H   UNL     1      -2.257 -13.968  -9.776  0.00  0.00    +0.000 HD
ATOM      8  H   UNL     1       1.293 -11.835 -11.001  0.00  0.00    +0.000 HD
ATOM      9  H   UNL     1      -2.415 -14.970 -12.026  0.00  0.00    +0.000 HD
ATOM     10  H   UNL     1       1.118 -12.845 -13.238  0.00  0.00    +0.000 HD
ATOM     11  H   UNL     1      -0.732 -14.413 -13.761  0.00  0.00    +0.000 HD
ENDROOT
BRANCH   1  13
ATOM     12  O   UNL     1      -1.089 -12.581  -7.961  0.00  0.00    +0.000 OA
ATOM     13  C   UNL     1      -0.374 -12.240  -8.907  0.00  0.00    +0.000 C 
ATOM     14  H   UNL     1       0.385 -11.451  -8.773  0.00  0.00    +0.000 HD
ENDBRANCH   1  13
TORSDOF 1
ENDMDL
MODEL 4
REMARK VINA RESULT:    -4.561      2.939      3.936
REMARK INTER + INTRA:          -4.840
REMARK INTER:                  -4.830
REMARK INTRA:                  -0.011
REMARK UNBOUND:                -0.012
REMARK  Name = 240
REMARK  1 active torsions:
REMARK  status: ('A' for Active; 'I' for Inactive)
REMARK    1  A    between atoms: C_2  and  C_8
REMARK                            x       y       z     vdW  Elec       q    Type
REMARK                         _______ _______ _______ _____ _____    ______ ____
ROOT
ATOM      1  C   UNL     1      -1.088 -13.996 -10.492  0.00  0.00    +0.000 A 
ATOM      2  C   UNL     1      -1.688 -14.525  -9.349  0.00  0.00    +0.000 A 
ATOM      3  C   UNL     1      -0.380 -12.796 -10.417  0.00  0.00    +0.000 A 
ATOM      4  C   UNL     1      -1.581 -13.853  -8.131  0.00  0.00    +0.000 A 
ATOM      5  C   UNL     1      -0.274 -12.125  -9.199  0.00  0.00    +0.000 A 
ATOM      6  C   UNL     1      -0.874 -12.654  -8.056  0.00  0.00    +0.000 A 
ATOM      7  H   UNL     1      -2.243 -15.459  -9.392  0.00  0.00    +0.000 HD
ATOM      8  H   UNL     1       0.095 -12.366 -11.294  0.00  0.00    +0.000 HD
ATOM      9  H   UNL     1      -2.048 -14.265  -7.241  0.00  0.00    +0.000 HD
ATOM     10  H   UNL     1       0.277 -11.190  -9.140  0.00  0.00    +0.000 HD
ATOM     11  H   UNL     1      -0.790 -12.132  -7.108  0.00  0.00    +0.000 HD
ENDROOT
BRANCH   1  13
ATOM     12  O   UNL     1      -1.570 -14.147 -12.804  0.00  0.00    +0.000 OA
ATOM     13  C   UNL     1      -1.200 -14.696 -11.763  0.00  0.00    +0.000 C 
ATOM     14  H   UNL     1      -0.934 -15.766 -11.763  0.00  0.00    +0.000 HD
ENDBRANCH   1  13
TORSDOF 1
ENDMDL
MODEL 5
REMARK VINA RESULT:    -4.470     23.633     24.095
REMARK INTER + INTRA:          -4.743
REMARK INTER:                  -4.734
REMARK INTRA:                  -0.009
REMARK UNBOUND:                -0.012
REMARK  Name = 240
REMARK  1 active torsions:
REMARK  status: ('A' for Active; 'I' for Inactive)
REMARK    1  A    between atoms: C_2  and  C_8
REMARK                            x       y       z     vdW  Elec       q    Type
REMARK                         _______ _______ _______ _____ _____    ______ ____
ROOT
ATOM      1  C   UNL     1      10.284   7.561  -1.663  0.00  0.00    +0.000 A 
ATOM      2  C   UNL     1       9.599   7.813  -2.852  0.00  0.00    +0.000 A 
ATOM      3  C   UNL     1      11.465   6.820  -1.682  0.00  0.00    +0.000 A 
ATOM      4  C   UNL     1      10.096   7.323  -4.060  0.00  0.00    +0.000 A 
ATOM      5  C   UNL     1      11.961   6.330  -2.890  0.00  0.00    +0.000 A 
ATOM      6  C   UNL     1      11.277   6.582  -4.079  0.00  0.00    +0.000 A 
ATOM      7  H   UNL     1       8.677   8.389  -2.853  0.00  0.00    +0.000 HD
ATOM      8  H   UNL     1      12.015   6.612  -0.768  0.00  0.00    +0.000 HD
ATOM      9  H   UNL     1       9.562   7.519  -4.986  0.00  0.00    +0.000 HD
ATOM     10  H   UNL     1      12.882   5.753  -2.905  0.00  0.00    +0.000 HD
ATOM     11  H   UNL     1      11.663   6.201  -5.019  0.00  0.00    +0.000 HD
ENDROOT
BRANCH   1  13
ATOM     12  O   UNL     1       9.011   7.425   0.328  0.00  0.00    +0.000 OA
ATOM     13  C   UNL     1       9.766   8.072  -0.403  0.00  0.00    +0.000 C 
ATOM     14  H   UNL     1      10.081   9.089  -0.115  0.00  0.00    +0.000 HD
ENDBRANCH   1  13
TORSDOF 1
ENDMDL
MODEL 6
REMARK VINA RESULT:    -4.334     16.670     17.997
REMARK INTER + INTRA:          -4.600
REMARK INTER:                  -4.590
REMARK INTRA:                  -0.010
REMARK UNBOUND:                -0.012
REMARK  Name = 240
REMARK  1 active torsions:
REMARK  status: ('A' for Active; 'I' for Inactive)
REMARK    1  A    between atoms: C_2  and  C_8
REMARK                            x       y       z     vdW  Elec       q    Type
REMARK                         _______ _______ _______ _____ _____    ______ ____
ROOT
ATOM      1  C   UNL     1       4.506 -10.297 -24.393  0.00  0.00    +0.000 A 
ATOM      2  C   UNL     1       5.477  -9.325 -24.633  0.00  0.00    +0.000 A 
ATOM      3  C   UNL     1       4.764 -11.632 -24.701  0.00  0.00    +0.000 A 
ATOM      4  C   UNL     1       6.707  -9.688 -25.182  0.00  0.00    +0.000 A 
ATOM      5  C   UNL     1       5.994 -11.995 -25.250  0.00  0.00    +0.000 A 
ATOM      6  C   UNL     1       6.965 -11.023 -25.490  0.00  0.00    +0.000 A 
ATOM      7  H   UNL     1       5.290  -8.280 -24.397  0.00  0.00    +0.000 HD
ATOM      8  H   UNL     1       4.023 -12.406 -24.523  0.00  0.00    +0.000 HD
ATOM      9  H   UNL     1       7.463  -8.931 -25.369  0.00  0.00    +0.000 HD
ATOM     10  H   UNL     1       6.196 -13.036 -25.491  0.00  0.00    +0.000 HD
ATOM     11  H   UNL     1       7.922 -11.306 -25.918  0.00  0.00    +0.000 HD
ENDROOT
BRANCH   1  13
ATOM     12  O   UNL     1       2.824 -10.331 -22.728  0.00  0.00    +0.000 OA
ATOM     13  C   UNL     1       3.223  -9.917 -23.820  0.00  0.00    +0.000 C 
ATOM     14  H   UNL     1       2.601  -9.226 -24.413  0.00  0.00    +0.000 HD
ENDBRANCH   1  13
TORSDOF 1
ENDMDL
MODEL 7
REMARK VINA RESULT:    -4.313      2.010      3.288
REMARK INTER + INTRA:          -4.577
REMARK INTER:                  -4.567
REMARK INTRA:                  -0.010
REMARK UNBOUND:                -0.012
REMARK  Name = 240
REMARK  1 active torsions:
REMARK  status: ('A' for Active; 'I' for Inactive)
REMARK    1  A    between atoms: C_2  and  C_8
REMARK                            x       y       z     vdW  Elec       q    Type
REMARK                         _______ _______ _______ _____ _____    ______ ____
ROOT
ATOM      1  C   UNL     1      -0.842 -12.555  -7.878  0.00  0.00    +0.000 A 
ATOM      2  C   UNL     1      -1.643 -13.690  -7.751  0.00  0.00    +0.000 A 
ATOM      3  C   UNL     1      -0.232 -12.003  -6.751  0.00  0.00    +0.000 A 
ATOM      4  C   UNL     1      -1.835 -14.273  -6.499  0.00  0.00    +0.000 A 
ATOM      5  C   UNL     1      -0.424 -12.587  -5.499  0.00  0.00    +0.000 A 
ATOM      6  C   UNL     1      -1.226 -13.721  -5.372  0.00  0.00    +0.000 A 
ATOM      7  H   UNL     1      -2.125 -14.132  -8.621  0.00  0.00    +0.000 HD
ATOM      8  H   UNL     1       0.396 -11.120  -6.826  0.00  0.00    +0.000 HD
ATOM      9  H   UNL     1      -2.460 -15.156  -6.401  0.00  0.00    +0.000 HD
ATOM     10  H   UNL     1       0.051 -12.157  -4.621  0.00  0.00    +0.000 HD
ATOM     11  H   UNL     1      -1.375 -14.175  -4.397  0.00  0.00    +0.000 HD
ENDROOT
BRANCH   1  13
ATOM     12  O   UNL     1      -0.070 -12.523 -10.115  0.00  0.00    +0.000 OA
ATOM     13  C   UNL     1      -0.642 -11.948  -9.184  0.00  0.00    +0.000 C 
ATOM     14  H   UNL     1      -1.031 -10.925  -9.319  0.00  0.00    +0.000 HD
ENDBRANCH   1  13
TORSDOF 1
ENDMDL
MODEL 8
REMARK VINA RESULT:    -4.147      2.078      2.922
REMARK INTER + INTRA:          -4.402
REMARK INTER:                  -4.391
REMARK INTRA:                  -0.012
REMARK UNBOUND:                -0.012
REMARK  Name = 240
REMARK  1 active torsions:
REMARK  status: ('A' for Active; 'I' for Inactive)
REMARK    1  A    between atoms: C_2  and  C_8
REMARK                            x       y       z     vdW  Elec       q    Type
REMARK                         _______ _______ _______ _____ _____    ______ ____
ROOT
ATOM      1  C   UNL     1      -1.789 -14.472  -8.743  0.00  0.00    +0.000 A 
ATOM      2  C   UNL     1      -1.492 -13.703  -7.618  0.00  0.00    +0.000 A 
ATOM      3  C   UNL     1      -1.357 -14.058 -10.004  0.00  0.00    +0.000 A 
ATOM      4  C   UNL     1      -0.763 -12.522  -7.752  0.00  0.00    +0.000 A 
ATOM      5  C   UNL     1      -0.628 -12.877 -10.138  0.00  0.00    +0.000 A 
ATOM      6  C   UNL     1      -0.331 -12.108  -9.012  0.00  0.00    +0.000 A 
ATOM      7  H   UNL     1      -1.822 -14.012  -6.629  0.00  0.00    +0.000 HD
ATOM      8  H   UNL     1      -1.577 -14.641 -10.894  0.00  0.00    +0.000 HD
ATOM      9  H   UNL     1      -0.532 -11.923  -6.875  0.00  0.00    +0.000 HD
ATOM     10  H   UNL     1      -0.292 -12.555 -11.119  0.00  0.00    +0.000 HD
ATOM     11  H   UNL     1       0.236 -11.189  -9.117  0.00  0.00    +0.000 HD
ENDROOT
BRANCH   1  13
ATOM     12  O   UNL     1      -3.526 -15.812  -7.856  0.00  0.00    +0.000 OA
ATOM     13  C   UNL     1      -2.550 -15.704  -8.603  0.00  0.00    +0.000 C 
ATOM     14  H   UNL     1      -2.214 -16.564  -9.206  0.00  0.00    +0.000 HD
ENDBRANCH   1  13
TORSDOF 1
ENDMDL
MODEL 9
REMARK VINA RESULT:    -4.113     17.699     18.511
REMARK INTER + INTRA:          -4.365
REMARK INTER:                  -4.353
REMARK INTRA:                  -0.012
REMARK UNBOUND:                -0.012
REMARK  Name = 240
REMARK  1 active torsions:
REMARK  status: ('A' for Active; 'I' for Inactive)
REMARK    1  A    between atoms: C_2  and  C_8
REMARK                            x       y       z     vdW  Elec       q    Type
REMARK                         _______ _______ _______ _____ _____    ______ ____
ROOT
ATOM      1  C   UNL     1       5.960 -11.583 -25.072  0.00  0.00    +0.000 A 
ATOM      2  C   UNL     1       6.679 -10.387 -25.074  0.00  0.00    +0.000 A 
ATOM      3  C   UNL     1       4.597 -11.577 -24.773  0.00  0.00    +0.000 A 
ATOM      4  C   UNL     1       6.035  -9.186 -24.776  0.00  0.00    +0.000 A 
ATOM      5  C   UNL     1       3.954 -10.375 -24.476  0.00  0.00    +0.000 A 
ATOM      6  C   UNL     1       4.673  -9.180 -24.478  0.00  0.00    +0.000 A 
ATOM      7  H   UNL     1       7.741 -10.376 -25.305  0.00  0.00    +0.000 HD
ATOM      8  H   UNL     1       4.018 -12.496 -24.766  0.00  0.00    +0.000 HD
ATOM      9  H   UNL     1       6.595  -8.255 -24.778  0.00  0.00    +0.000 HD
ATOM     10  H   UNL     1       2.893 -10.371 -24.243  0.00  0.00    +0.000 HD
ATOM     11  H   UNL     1       4.172  -8.245 -24.246  0.00  0.00    +0.000 HD
ENDROOT
BRANCH   1  13
ATOM     12  O   UNL     1       6.342 -13.907 -24.842  0.00  0.00    +0.000 OA
ATOM     13  C   UNL     1       6.631 -12.835 -25.383  0.00  0.00    +0.000 C 
ATOM     14  H   UNL     1       7.431 -12.794 -26.141  0.00  0.00    +0.000 HD
ENDBRANCH   1  13
TORSDOF 1
ENDMDL
MODEL 10
REMARK VINA RESULT:    -3.999     29.230     29.534
REMARK INTER + INTRA:          -4.245
REMARK INTER:                  -4.233
REMARK INTRA:                  -0.012
REMARK UNBOUND:                -0.012
REMARK  Name = 240
REMARK  1 active torsions:
REMARK  status: ('A' for Active; 'I' for Inactive)
REMARK    1  A    between atoms: C_2  and  C_8
REMARK                            x       y       z     vdW  Elec       q    Type
REMARK                         _______ _______ _______ _____ _____    ______ ____
ROOT
ATOM      1  C   UNL     1      -1.264  -7.211  20.989  0.00  0.00    +0.000 A 
ATOM      2  C   UNL     1      -1.453  -8.590  21.074  0.00  0.00    +0.000 A 
ATOM      3  C   UNL     1       0.007  -6.695  20.738  0.00  0.00    +0.000 A 
ATOM      4  C   UNL     1      -0.371  -9.454  20.906  0.00  0.00    +0.000 A 
ATOM      5  C   UNL     1       1.089  -7.559  20.571  0.00  0.00    +0.000 A 
ATOM      6  C   UNL     1       0.900  -8.939  20.655  0.00  0.00    +0.000 A 
ATOM      7  H   UNL     1      -2.438  -9.007  21.269  0.00  0.00    +0.000 HD
ATOM      8  H   UNL     1       0.177  -5.624  20.668  0.00  0.00    +0.000 HD
ATOM      9  H   UNL     1      -0.518 -10.528  20.972  0.00  0.00    +0.000 HD
ATOM     10  H   UNL     1       2.079  -7.157  20.375  0.00  0.00    +0.000 HD
ATOM     11  H   UNL     1       1.743  -9.611  20.525  0.00  0.00    +0.000 HD
ENDROOT
BRANCH   1  13
ATOM     12  O   UNL     1      -3.339  -6.553  21.919  0.00  0.00    +0.000 OA
ATOM     13  C   UNL     1      -2.394  -6.310  21.164  0.00  0.00    +0.000 C 
ATOM     14  H   UNL     1      -2.374  -5.374  20.581  0.00  0.00    +0.000 HD
ENDBRANCH   1  13
TORSDOF 1
ENDMDL
