MODEL 1
REMARK VINA RESULT:    -5.187      0.000      0.000
REMARK INTER + INTRA:          -6.470
REMARK INTER:                  -6.256
REMARK INTRA:                  -0.214
REMARK UNBOUND:                -0.070
REMARK  Name = 638014
REMARK  6 active torsions:
REMARK  status: ('A' for Active; 'I' for Inactive)
REMARK    1  A    between atoms: C_2  and  C_8
REMARK    2  A    between atoms: C_2  and  C_9
REMARK    3  A    between atoms: C_5  and  C_10
REMARK    4  A    between atoms: C_7  and  C_11
REMARK    5  A    between atoms: C_12  and  C_13
REMARK    6  A    between atoms: C_13  and  C_14
REMARK                            x       y       z     vdW  Elec       q    Type
REMARK                         _______ _______ _______ _____ _____    ______ ____
ROOT
ATOM      1  C   UNL     1     -16.821 -10.091  -0.352  0.00  0.00    +0.000 C 
ATOM      2  C   UNL     1     -17.179  -9.889  -1.850  0.00  0.00    +0.000 C 
ATOM      3  C   UNL     1     -18.580  -9.336  -2.036  0.00  0.00    +0.000 C 
ATOM      4  C   UNL     1     -17.982 -10.751   0.427  0.00  0.00    +0.000 C 
ATOM      5  C   UNL     1     -19.602 -10.296  -1.448  0.00  0.00    +0.000 C 
ATOM      6  C   UNL     1     -19.232 -10.861  -0.092  0.00  0.00    +0.000 C 
ATOM      7  H   UNL     1     -17.109 -10.847  -2.384  0.00  0.00    +0.000 HD
ATOM      8  H   UNL     1     -16.456  -9.217  -2.330  0.00  0.00    +0.000 HD
ATOM      9  H   UNL     1     -18.787  -9.188  -3.102  0.00  0.00    +0.000 HD
ATOM     10  H   UNL     1     -18.671  -8.351  -1.562  0.00  0.00    +0.000 HD
ATOM     11  H   UNL     1     -19.748 -11.135  -2.140  0.00  0.00    +0.000 HD
ATOM     12  H   UNL     1     -20.563  -9.770  -1.379  0.00  0.00    +0.000 HD
ENDROOT
BRANCH   1  13
ATOM     13  C   UNL     1     -16.491  -8.717   0.276  0.00  0.00    +0.000 C 
ATOM     14  H   UNL     1     -16.505  -7.914  -0.469  0.00  0.00    +0.000 HD
ATOM     15  H   UNL     1     -17.215  -8.449   1.055  0.00  0.00    +0.000 HD
ATOM     16  H   UNL     1     -15.500  -8.723   0.744  0.00  0.00    +0.000 HD
ENDBRANCH   1  13
BRANCH   1  17
ATOM     17  C   UNL     1     -15.540 -10.960  -0.333  0.00  0.00    +0.000 C 
ATOM     18  H   UNL     1     -14.849 -10.656  -1.131  0.00  0.00    +0.000 HD
ATOM     19  H   UNL     1     -14.986 -10.865   0.607  0.00  0.00    +0.000 HD
ATOM     20  H   UNL     1     -15.774 -12.021  -0.485  0.00  0.00    +0.000 HD
ENDBRANCH   1  17
BRANCH   4  21
ATOM     21  C   UNL     1     -17.656 -11.223   1.763  0.00  0.00    +0.000 C 
ATOM     22  C   UNL     1     -17.862 -10.484   2.849  0.00  0.00    +0.000 C 
ATOM     23  H   UNL     1     -17.265 -12.230   1.853  0.00  0.00    +0.000 HD
ATOM     24  H   UNL     1     -18.217  -9.461   2.821  0.00  0.00    +0.000 HD
BRANCH  22  26
ATOM     25  O   UNL     1     -16.347 -11.065   4.593  0.00  0.00    +0.000 OA
ATOM     26  C   UNL     1     -17.507 -11.025   4.190  0.00  0.00    +0.000 C 
BRANCH  26  27
ATOM     27  C   UNL     1     -18.641 -11.543   5.036  0.00  0.00    +0.000 C 
ATOM     28  H   UNL     1     -19.247 -12.231   4.440  0.00  0.00    +0.000 HD
ATOM     29  H   UNL     1     -18.272 -12.090   5.908  0.00  0.00    +0.000 HD
ATOM     30  H   UNL     1     -19.252 -10.702   5.372  0.00  0.00    +0.000 HD
ENDBRANCH  26  27
ENDBRANCH  22  26
ENDBRANCH   4  21
BRANCH   6  31
ATOM     31  C   UNL     1     -20.409 -11.535   0.576  0.00  0.00    +0.000 C 
ATOM     32  H   UNL     1     -20.543 -11.160   1.594  0.00  0.00    +0.000 HD
ATOM     33  H   UNL     1     -20.343 -12.626   0.583  0.00  0.00    +0.000 HD
ATOM     34  H   UNL     1     -21.328 -11.312   0.019  0.00  0.00    +0.000 HD
ENDBRANCH   6  31
TORSDOF 6
ENDMDL
MODEL 2
REMARK VINA RESULT:    -4.849     27.658     29.600
REMARK INTER + INTRA:          -6.053
REMARK INTER:                  -5.810
REMARK INTRA:                  -0.242
REMARK UNBOUND:                -0.070
REMARK  Name = 638014
REMARK  6 active torsions:
REMARK  status: ('A' for Active; 'I' for Inactive)
REMARK    1  A    between atoms: C_2  and  C_8
REMARK    2  A    between atoms: C_2  and  C_9
REMARK    3  A    between atoms: C_5  and  C_10
REMARK    4  A    between atoms: C_7  and  C_11
REMARK    5  A    between atoms: C_12  and  C_13
REMARK    6  A    between atoms: C_13  and  C_14
REMARK                            x       y       z     vdW  Elec       q    Type
REMARK                         _______ _______ _______ _____ _____    ______ ____
ROOT
ATOM      1  C   UNL     1       1.049  10.003  10.525  0.00  0.00    +0.000 C 
ATOM      2  C   UNL     1       1.245   8.484  10.792  0.00  0.00    +0.000 C 
ATOM      3  C   UNL     1       0.032   7.668  10.387  0.00  0.00    +0.000 C 
ATOM      4  C   UNL     1      -0.348  10.484  10.980  0.00  0.00    +0.000 C 
ATOM      5  C   UNL     1      -1.186   8.117  11.179  0.00  0.00    +0.000 C 
ATOM      6  C   UNL     1      -1.344   9.619  11.299  0.00  0.00    +0.000 C 
ATOM      7  H   UNL     1       1.439   8.314  11.861  0.00  0.00    +0.000 HD
ATOM      8  H   UNL     1       2.129   8.112  10.259  0.00  0.00    +0.000 HD
ATOM      9  H   UNL     1       0.218   6.604  10.571  0.00  0.00    +0.000 HD
ATOM     10  H   UNL     1      -0.159   7.769   9.312  0.00  0.00    +0.000 HD
ATOM     11  H   UNL     1      -1.133   7.696  12.191  0.00  0.00    +0.000 HD
ATOM     12  H   UNL     1      -2.078   7.688  10.703  0.00  0.00    +0.000 HD
ENDROOT
BRANCH   1  13
ATOM     13  C   UNL     1       1.222  10.273   9.012  0.00  0.00    +0.000 C 
ATOM     14  H   UNL     1       0.493   9.717   8.413  0.00  0.00    +0.000 HD
ATOM     15  H   UNL     1       1.093  11.336   8.778  0.00  0.00    +0.000 HD
ATOM     16  H   UNL     1       2.223   9.986   8.672  0.00  0.00    +0.000 HD
ENDBRANCH   1  13
BRANCH   1  17
ATOM     17  C   UNL     1       2.189  10.721  11.287  0.00  0.00    +0.000 C 
ATOM     18  H   UNL     1       1.858  11.027  12.288  0.00  0.00    +0.000 HD
ATOM     19  H   UNL     1       3.062  10.076  11.434  0.00  0.00    +0.000 HD
ATOM     20  H   UNL     1       2.518  11.623  10.757  0.00  0.00    +0.000 HD
ENDBRANCH   1  17
BRANCH   4  21
ATOM     21  C   UNL     1      -0.535  11.926  11.020  0.00  0.00    +0.000 C 
ATOM     22  C   UNL     1      -1.085  12.600  10.015  0.00  0.00    +0.000 C 
ATOM     23  H   UNL     1      -0.239  12.440  11.927  0.00  0.00    +0.000 HD
ATOM     24  H   UNL     1      -1.369  12.148   9.072  0.00  0.00    +0.000 HD
BRANCH  22  26
ATOM     25  O   UNL     1      -0.803  14.844   9.267  0.00  0.00    +0.000 OA
ATOM     26  C   UNL     1      -1.249  14.077  10.117  0.00  0.00    +0.000 C 
BRANCH  26  27
ATOM     27  C   UNL     1      -1.979  14.598  11.327  0.00  0.00    +0.000 C 
ATOM     28  H   UNL     1      -1.276  15.147  11.959  0.00  0.00    +0.000 HD
ATOM     29  H   UNL     1      -2.783  15.283  11.045  0.00  0.00    +0.000 HD
ATOM     30  H   UNL     1      -2.403  13.757  11.882  0.00  0.00    +0.000 HD
ENDBRANCH  26  27
ENDBRANCH  22  26
ENDBRANCH   4  21
BRANCH   6  31
ATOM     31  C   UNL     1      -2.718  10.000  11.801  0.00  0.00    +0.000 C 
ATOM     32  H   UNL     1      -2.733  10.042  12.894  0.00  0.00    +0.000 HD
ATOM     33  H   UNL     1      -3.514   9.343  11.439  0.00  0.00    +0.000 HD
ATOM     34  H   UNL     1      -2.985  10.997  11.429  0.00  0.00    +0.000 HD
ENDBRANCH   6  31
TORSDOF 6
ENDMDL
MODEL 3
REMARK VINA RESULT:    -4.845     25.547     26.841
REMARK INTER + INTRA:          -6.048
REMARK INTER:                  -5.809
REMARK INTRA:                  -0.238
REMARK UNBOUND:                -0.070
REMARK  Name = 638014
REMARK  6 active torsions:
REMARK  status: ('A' for Active; 'I' for Inactive)
REMARK    1  A    between atoms: C_2  and  C_8
REMARK    2  A    between atoms: C_2  and  C_9
REMARK    3  A    between atoms: C_5  and  C_10
REMARK    4  A    between atoms: C_7  and  C_11
REMARK    5  A    between atoms: C_12  and  C_13
REMARK    6  A    between atoms: C_13  and  C_14
REMARK                            x       y       z     vdW  Elec       q    Type
REMARK                         _______ _______ _______ _____ _____    ______ ____
ROOT
ATOM      1  C   UNL     1       5.599  -3.288  13.673  0.00  0.00    +0.000 C 
ATOM      2  C   UNL     1       6.238  -3.420  12.263  0.00  0.00    +0.000 C 
ATOM      3  C   UNL     1       5.279  -4.019  11.251  0.00  0.00    +0.000 C 
ATOM      4  C   UNL     1       4.815  -4.562  14.064  0.00  0.00    +0.000 C 
ATOM      5  C   UNL     1       4.856  -5.411  11.693  0.00  0.00    +0.000 C 
ATOM      6  C   UNL     1       4.508  -5.529  13.163  0.00  0.00    +0.000 C 
ATOM      7  H   UNL     1       7.132  -4.058  12.316  0.00  0.00    +0.000 HD
ATOM      8  H   UNL     1       6.582  -2.442  11.905  0.00  0.00    +0.000 HD
ATOM      9  H   UNL     1       5.759  -4.076  10.267  0.00  0.00    +0.000 HD
ATOM     10  H   UNL     1       4.397  -3.377  11.130  0.00  0.00    +0.000 HD
ATOM     11  H   UNL     1       5.666  -6.119  11.475  0.00  0.00    +0.000 HD
ATOM     12  H   UNL     1       3.995  -5.714  11.084  0.00  0.00    +0.000 HD
ENDROOT
BRANCH   1  13
ATOM     13  C   UNL     1       4.644  -2.071  13.679  0.00  0.00    +0.000 C 
ATOM     14  H   UNL     1       4.050  -2.014  12.760  0.00  0.00    +0.000 HD
ATOM     15  H   UNL     1       3.939  -2.119  14.518  0.00  0.00    +0.000 HD
ATOM     16  H   UNL     1       5.200  -1.132  13.778  0.00  0.00    +0.000 HD
ENDBRANCH   1  13
BRANCH   1  17
ATOM     17  C   UNL     1       6.767  -3.000  14.646  0.00  0.00    +0.000 C 
ATOM     18  H   UNL     1       6.924  -1.920  14.761  0.00  0.00    +0.000 HD
ATOM     19  H   UNL     1       6.578  -3.392  15.652  0.00  0.00    +0.000 HD
ATOM     20  H   UNL     1       7.706  -3.434  14.283  0.00  0.00    +0.000 HD
ENDBRANCH   1  17
BRANCH   4  21
ATOM     21  C   UNL     1       4.405  -4.646  15.457  0.00  0.00    +0.000 C 
ATOM     22  C   UNL     1       3.162  -4.391  15.849  0.00  0.00    +0.000 C 
ATOM     23  H   UNL     1       5.152  -4.965  16.176  0.00  0.00    +0.000 HD
ATOM     24  H   UNL     1       2.383  -4.036  15.185  0.00  0.00    +0.000 HD
BRANCH  22  26
ATOM     25  O   UNL     1       2.632  -3.502  17.996  0.00  0.00    +0.000 OA
ATOM     26  C   UNL     1       2.804  -4.495  17.292  0.00  0.00    +0.000 C 
BRANCH  26  27
ATOM     27  C   UNL     1       2.677  -5.883  17.862  0.00  0.00    +0.000 C 
ATOM     28  H   UNL     1       2.556  -5.814  18.947  0.00  0.00    +0.000 HD
ATOM     29  H   UNL     1       1.803  -6.402  17.460  0.00  0.00    +0.000 HD
ATOM     30  H   UNL     1       3.576  -6.455  17.622  0.00  0.00    +0.000 HD
ENDBRANCH  26  27
ENDBRANCH  22  26
ENDBRANCH   4  21
BRANCH   6  31
ATOM     31  C   UNL     1       3.795  -6.826  13.468  0.00  0.00    +0.000 C 
ATOM     32  H   UNL     1       3.280  -7.204  12.579  0.00  0.00    +0.000 HD
ATOM     33  H   UNL     1       3.095  -6.755  14.304  0.00  0.00    +0.000 HD
ATOM     34  H   UNL     1       4.523  -7.587  13.775  0.00  0.00    +0.000 HD
ENDBRANCH   6  31
TORSDOF 6
ENDMDL
MODEL 4
REMARK VINA RESULT:    -4.834     16.314     18.917
REMARK INTER + INTRA:          -6.035
REMARK INTER:                  -5.838
REMARK INTRA:                  -0.198
REMARK UNBOUND:                -0.070
REMARK  Name = 638014
REMARK  6 active torsions:
REMARK  status: ('A' for Active; 'I' for Inactive)
REMARK    1  A    between atoms: C_2  and  C_8
REMARK    2  A    between atoms: C_2  and  C_9
REMARK    3  A    between atoms: C_5  and  C_10
REMARK    4  A    between atoms: C_7  and  C_11
REMARK    5  A    between atoms: C_12  and  C_13
REMARK    6  A    between atoms: C_13  and  C_14
REMARK                            x       y       z     vdW  Elec       q    Type
REMARK                         _______ _______ _______ _____ _____    ______ ____
ROOT
ATOM      1  C   UNL     1     -15.433 -11.865  18.490  0.00  0.00    +0.000 C 
ATOM      2  C   UNL     1     -15.683 -11.678  16.968  0.00  0.00    +0.000 C 
ATOM      3  C   UNL     1     -16.353 -12.888  16.343  0.00  0.00    +0.000 C 
ATOM      4  C   UNL     1     -14.864 -13.267  18.805  0.00  0.00    +0.000 C 
ATOM      5  C   UNL     1     -15.475 -14.117  16.514  0.00  0.00    +0.000 C 
ATOM      6  C   UNL     1     -14.865 -14.272  17.892  0.00  0.00    +0.000 C 
ATOM      7  H   UNL     1     -14.729 -11.503  16.451  0.00  0.00    +0.000 HD
ATOM      8  H   UNL     1     -16.297 -10.787  16.787  0.00  0.00    +0.000 HD
ATOM      9  H   UNL     1     -16.531 -12.709  15.277  0.00  0.00    +0.000 HD
ATOM     10  H   UNL     1     -17.337 -13.061  16.797  0.00  0.00    +0.000 HD
ATOM     11  H   UNL     1     -14.659 -14.082  15.781  0.00  0.00    +0.000 HD
ATOM     12  H   UNL     1     -16.079 -15.002  16.276  0.00  0.00    +0.000 HD
ENDROOT
BRANCH   1  13
ATOM     13  C   UNL     1     -16.767 -11.666  19.246  0.00  0.00    +0.000 C 
ATOM     14  H   UNL     1     -16.622 -11.150  20.202  0.00  0.00    +0.000 HD
ATOM     15  H   UNL     1     -17.475 -11.069  18.659  0.00  0.00    +0.000 HD
ATOM     16  H   UNL     1     -17.251 -12.627  19.455  0.00  0.00    +0.000 HD
ENDBRANCH   1  13
BRANCH   1  17
ATOM     17  C   UNL     1     -14.460 -10.735  18.904  0.00  0.00    +0.000 C 
ATOM     18  H   UNL     1     -13.692 -10.578  18.135  0.00  0.00    +0.000 HD
ATOM     19  H   UNL     1     -14.968  -9.773  19.033  0.00  0.00    +0.000 HD
ATOM     20  H   UNL     1     -13.944 -10.975  19.842  0.00  0.00    +0.000 HD
ENDBRANCH   1  17
BRANCH   4  21
ATOM     21  C   UNL     1     -14.350 -13.450  20.154  0.00  0.00    +0.000 C 
ATOM     22  C   UNL     1     -15.077 -13.993  21.125  0.00  0.00    +0.000 C 
ATOM     23  H   UNL     1     -13.322 -13.156  20.338  0.00  0.00    +0.000 HD
ATOM     24  H   UNL     1     -16.117 -14.273  21.011  0.00  0.00    +0.000 HD
BRANCH  22  26
ATOM     25  O   UNL     1     -13.309 -14.435  22.660  0.00  0.00    +0.000 OA
ATOM     26  C   UNL     1     -14.493 -14.153  22.485  0.00  0.00    +0.000 C 
BRANCH  26  27
ATOM     27  C   UNL     1     -15.427 -13.969  23.652  0.00  0.00    +0.000 C 
ATOM     28  H   UNL     1     -14.852 -14.014  24.582  0.00  0.00    +0.000 HD
ATOM     29  H   UNL     1     -15.927 -12.997  23.615  0.00  0.00    +0.000 HD
ATOM     30  H   UNL     1     -16.179 -14.761  23.640  0.00  0.00    +0.000 HD
ENDBRANCH  26  27
ENDBRANCH  22  26
ENDBRANCH   4  21
BRANCH   6  31
ATOM     31  C   UNL     1     -14.284 -15.652  18.097  0.00  0.00    +0.000 C 
ATOM     32  H   UNL     1     -15.076 -16.381  18.291  0.00  0.00    +0.000 HD
ATOM     33  H   UNL     1     -13.531 -15.697  18.888  0.00  0.00    +0.000 HD
ATOM     34  H   UNL     1     -13.757 -15.971  17.189  0.00  0.00    +0.000 HD
ENDBRANCH   6  31
TORSDOF 6
ENDMDL
MODEL 5
REMARK VINA RESULT:    -4.746     31.201     33.117
REMARK INTER + INTRA:          -5.926
REMARK INTER:                  -5.682
REMARK INTRA:                  -0.244
REMARK UNBOUND:                -0.070
REMARK  Name = 638014
REMARK  6 active torsions:
REMARK  status: ('A' for Active; 'I' for Inactive)
REMARK    1  A    between atoms: C_2  and  C_8
REMARK    2  A    between atoms: C_2  and  C_9
REMARK    3  A    between atoms: C_5  and  C_10
REMARK    4  A    between atoms: C_7  and  C_11
REMARK    5  A    between atoms: C_12  and  C_13
REMARK    6  A    between atoms: C_13  and  C_14
REMARK                            x       y       z     vdW  Elec       q    Type
REMARK                         _______ _______ _______ _____ _____    ______ ____
ROOT
ATOM      1  C   UNL     1       0.123   7.710  19.511  0.00  0.00    +0.000 C 
ATOM      2  C   UNL     1      -0.967   8.084  20.554  0.00  0.00    +0.000 C 
ATOM      3  C   UNL     1      -0.584   9.302  21.374  0.00  0.00    +0.000 C 
ATOM      4  C   UNL     1       1.541   7.769  20.125  0.00  0.00    +0.000 C 
ATOM      5  C   UNL     1       0.703   9.034  22.136  0.00  0.00    +0.000 C 
ATOM      6  C   UNL     1       1.786   8.349  21.328  0.00  0.00    +0.000 C 
ATOM      7  H   UNL     1      -1.134   7.241  21.239  0.00  0.00    +0.000 HD
ATOM      8  H   UNL     1      -1.928   8.267  20.055  0.00  0.00    +0.000 HD
ATOM      9  H   UNL     1      -1.386   9.545  22.080  0.00  0.00    +0.000 HD
ATOM     10  H   UNL     1      -0.464  10.179  20.726  0.00  0.00    +0.000 HD
ATOM     11  H   UNL     1       0.481   8.408  23.010  0.00  0.00    +0.000 HD
ATOM     12  H   UNL     1       1.078   9.992  22.518  0.00  0.00    +0.000 HD
ENDROOT
BRANCH   1  13
ATOM     13  C   UNL     1       0.034   8.689  18.318  0.00  0.00    +0.000 C 
ATOM     14  H   UNL     1       1.013   8.862  17.858  0.00  0.00    +0.000 HD
ATOM     15  H   UNL     1      -0.631   8.307  17.534  0.00  0.00    +0.000 HD
ATOM     16  H   UNL     1      -0.364   9.661  18.633  0.00  0.00    +0.000 HD
ENDBRANCH   1  13
BRANCH   1  17
ATOM     17  C   UNL     1      -0.236   6.290  19.010  0.00  0.00    +0.000 C 
ATOM     18  H   UNL     1      -0.964   5.811  19.678  0.00  0.00    +0.000 HD
ATOM     19  H   UNL     1      -0.693   6.303  18.014  0.00  0.00    +0.000 HD
ATOM     20  H   UNL     1       0.650   5.645  18.970  0.00  0.00    +0.000 HD
ENDBRANCH   1  17
BRANCH   4  21
ATOM     21  C   UNL     1       2.601   7.186  19.318  0.00  0.00    +0.000 C 
ATOM     22  C   UNL     1       3.412   7.925  18.568  0.00  0.00    +0.000 C 
ATOM     23  H   UNL     1       2.735   6.112  19.375  0.00  0.00    +0.000 HD
ATOM     24  H   UNL     1       3.307   8.996  18.444  0.00  0.00    +0.000 HD
BRANCH  22  26
ATOM     25  O   UNL     1       4.510   7.335  16.537  0.00  0.00    +0.000 OA
ATOM     26  C   UNL     1       4.480   7.268  17.764  0.00  0.00    +0.000 C 
BRANCH  26  27
ATOM     27  C   UNL     1       5.524   6.493  18.524  0.00  0.00    +0.000 C 
ATOM     28  H   UNL     1       5.036   5.907  19.308  0.00  0.00    +0.000 HD
ATOM     29  H   UNL     1       6.061   5.799  17.872  0.00  0.00    +0.000 HD
ATOM     30  H   UNL     1       6.237   7.191  18.970  0.00  0.00    +0.000 HD
ENDBRANCH  26  27
ENDBRANCH  22  26
ENDBRANCH   4  21
BRANCH   6  31
ATOM     31  C   UNL     1       3.127   8.406  22.024  0.00  0.00    +0.000 C 
ATOM     32  H   UNL     1       3.062   7.969  23.024  0.00  0.00    +0.000 HD
ATOM     33  H   UNL     1       3.549   9.413  22.080  0.00  0.00    +0.000 HD
ATOM     34  H   UNL     1       3.864   7.823  21.457  0.00  0.00    +0.000 HD
ENDBRANCH   6  31
TORSDOF 6
ENDMDL
MODEL 6
REMARK VINA RESULT:    -4.736     28.328     30.135
REMARK INTER + INTRA:          -5.914
REMARK INTER:                  -5.664
REMARK INTRA:                  -0.250
REMARK UNBOUND:                -0.070
REMARK  Name = 638014
REMARK  6 active torsions:
REMARK  status: ('A' for Active; 'I' for Inactive)
REMARK    1  A    between atoms: C_2  and  C_8
REMARK    2  A    between atoms: C_2  and  C_9
REMARK    3  A    between atoms: C_5  and  C_10
REMARK    4  A    between atoms: C_7  and  C_11
REMARK    5  A    between atoms: C_12  and  C_13
REMARK    6  A    between atoms: C_13  and  C_14
REMARK                            x       y       z     vdW  Elec       q    Type
REMARK                         _______ _______ _______ _____ _____    ______ ____
ROOT
ATOM      1  C   UNL     1      10.954  -1.727   4.187  0.00  0.00    +0.000 C 
ATOM      2  C   UNL     1      10.430  -3.004   3.473  0.00  0.00    +0.000 C 
ATOM      3  C   UNL     1       8.944  -2.927   3.174  0.00  0.00    +0.000 C 
ATOM      4  C   UNL     1       9.998  -1.273   5.314  0.00  0.00    +0.000 C 
ATOM      5  C   UNL     1       8.159  -2.772   4.467  0.00  0.00    +0.000 C 
ATOM      6  C   UNL     1       8.743  -1.774   5.445  0.00  0.00    +0.000 C 
ATOM      7  H   UNL     1      10.613  -3.886   4.103  0.00  0.00    +0.000 HD
ATOM      8  H   UNL     1      10.981  -3.175   2.539  0.00  0.00    +0.000 HD
ATOM      9  H   UNL     1       8.619  -3.834   2.653  0.00  0.00    +0.000 HD
ATOM     10  H   UNL     1       8.730  -2.088   2.500  0.00  0.00    +0.000 HD
ATOM     11  H   UNL     1       8.095  -3.746   4.968  0.00  0.00    +0.000 HD
ATOM     12  H   UNL     1       7.133  -2.480   4.208  0.00  0.00    +0.000 HD
ENDROOT
BRANCH   1  13
ATOM     13  C   UNL     1      11.100  -0.594   3.144  0.00  0.00    +0.000 C 
ATOM     14  H   UNL     1      11.262   0.380   3.620  0.00  0.00    +0.000 HD
ATOM     15  H   UNL     1      11.950  -0.773   2.475  0.00  0.00    +0.000 HD
ATOM     16  H   UNL     1      10.206  -0.516   2.517  0.00  0.00    +0.000 HD
ENDBRANCH   1  13
BRANCH   1  17
ATOM     17  C   UNL     1      12.360  -2.086   4.725  0.00  0.00    +0.000 C 
ATOM     18  H   UNL     1      12.536  -3.168   4.668  0.00  0.00    +0.000 HD
ATOM     19  H   UNL     1      13.160  -1.612   4.147  0.00  0.00    +0.000 HD
ATOM     20  H   UNL     1      12.474  -1.787   5.774  0.00  0.00    +0.000 HD
ENDBRANCH   1  17
BRANCH   4  21
ATOM     21  C   UNL     1      10.520  -0.254   6.210  0.00  0.00    +0.000 C 
ATOM     22  C   UNL     1      10.185   1.028   6.103  0.00  0.00    +0.000 C 
ATOM     23  H   UNL     1      11.178  -0.583   7.007  0.00  0.00    +0.000 HD
ATOM     24  H   UNL     1       9.562   1.421   5.309  0.00  0.00    +0.000 HD
BRANCH  22  26
ATOM     25  O   UNL     1      10.045   2.791   7.699  0.00  0.00    +0.000 OA
ATOM     26  C   UNL     1      10.755   2.024   7.053  0.00  0.00    +0.000 C 
BRANCH  26  27
ATOM     27  C   UNL     1      12.255   2.063   7.178  0.00  0.00    +0.000 C 
ATOM     28  H   UNL     1      12.683   1.233   6.609  0.00  0.00    +0.000 HD
ATOM     29  H   UNL     1      12.666   2.992   6.774  0.00  0.00    +0.000 HD
ATOM     30  H   UNL     1      12.531   1.976   8.231  0.00  0.00    +0.000 HD
ENDBRANCH  26  27
ENDBRANCH  22  26
ENDBRANCH   4  21
BRANCH   6  31
ATOM     31  C   UNL     1       7.764  -1.426   6.543  0.00  0.00    +0.000 C 
ATOM     32  H   UNL     1       8.235  -0.784   7.293  0.00  0.00    +0.000 HD
ATOM     33  H   UNL     1       7.318  -2.301   7.025  0.00  0.00    +0.000 HD
ATOM     34  H   UNL     1       6.915  -0.874   6.122  0.00  0.00    +0.000 HD
ENDBRANCH   6  31
TORSDOF 6
ENDMDL
MODEL 7
REMARK VINA RESULT:    -4.622     25.035     26.496
REMARK INTER + INTRA:          -5.773
REMARK INTER:                  -5.530
REMARK INTRA:                  -0.244
REMARK UNBOUND:                -0.070
REMARK  Name = 638014
REMARK  6 active torsions:
REMARK  status: ('A' for Active; 'I' for Inactive)
REMARK    1  A    between atoms: C_2  and  C_8
REMARK    2  A    between atoms: C_2  and  C_9
REMARK    3  A    between atoms: C_5  and  C_10
REMARK    4  A    between atoms: C_7  and  C_11
REMARK    5  A    between atoms: C_12  and  C_13
REMARK    6  A    between atoms: C_13  and  C_14
REMARK                            x       y       z     vdW  Elec       q    Type
REMARK                         _______ _______ _______ _____ _____    ______ ____
ROOT
ATOM      1  C   UNL     1       5.069  -4.980  12.925  0.00  0.00    +0.000 C 
ATOM      2  C   UNL     1       5.323  -3.530  12.426  0.00  0.00    +0.000 C 
ATOM      3  C   UNL     1       5.598  -2.569  13.568  0.00  0.00    +0.000 C 
ATOM      4  C   UNL     1       4.127  -5.002  14.151  0.00  0.00    +0.000 C 
ATOM      5  C   UNL     1       4.406  -2.525  14.511  0.00  0.00    +0.000 C 
ATOM      6  C   UNL     1       3.813  -3.878  14.845  0.00  0.00    +0.000 C 
ATOM      7  H   UNL     1       4.447  -3.168  11.869  0.00  0.00    +0.000 HD
ATOM      8  H   UNL     1       6.164  -3.509  11.721  0.00  0.00    +0.000 HD
ATOM      9  H   UNL     1       5.792  -1.565  13.174  0.00  0.00    +0.000 HD
ATOM     10  H   UNL     1       6.501  -2.868  14.114  0.00  0.00    +0.000 HD
ATOM     11  H   UNL     1       3.617  -1.906  14.065  0.00  0.00    +0.000 HD
ATOM     12  H   UNL     1       4.721  -2.021  15.434  0.00  0.00    +0.000 HD
ENDROOT
BRANCH   1  13
ATOM     13  C   UNL     1       6.423  -5.625  13.302  0.00  0.00    +0.000 C 
ATOM     14  H   UNL     1       7.218  -4.878  13.400  0.00  0.00    +0.000 HD
ATOM     15  H   UNL     1       6.360  -6.159  14.257  0.00  0.00    +0.000 HD
ATOM     16  H   UNL     1       6.739  -6.352  12.545  0.00  0.00    +0.000 HD
ENDBRANCH   1  13
BRANCH   1  17
ATOM     17  C   UNL     1       4.476  -5.748  11.720  0.00  0.00    +0.000 C 
ATOM     18  H   UNL     1       3.637  -5.195  11.278  0.00  0.00    +0.000 HD
ATOM     19  H   UNL     1       5.207  -5.892  10.917  0.00  0.00    +0.000 HD
ATOM     20  H   UNL     1       4.101  -6.734  12.020  0.00  0.00    +0.000 HD
ENDBRANCH   1  17
BRANCH   4  21
ATOM     21  C   UNL     1       3.617  -6.311  14.529  0.00  0.00    +0.000 C 
ATOM     22  C   UNL     1       4.090  -6.984  15.573  0.00  0.00    +0.000 C 
ATOM     23  H   UNL     1       2.798  -6.713  13.943  0.00  0.00    +0.000 HD
ATOM     24  H   UNL     1       4.928  -6.650  16.173  0.00  0.00    +0.000 HD
BRANCH  22  26
ATOM     25  O   UNL     1       3.891  -8.955  16.896  0.00  0.00    +0.000 OA
ATOM     26  C   UNL     1       3.526  -8.320  15.909  0.00  0.00    +0.000 C 
BRANCH  26  27
ATOM     27  C   UNL     1       2.488  -8.876  14.970  0.00  0.00    +0.000 C 
ATOM     28  H   UNL     1       2.400  -9.954  15.132  0.00  0.00    +0.000 HD
ATOM     29  H   UNL     1       1.507  -8.429  15.147  0.00  0.00    +0.000 HD
ATOM     30  H   UNL     1       2.792  -8.677  13.939  0.00  0.00    +0.000 HD
ENDBRANCH  26  27
ENDBRANCH  22  26
ENDBRANCH   4  21
BRANCH   6  31
ATOM     31  C   UNL     1       2.863  -3.801  16.018  0.00  0.00    +0.000 C 
ATOM     32  H   UNL     1       1.943  -3.281  15.737  0.00  0.00    +0.000 HD
ATOM     33  H   UNL     1       3.301  -3.336  16.905  0.00  0.00    +0.000 HD
ATOM     34  H   UNL     1       2.586  -4.813  16.338  0.00  0.00    +0.000 HD
ENDBRANCH   6  31
TORSDOF 6
ENDMDL
MODEL 8
REMARK VINA RESULT:    -4.585     33.713     36.064
REMARK INTER + INTRA:          -5.728
REMARK INTER:                  -5.616
REMARK INTRA:                  -0.112
REMARK UNBOUND:                -0.070
REMARK  Name = 638014
REMARK  6 active torsions:
REMARK  status: ('A' for Active; 'I' for Inactive)
REMARK    1  A    between atoms: C_2  and  C_8
REMARK    2  A    between atoms: C_2  and  C_9
REMARK    3  A    between atoms: C_5  and  C_10
REMARK    4  A    between atoms: C_7  and  C_11
REMARK    5  A    between atoms: C_12  and  C_13
REMARK    6  A    between atoms: C_13  and  C_14
REMARK                            x       y       z     vdW  Elec       q    Type
REMARK                         _______ _______ _______ _____ _____    ______ ____
ROOT
ATOM      1  C   UNL     1       3.491  13.126 -11.244  0.00  0.00    +0.000 C 
ATOM      2  C   UNL     1       3.663  13.224  -9.703  0.00  0.00    +0.000 C 
ATOM      3  C   UNL     1       3.889  14.651  -9.239  0.00  0.00    +0.000 C 
ATOM      4  C   UNL     1       4.538  13.986 -11.989  0.00  0.00    +0.000 C 
ATOM      5  C   UNL     1       5.150  15.213  -9.876  0.00  0.00    +0.000 C 
ATOM      6  C   UNL     1       5.302  14.910 -11.353  0.00  0.00    +0.000 C 
ATOM      7  H   UNL     1       4.520  12.614  -9.383  0.00  0.00    +0.000 HD
ATOM      8  H   UNL     1       2.785  12.809  -9.192  0.00  0.00    +0.000 HD
ATOM      9  H   UNL     1       3.984  14.680  -8.148  0.00  0.00    +0.000 HD
ATOM     10  H   UNL     1       3.026  15.279  -9.493  0.00  0.00    +0.000 HD
ATOM     11  H   UNL     1       6.027  14.812  -9.352  0.00  0.00    +0.000 HD
ATOM     12  H   UNL     1       5.154  16.300  -9.719  0.00  0.00    +0.000 HD
ENDROOT
BRANCH   1  13
ATOM     13  C   UNL     1       2.068  13.601 -11.621  0.00  0.00    +0.000 C 
ATOM     14  H   UNL     1       1.680  14.334 -10.906  0.00  0.00    +0.000 HD
ATOM     15  H   UNL     1       2.052  14.072 -12.611  0.00  0.00    +0.000 HD
ATOM     16  H   UNL     1       1.366  12.760 -11.653  0.00  0.00    +0.000 HD
ENDBRANCH   1  13
BRANCH   1  17
ATOM     17  C   UNL     1       3.617  11.624 -11.593  0.00  0.00    +0.000 C 
ATOM     18  H   UNL     1       4.533  11.198 -11.164  0.00  0.00    +0.000 HD
ATOM     19  H   UNL     1       2.786  11.032 -11.194  0.00  0.00    +0.000 HD
ATOM     20  H   UNL     1       3.656  11.467 -12.678  0.00  0.00    +0.000 HD
ENDBRANCH   1  17
BRANCH   4  21
ATOM     21  C   UNL     1       4.633  13.760 -13.423  0.00  0.00    +0.000 C 
ATOM     22  C   UNL     1       5.617  13.052 -13.967  0.00  0.00    +0.000 C 
ATOM     23  H   UNL     1       3.842  14.165 -14.043  0.00  0.00    +0.000 HD
ATOM     24  H   UNL     1       6.452  12.652 -13.404  0.00  0.00    +0.000 HD
BRANCH  22  26
ATOM     25  O   UNL     1       4.663  12.540 -16.089  0.00  0.00    +0.000 OA
ATOM     26  C   UNL     1       5.659  12.856 -15.443  0.00  0.00    +0.000 C 
BRANCH  26  27
ATOM     27  C   UNL     1       6.993  13.047 -16.117  0.00  0.00    +0.000 C 
ATOM     28  H   UNL     1       7.188  12.194 -16.772  0.00  0.00    +0.000 HD
ATOM     29  H   UNL     1       7.005  13.952 -16.730  0.00  0.00    +0.000 HD
ATOM     30  H   UNL     1       7.774  13.120 -15.356  0.00  0.00    +0.000 HD
ENDBRANCH  26  27
ENDBRANCH  22  26
ENDBRANCH   4  21
BRANCH   6  31
ATOM     31  C   UNL     1       6.381  15.755 -11.990  0.00  0.00    +0.000 C 
ATOM     32  H   UNL     1       6.081  16.075 -12.992  0.00  0.00    +0.000 HD
ATOM     33  H   UNL     1       7.356  15.261 -12.031  0.00  0.00    +0.000 HD
ATOM     34  H   UNL     1       6.548  16.658 -11.391  0.00  0.00    +0.000 HD
ENDBRANCH   6  31
TORSDOF 6
ENDMDL
MODEL 9
REMARK VINA RESULT:    -4.566     33.927     36.177
REMARK INTER + INTRA:          -5.705
REMARK INTER:                  -5.514
REMARK INTRA:                  -0.191
REMARK UNBOUND:                -0.070
REMARK  Name = 638014
REMARK  6 active torsions:
REMARK  status: ('A' for Active; 'I' for Inactive)
REMARK    1  A    between atoms: C_2  and  C_8
REMARK    2  A    between atoms: C_2  and  C_9
REMARK    3  A    between atoms: C_5  and  C_10
REMARK    4  A    between atoms: C_7  and  C_11
REMARK    5  A    between atoms: C_12  and  C_13
REMARK    6  A    between atoms: C_13  and  C_14
REMARK                            x       y       z     vdW  Elec       q    Type
REMARK                         _______ _______ _______ _____ _____    ______ ____
ROOT
ATOM      1  C   UNL     1       3.440  13.936 -10.711  0.00  0.00    +0.000 C 
ATOM      2  C   UNL     1       2.467  12.771 -11.047  0.00  0.00    +0.000 C 
ATOM      3  C   UNL     1       3.202  11.513 -11.473  0.00  0.00    +0.000 C 
ATOM      4  C   UNL     1       4.563  14.060 -11.767  0.00  0.00    +0.000 C 
ATOM      5  C   UNL     1       4.029  11.790 -12.719  0.00  0.00    +0.000 C 
ATOM      6  C   UNL     1       4.803  13.092 -12.688  0.00  0.00    +0.000 C 
ATOM      7  H   UNL     1       1.790  13.071 -11.859  0.00  0.00    +0.000 HD
ATOM      8  H   UNL     1       1.828  12.545 -10.184  0.00  0.00    +0.000 HD
ATOM      9  H   UNL     1       2.484  10.712 -11.679  0.00  0.00    +0.000 HD
ATOM     10  H   UNL     1       3.847  11.152 -10.664  0.00  0.00    +0.000 HD
ATOM     11  H   UNL     1       3.368  11.805 -13.594  0.00  0.00    +0.000 HD
ATOM     12  H   UNL     1       4.723  10.951 -12.858  0.00  0.00    +0.000 HD
ENDROOT
BRANCH   1  13
ATOM     13  C   UNL     1       4.064  13.684  -9.319  0.00  0.00    +0.000 C 
ATOM     14  H   UNL     1       3.909  14.531  -8.643  0.00  0.00    +0.000 HD
ATOM     15  H   UNL     1       3.627  12.800  -8.838  0.00  0.00    +0.000 HD
ATOM     16  H   UNL     1       5.143  13.509  -9.395  0.00  0.00    +0.000 HD
ENDBRANCH   1  13
BRANCH   1  17
ATOM     17  C   UNL     1       2.568  15.212 -10.636  0.00  0.00    +0.000 C 
ATOM     18  H   UNL     1       2.361  15.483  -9.592  0.00  0.00    +0.000 HD
ATOM     19  H   UNL     1       3.060  16.080 -11.088  0.00  0.00    +0.000 HD
ATOM     20  H   UNL     1       1.603  15.067 -11.137  0.00  0.00    +0.000 HD
ENDBRANCH   1  17
BRANCH   4  21
ATOM     21  C   UNL     1       5.365  15.271 -11.694  0.00  0.00    +0.000 C 
ATOM     22  C   UNL     1       6.407  15.386 -10.877  0.00  0.00    +0.000 C 
ATOM     23  H   UNL     1       5.102  16.082 -12.364  0.00  0.00    +0.000 HD
ATOM     24  H   UNL     1       6.696  14.626 -10.162  0.00  0.00    +0.000 HD
BRANCH  22  26
ATOM     25  O   UNL     1       7.467  17.227  -9.797  0.00  0.00    +0.000 OA
ATOM     26  C   UNL     1       7.189  16.654 -10.849  0.00  0.00    +0.000 C 
BRANCH  26  27
ATOM     27  C   UNL     1       7.615  17.220 -12.178  0.00  0.00    +0.000 C 
ATOM     28  H   UNL     1       8.338  16.542 -12.640  0.00  0.00    +0.000 HD
ATOM     29  H   UNL     1       6.767  17.321 -12.860  0.00  0.00    +0.000 HD
ATOM     30  H   UNL     1       8.069  18.201 -12.022  0.00  0.00    +0.000 HD
ENDBRANCH  26  27
ENDBRANCH  22  26
ENDBRANCH   4  21
BRANCH   6  31
ATOM     31  C   UNL     1       5.841  13.154 -13.785  0.00  0.00    +0.000 C 
ATOM     32  H   UNL     1       5.612  13.957 -14.490  0.00  0.00    +0.000 HD
ATOM     33  H   UNL     1       5.969  12.209 -14.320  0.00  0.00    +0.000 HD
ATOM     34  H   UNL     1       6.826  13.366 -13.351  0.00  0.00    +0.000 HD
ENDBRANCH   6  31
TORSDOF 6
ENDMDL
MODEL 10
REMARK VINA RESULT:    -4.555     19.007     20.696
REMARK INTER + INTRA:          -5.690
REMARK INTER:                  -5.620
REMARK INTRA:                  -0.070
REMARK UNBOUND:                -0.070
REMARK  Name = 638014
REMARK  6 active torsions:
REMARK  status: ('A' for Active; 'I' for Inactive)
REMARK    1  A    between atoms: C_2  and  C_8
REMARK    2  A    between atoms: C_2  and  C_9
REMARK    3  A    between atoms: C_5  and  C_10
REMARK    4  A    between atoms: C_7  and  C_11
REMARK    5  A    between atoms: C_12  and  C_13
REMARK    6  A    between atoms: C_13  and  C_14
REMARK                            x       y       z     vdW  Elec       q    Type
REMARK                         _______ _______ _______ _____ _____    ______ ____
ROOT
ATOM      1  C   UNL     1      -2.136 -17.735  -9.934  0.00  0.00    +0.000 C 
ATOM      2  C   UNL     1      -2.709 -18.573 -11.111  0.00  0.00    +0.000 C 
ATOM      3  C   UNL     1      -1.771 -18.604 -12.303  0.00  0.00    +0.000 C 
ATOM      4  C   UNL     1      -1.527 -16.402 -10.428  0.00  0.00    +0.000 C 
ATOM      5  C   UNL     1      -1.536 -17.194 -12.819  0.00  0.00    +0.000 C 
ATOM      6  C   UNL     1      -1.284 -16.160 -11.741  0.00  0.00    +0.000 C 
ATOM      7  H   UNL     1      -3.671 -18.152 -11.435  0.00  0.00    +0.000 HD
ATOM      8  H   UNL     1      -2.919 -19.599 -10.784  0.00  0.00    +0.000 HD
ATOM      9  H   UNL     1      -2.200 -19.221 -13.101  0.00  0.00    +0.000 HD
ATOM     10  H   UNL     1      -0.816 -19.071 -12.030  0.00  0.00    +0.000 HD
ATOM     11  H   UNL     1      -2.408 -16.874 -13.404  0.00  0.00    +0.000 HD
ATOM     12  H   UNL     1      -0.683 -17.223 -13.510  0.00  0.00    +0.000 HD
ENDROOT
BRANCH   1  13
ATOM     13  C   UNL     1      -1.050 -18.563  -9.209  0.00  0.00    +0.000 C 
ATOM     14  H   UNL     1      -1.157 -18.513  -8.120  0.00  0.00    +0.000 HD
ATOM     15  H   UNL     1      -1.099 -19.622  -9.492  0.00  0.00    +0.000 HD
ATOM     16  H   UNL     1      -0.046 -18.207  -9.464  0.00  0.00    +0.000 HD
ENDBRANCH   1  13
BRANCH   1  17
ATOM     17  C   UNL     1      -3.316 -17.509  -8.957  0.00  0.00    +0.000 C 
ATOM     18  H   UNL     1      -3.812 -16.551  -9.158  0.00  0.00    +0.000 HD
ATOM     19  H   UNL     1      -4.087 -18.281  -9.050  0.00  0.00    +0.000 HD
ATOM     20  H   UNL     1      -2.974 -17.492  -7.915  0.00  0.00    +0.000 HD
ENDBRANCH   1  17
BRANCH   4  21
ATOM     21  C   UNL     1      -1.206 -15.434  -9.391  0.00  0.00    +0.000 C 
ATOM     22  C   UNL     1      -1.790 -14.242  -9.326  0.00  0.00    +0.000 C 
ATOM     23  H   UNL     1      -0.486 -15.734  -8.637  0.00  0.00    +0.000 HD
ATOM     24  H   UNL     1      -2.488 -13.874 -10.067  0.00  0.00    +0.000 HD
BRANCH  22  26
ATOM     25  O   UNL     1      -1.870 -13.395  -7.100  0.00  0.00    +0.000 OA
ATOM     26  C   UNL     1      -1.417 -13.294  -8.239  0.00  0.00    +0.000 C 
BRANCH  26  27
ATOM     27  C   UNL     1      -0.465 -12.185  -8.600  0.00  0.00    +0.000 C 
ATOM     28  H   UNL     1      -1.029 -11.360  -9.044  0.00  0.00    +0.000 HD
ATOM     29  H   UNL     1       0.055 -11.801  -7.719  0.00  0.00    +0.000 HD
ATOM     30  H   UNL     1       0.271 -12.561  -9.315  0.00  0.00    +0.000 HD
ENDBRANCH  26  27
ENDBRANCH  22  26
ENDBRANCH   4  21
BRANCH   6  31
ATOM     31  C   UNL     1      -0.741 -14.871 -12.315  0.00  0.00    +0.000 C 
ATOM     32  H   UNL     1      -0.477 -14.172 -11.517  0.00  0.00    +0.000 HD
ATOM     33  H   UNL     1      -1.418 -14.389 -13.026  0.00  0.00    +0.000 HD
ATOM     34  H   UNL     1       0.170 -15.076 -12.890  0.00  0.00    +0.000 HD
ENDBRANCH   6  31
TORSDOF 6
ENDMDL
