MODEL 1
REMARK VINA RESULT:    -5.290      0.000      0.000
REMARK INTER + INTRA:          -6.179
REMARK INTER:                  -6.096
REMARK INTRA:                  -0.083
REMARK UNBOUND:                -0.117
REMARK  Name = 249286
REMARK  4 active torsions:
REMARK  status: ('A' for Active; 'I' for Inactive)
REMARK    1  A    between atoms: C_2  and  C_7
REMARK    2  A    between atoms: C_5  and  C_9
REMARK    3  A    between atoms: C_7  and  C_10
REMARK    4  A    between atoms: C_7  and  C_11
REMARK                            x       y       z     vdW  Elec       q    Type
REMARK                         _______ _______ _______ _____ _____    ______ ____
ROOT
ATOM      1  O   UNL     1       8.847  -1.686  -1.075  0.00  0.00    +0.000 OA
ATOM      2  C   UNL     1       6.903   0.662  -2.785  0.00  0.00    +0.000 C 
ATOM      3  C   UNL     1       6.725   1.071  -1.279  0.00  0.00    +0.000 C 
ATOM      4  C   UNL     1       6.039   1.799  -2.368  0.00  0.00    +0.000 C 
ATOM      5  C   UNL     1       6.864  -0.283  -0.648  0.00  0.00    +0.000 C 
ATOM      6  C   UNL     1       8.270   0.066  -2.689  0.00  0.00    +0.000 C 
ATOM      7  C   UNL     1       8.106  -0.779  -1.418  0.00  0.00    +0.000 C 
ATOM      8  H   UNL     1       7.458   1.732  -0.807  0.00  0.00    +0.000 HD
ATOM      9  H   UNL     1       6.416   2.790  -2.625  0.00  0.00    +0.000 HD
ATOM     10  H   UNL     1       4.984   1.897  -2.151  0.00  0.00    +0.000 HD
ATOM     11  H   UNL     1       6.004  -0.929  -0.847  0.00  0.00    +0.000 HD
ATOM     12  H   UNL     1       9.028   0.836  -2.507  0.00  0.00    +0.000 HD
ATOM     13  H   UNL     1       8.614  -0.564  -3.507  0.00  0.00    +0.000 HD
ENDROOT
BRANCH   5  14
ATOM     14  C   UNL     1       7.116  -0.217   0.846  0.00  0.00    +0.000 C 
ATOM     15  H   UNL     1       6.436   0.497   1.323  0.00  0.00    +0.000 HD
ATOM     16  H   UNL     1       6.959  -1.189   1.328  0.00  0.00    +0.000 HD
ATOM     17  H   UNL     1       8.145   0.097   1.052  0.00  0.00    +0.000 HD
ENDBRANCH   5  14
BRANCH   2  18
ATOM     18  C   UNL     1       6.001  -0.323  -3.503  0.00  0.00    +0.000 C 
ATOM     19  H   UNL     1       5.506  -1.005  -2.802  0.00  0.00    +0.000 HD
BRANCH  18  20
ATOM     20  C   UNL     1       4.891   0.406  -4.264  0.00  0.00    +0.000 C 
ATOM     21  H   UNL     1       3.920   0.397  -3.756  0.00  0.00    +0.000 HD
ATOM     22  H   UNL     1       5.158   1.470  -4.336  0.00  0.00    +0.000 HD
ATOM     23  H   UNL     1       4.811   0.091  -5.311  0.00  0.00    +0.000 HD
ENDBRANCH  18  20
BRANCH  18  24
ATOM     24  C   UNL     1       6.807  -1.204  -4.460  0.00  0.00    +0.000 C 
ATOM     25  H   UNL     1       7.096  -2.150  -3.989  0.00  0.00    +0.000 HD
ATOM     26  H   UNL     1       7.726  -0.697  -4.776  0.00  0.00    +0.000 HD
ATOM     27  H   UNL     1       6.265  -1.429  -5.383  0.00  0.00    +0.000 HD
ENDBRANCH  18  24
ENDBRANCH   2  18
TORSDOF 4
ENDMDL
MODEL 2
REMARK VINA RESULT:    -4.181     25.061     26.266
REMARK INTER + INTRA:          -4.908
REMARK INTER:                  -4.788
REMARK INTRA:                  -0.120
REMARK UNBOUND:                -0.117
REMARK  Name = 249286
REMARK  4 active torsions:
REMARK  status: ('A' for Active; 'I' for Inactive)
REMARK    1  A    between atoms: C_2  and  C_7
REMARK    2  A    between atoms: C_5  and  C_9
REMARK    3  A    between atoms: C_7  and  C_10
REMARK    4  A    between atoms: C_7  and  C_11
REMARK                            x       y       z     vdW  Elec       q    Type
REMARK                         _______ _______ _______ _____ _____    ______ ____
ROOT
ATOM      1  O   UNL     1     -16.948 -12.374  -1.085  0.00  0.00    +0.000 OA
ATOM      2  C   UNL     1     -17.234  -9.588   1.006  0.00  0.00    +0.000 C 
ATOM      3  C   UNL     1     -15.795  -9.437   0.396  0.00  0.00    +0.000 C 
ATOM      4  C   UNL     1     -16.329  -8.467   1.376  0.00  0.00    +0.000 C 
ATOM      5  C   UNL     1     -15.463 -10.889   0.209  0.00  0.00    +0.000 C 
ATOM      6  C   UNL     1     -17.877 -10.318  -0.128  0.00  0.00    +0.000 C 
ATOM      7  C   UNL     1     -16.787 -11.355  -0.432  0.00  0.00    +0.000 C 
ATOM      8  H   UNL     1     -15.666  -8.943  -0.571  0.00  0.00    +0.000 HD
ATOM      9  H   UNL     1     -16.624  -7.486   1.000  0.00  0.00    +0.000 HD
ATOM     10  H   UNL     1     -15.620  -8.310   2.177  0.00  0.00    +0.000 HD
ATOM     11  H   UNL     1     -15.293 -11.405   1.159  0.00  0.00    +0.000 HD
ATOM     12  H   UNL     1     -18.000  -9.667  -1.001  0.00  0.00    +0.000 HD
ATOM     13  H   UNL     1     -18.823 -10.823   0.056  0.00  0.00    +0.000 HD
ENDROOT
BRANCH   5  14
ATOM     14  C   UNL     1     -14.280 -11.113  -0.713  0.00  0.00    +0.000 C 
ATOM     15  H   UNL     1     -13.841 -10.157  -1.018  0.00  0.00    +0.000 HD
ATOM     16  H   UNL     1     -13.490 -11.694  -0.225  0.00  0.00    +0.000 HD
ATOM     17  H   UNL     1     -14.588 -11.654  -1.614  0.00  0.00    +0.000 HD
ENDBRANCH   5  14
BRANCH   2  18
ATOM     18  C   UNL     1     -17.531 -10.341   2.289  0.00  0.00    +0.000 C 
ATOM     19  H   UNL     1     -16.804 -11.142   2.466  0.00  0.00    +0.000 HD
BRANCH  18  20
ATOM     20  C   UNL     1     -17.462  -9.407   3.499  0.00  0.00    +0.000 C 
ATOM     21  H   UNL     1     -16.470  -8.973   3.672  0.00  0.00    +0.000 HD
ATOM     22  H   UNL     1     -18.116  -8.544   3.313  0.00  0.00    +0.000 HD
ATOM     23  H   UNL     1     -17.880  -9.854   4.409  0.00  0.00    +0.000 HD
ENDBRANCH  18  20
BRANCH  18  24
ATOM     24  C   UNL     1     -18.902 -11.017   2.220  0.00  0.00    +0.000 C 
ATOM     25  H   UNL     1     -18.812 -12.108   2.175  0.00  0.00    +0.000 HD
ATOM     26  H   UNL     1     -19.452 -10.693   1.328  0.00  0.00    +0.000 HD
ATOM     27  H   UNL     1     -19.542 -10.758   3.068  0.00  0.00    +0.000 HD
ENDBRANCH  18  24
ENDBRANCH   2  18
TORSDOF 4
ENDMDL
MODEL 3
REMARK VINA RESULT:    -4.179     33.123     34.182
REMARK INTER + INTRA:          -4.907
REMARK INTER:                  -4.760
REMARK INTRA:                  -0.146
REMARK UNBOUND:                -0.117
REMARK  Name = 249286
REMARK  4 active torsions:
REMARK  status: ('A' for Active; 'I' for Inactive)
REMARK    1  A    between atoms: C_2  and  C_7
REMARK    2  A    between atoms: C_5  and  C_9
REMARK    3  A    between atoms: C_7  and  C_10
REMARK    4  A    between atoms: C_7  and  C_11
REMARK                            x       y       z     vdW  Elec       q    Type
REMARK                         _______ _______ _______ _____ _____    ______ ____
ROOT
ATOM      1  O   UNL     1     -13.625 -15.418  23.075  0.00  0.00    +0.000 OA
ATOM      2  C   UNL     1     -13.593 -14.044  19.861  0.00  0.00    +0.000 C 
ATOM      3  C   UNL     1     -14.693 -13.204  20.604  0.00  0.00    +0.000 C 
ATOM      4  C   UNL     1     -14.365 -12.969  19.181  0.00  0.00    +0.000 C 
ATOM      5  C   UNL     1     -15.183 -14.250  21.562  0.00  0.00    +0.000 C 
ATOM      6  C   UNL     1     -12.739 -14.377  21.041  0.00  0.00    +0.000 C 
ATOM      7  C   UNL     1     -13.821 -14.784  22.050  0.00  0.00    +0.000 C 
ATOM      8  H   UNL     1     -14.400 -12.330  21.193  0.00  0.00    +0.000 HD
ATOM      9  H   UNL     1     -13.798 -12.069  18.939  0.00  0.00    +0.000 HD
ATOM     10  H   UNL     1     -15.266 -12.958  18.584  0.00  0.00    +0.000 HD
ATOM     11  H   UNL     1     -15.751 -15.042  21.063  0.00  0.00    +0.000 HD
ATOM     12  H   UNL     1     -12.218 -13.490  21.418  0.00  0.00    +0.000 HD
ATOM     13  H   UNL     1     -12.012 -15.180  20.938  0.00  0.00    +0.000 HD
ENDROOT
BRANCH   5  14
ATOM     14  C   UNL     1     -16.004 -13.674  22.700  0.00  0.00    +0.000 C 
ATOM     15  H   UNL     1     -17.035 -14.042  22.658  0.00  0.00    +0.000 HD
ATOM     16  H   UNL     1     -15.597 -13.955  23.677  0.00  0.00    +0.000 HD
ATOM     17  H   UNL     1     -16.026 -12.580  22.647  0.00  0.00    +0.000 HD
ENDBRANCH   5  14
BRANCH   2  18
ATOM     18  C   UNL     1     -13.882 -15.325  19.102  0.00  0.00    +0.000 C 
ATOM     19  H   UNL     1     -14.634 -15.938  19.612  0.00  0.00    +0.000 HD
BRANCH  18  20
ATOM     20  C   UNL     1     -14.432 -15.022  17.707  0.00  0.00    +0.000 C 
ATOM     21  H   UNL     1     -15.216 -15.713  17.376  0.00  0.00    +0.000 HD
ATOM     22  H   UNL     1     -14.920 -14.038  17.730  0.00  0.00    +0.000 HD
ATOM     23  H   UNL     1     -13.645 -14.901  16.954  0.00  0.00    +0.000 HD
ENDBRANCH  18  20
BRANCH  18  24
ATOM     24  C   UNL     1     -12.625 -16.193  18.998  0.00  0.00    +0.000 C 
ATOM     25  H   UNL     1     -12.693 -17.078  19.640  0.00  0.00    +0.000 HD
ATOM     26  H   UNL     1     -11.736 -15.629  19.305  0.00  0.00    +0.000 HD
ATOM     27  H   UNL     1     -12.424 -16.521  17.975  0.00  0.00    +0.000 HD
ENDBRANCH  18  24
ENDBRANCH   2  18
TORSDOF 4
ENDMDL
MODEL 4
REMARK VINA RESULT:    -4.170     16.451     18.594
REMARK INTER + INTRA:          -4.896
REMARK INTER:                  -4.779
REMARK INTRA:                  -0.117
REMARK UNBOUND:                -0.117
REMARK  Name = 249286
REMARK  4 active torsions:
REMARK  status: ('A' for Active; 'I' for Inactive)
REMARK    1  A    between atoms: C_2  and  C_7
REMARK    2  A    between atoms: C_5  and  C_9
REMARK    3  A    between atoms: C_7  and  C_10
REMARK    4  A    between atoms: C_7  and  C_11
REMARK                            x       y       z     vdW  Elec       q    Type
REMARK                         _______ _______ _______ _____ _____    ______ ____
ROOT
ATOM      1  O   UNL     1       5.427  -4.812  12.967  0.00  0.00    +0.000 OA
ATOM      2  C   UNL     1       3.322  -4.926  15.754  0.00  0.00    +0.000 C 
ATOM      3  C   UNL     1       3.338  -3.403  15.374  0.00  0.00    +0.000 C 
ATOM      4  C   UNL     1       2.576  -3.905  16.537  0.00  0.00    +0.000 C 
ATOM      5  C   UNL     1       4.721  -3.317  14.797  0.00  0.00    +0.000 C 
ATOM      6  C   UNL     1       3.554  -5.494  14.391  0.00  0.00    +0.000 C 
ATOM      7  C   UNL     1       4.686  -4.578  13.908  0.00  0.00    +0.000 C 
ATOM      8  H   UNL     1       2.642  -3.025  14.620  0.00  0.00    +0.000 HD
ATOM      9  H   UNL     1       1.489  -3.948  16.444  0.00  0.00    +0.000 HD
ATOM     10  H   UNL     1       2.806  -3.323  17.419  0.00  0.00    +0.000 HD
ATOM     11  H   UNL     1       5.500  -3.405  15.560  0.00  0.00    +0.000 HD
ATOM     12  H   UNL     1       2.680  -5.348  13.746  0.00  0.00    +0.000 HD
ATOM     13  H   UNL     1       3.864  -6.534  14.314  0.00  0.00    +0.000 HD
ENDROOT
BRANCH   5  14
ATOM     14  C   UNL     1       4.946  -2.059  13.981  0.00  0.00    +0.000 C 
ATOM     15  H   UNL     1       5.638  -2.252  13.154  0.00  0.00    +0.000 HD
ATOM     16  H   UNL     1       4.013  -1.685  13.546  0.00  0.00    +0.000 HD
ATOM     17  H   UNL     1       5.368  -1.263  14.605  0.00  0.00    +0.000 HD
ENDBRANCH   5  14
BRANCH   2  18
ATOM     18  C   UNL     1       4.308  -5.567  16.713  0.00  0.00    +0.000 C 
ATOM     19  H   UNL     1       5.268  -5.037  16.720  0.00  0.00    +0.000 HD
BRANCH  18  20
ATOM     20  C   UNL     1       3.776  -5.533  18.147  0.00  0.00    +0.000 C 
ATOM     21  H   UNL     1       3.046  -6.320  18.371  0.00  0.00    +0.000 HD
ATOM     22  H   UNL     1       4.612  -5.725  18.834  0.00  0.00    +0.000 HD
ATOM     23  H   UNL     1       3.419  -4.542  18.448  0.00  0.00    +0.000 HD
ENDBRANCH  18  20
BRANCH  18  24
ATOM     24  C   UNL     1       4.618  -7.006  16.296  0.00  0.00    +0.000 C 
ATOM     25  H   UNL     1       5.614  -7.090  15.849  0.00  0.00    +0.000 HD
ATOM     26  H   UNL     1       3.891  -7.363  15.557  0.00  0.00    +0.000 HD
ATOM     27  H   UNL     1       4.553  -7.709  17.132  0.00  0.00    +0.000 HD
ENDBRANCH  18  24
ENDBRANCH   2  18
TORSDOF 4
ENDMDL
MODEL 5
REMARK VINA RESULT:    -4.161     14.966     17.320
REMARK INTER + INTRA:          -4.886
REMARK INTER:                  -4.820
REMARK INTRA:                  -0.066
REMARK UNBOUND:                -0.117
REMARK  Name = 249286
REMARK  4 active torsions:
REMARK  status: ('A' for Active; 'I' for Inactive)
REMARK    1  A    between atoms: C_2  and  C_7
REMARK    2  A    between atoms: C_5  and  C_9
REMARK    3  A    between atoms: C_7  and  C_10
REMARK    4  A    between atoms: C_7  and  C_11
REMARK                            x       y       z     vdW  Elec       q    Type
REMARK                         _______ _______ _______ _____ _____    ______ ____
ROOT
ATOM      1  O   UNL     1       4.505  -5.936  16.558  0.00  0.00    +0.000 OA
ATOM      2  C   UNL     1       5.351  -3.779  13.940  0.00  0.00    +0.000 C 
ATOM      3  C   UNL     1       4.277  -2.966  14.748  0.00  0.00    +0.000 C 
ATOM      4  C   UNL     1       4.897  -2.427  13.518  0.00  0.00    +0.000 C 
ATOM      5  C   UNL     1       3.459  -4.109  15.272  0.00  0.00    +0.000 C 
ATOM      6  C   UNL     1       5.907  -4.587  15.068  0.00  0.00    +0.000 C 
ATOM      7  C   UNL     1       4.605  -5.022  15.755  0.00  0.00    +0.000 C 
ATOM      8  H   UNL     1       4.587  -2.362  15.605  0.00  0.00    +0.000 HD
ATOM      9  H   UNL     1       5.634  -1.630  13.636  0.00  0.00    +0.000 HD
ATOM     10  H   UNL     1       4.137  -2.071  12.837  0.00  0.00    +0.000 HD
ATOM     11  H   UNL     1       2.877  -4.603  14.487  0.00  0.00    +0.000 HD
ATOM     12  H   UNL     1       6.480  -3.960  15.760  0.00  0.00    +0.000 HD
ATOM     13  H   UNL     1       6.506  -5.462  14.827  0.00  0.00    +0.000 HD
ENDROOT
BRANCH   5  14
ATOM     14  C   UNL     1       2.540  -3.708  16.410  0.00  0.00    +0.000 C 
ATOM     15  H   UNL     1       2.112  -2.716  16.231  0.00  0.00    +0.000 HD
ATOM     16  H   UNL     1       1.705  -4.408  16.524  0.00  0.00    +0.000 HD
ATOM     17  H   UNL     1       3.087  -3.681  17.359  0.00  0.00    +0.000 HD
ENDBRANCH   5  14
BRANCH   2  18
ATOM     18  C   UNL     1       5.013  -4.721  12.800  0.00  0.00    +0.000 C 
ATOM     19  H   UNL     1       3.969  -5.055  12.846  0.00  0.00    +0.000 HD
BRANCH  18  20
ATOM     20  C   UNL     1       5.195  -4.029  11.447  0.00  0.00    +0.000 C 
ATOM     21  H   UNL     1       6.226  -3.720  11.238  0.00  0.00    +0.000 HD
ATOM     22  H   UNL     1       4.952  -4.747  10.652  0.00  0.00    +0.000 HD
ATOM     23  H   UNL     1       4.480  -3.214  11.284  0.00  0.00    +0.000 HD
ENDBRANCH  18  20
BRANCH  18  24
ATOM     24  C   UNL     1       5.869  -5.988  12.866  0.00  0.00    +0.000 C 
ATOM     25  H   UNL     1       6.260  -6.157  13.875  0.00  0.00    +0.000 HD
ATOM     26  H   UNL     1       6.727  -5.914  12.186  0.00  0.00    +0.000 HD
ATOM     27  H   UNL     1       5.323  -6.881  12.551  0.00  0.00    +0.000 HD
ENDBRANCH  18  24
ENDBRANCH   2  18
TORSDOF 4
ENDMDL
MODEL 6
REMARK VINA RESULT:    -4.144     33.326     34.731
REMARK INTER + INTRA:          -4.866
REMARK INTER:                  -4.729
REMARK INTRA:                  -0.137
REMARK UNBOUND:                -0.117
REMARK  Name = 249286
REMARK  4 active torsions:
REMARK  status: ('A' for Active; 'I' for Inactive)
REMARK    1  A    between atoms: C_2  and  C_7
REMARK    2  A    between atoms: C_5  and  C_9
REMARK    3  A    between atoms: C_7  and  C_10
REMARK    4  A    between atoms: C_7  and  C_11
REMARK                            x       y       z     vdW  Elec       q    Type
REMARK                         _______ _______ _______ _____ _____    ______ ____
ROOT
ATOM      1  O   UNL     1     -15.927 -13.339  22.022  0.00  0.00    +0.000 OA
ATOM      2  C   UNL     1     -13.094 -15.295  21.413  0.00  0.00    +0.000 C 
ATOM      3  C   UNL     1     -12.941 -14.107  20.397  0.00  0.00    +0.000 C 
ATOM      4  C   UNL     1     -11.954 -15.206  20.462  0.00  0.00    +0.000 C 
ATOM      5  C   UNL     1     -14.393 -13.817  20.151  0.00  0.00    +0.000 C 
ATOM      6  C   UNL     1     -13.860 -14.574  22.476  0.00  0.00    +0.000 C 
ATOM      7  C   UNL     1     -14.890 -13.836  21.611  0.00  0.00    +0.000 C 
ATOM      8  H   UNL     1     -12.469 -13.175  20.720  0.00  0.00    +0.000 HD
ATOM      9  H   UNL     1     -10.986 -14.984  20.914  0.00  0.00    +0.000 HD
ATOM     10  H   UNL     1     -11.770 -15.607  19.475  0.00  0.00    +0.000 HD
ATOM     11  H   UNL     1     -14.884 -14.601  19.566  0.00  0.00    +0.000 HD
ATOM     12  H   UNL     1     -13.231 -13.836  22.986  0.00  0.00    +0.000 HD
ATOM     13  H   UNL     1     -14.371 -15.167  23.231  0.00  0.00    +0.000 HD
ENDROOT
BRANCH   5  14
ATOM     14  C   UNL     1     -14.625 -12.470  19.494  0.00  0.00    +0.000 C 
ATOM     15  H   UNL     1     -15.572 -12.034  19.830  0.00  0.00    +0.000 HD
ATOM     16  H   UNL     1     -13.831 -11.756  19.740  0.00  0.00    +0.000 HD
ATOM     17  H   UNL     1     -14.659 -12.571  18.404  0.00  0.00    +0.000 HD
ENDBRANCH   5  14
BRANCH   2  18
ATOM     18  C   UNL     1     -13.820 -16.588  21.095  0.00  0.00    +0.000 C 
ATOM     19  H   UNL     1     -14.769 -16.404  20.578  0.00  0.00    +0.000 HD
BRANCH  18  20
ATOM     20  C   UNL     1     -12.980 -17.473  20.172  0.00  0.00    +0.000 C 
ATOM     21  H   UNL     1     -13.568 -18.166  19.559  0.00  0.00    +0.000 HD
ATOM     22  H   UNL     1     -12.463 -16.829  19.446  0.00  0.00    +0.000 HD
ATOM     23  H   UNL     1     -12.160 -17.980  20.694  0.00  0.00    +0.000 HD
ENDBRANCH  18  20
BRANCH  18  24
ATOM     24  C   UNL     1     -14.172 -17.346  22.377  0.00  0.00    +0.000 C 
ATOM     25  H   UNL     1     -14.554 -18.349  22.160  0.00  0.00    +0.000 HD
ATOM     26  H   UNL     1     -14.945 -16.813  22.945  0.00  0.00    +0.000 HD
ATOM     27  H   UNL     1     -13.321 -17.439  23.058  0.00  0.00    +0.000 HD
ENDBRANCH  18  24
ENDBRANCH   2  18
TORSDOF 4
ENDMDL
MODEL 7
REMARK VINA RESULT:    -4.141     32.789     34.034
REMARK INTER + INTRA:          -4.863
REMARK INTER:                  -4.842
REMARK INTRA:                  -0.021
REMARK UNBOUND:                -0.117
REMARK  Name = 249286
REMARK  4 active torsions:
REMARK  status: ('A' for Active; 'I' for Inactive)
REMARK    1  A    between atoms: C_2  and  C_7
REMARK    2  A    between atoms: C_5  and  C_9
REMARK    3  A    between atoms: C_7  and  C_10
REMARK    4  A    between atoms: C_7  and  C_11
REMARK                            x       y       z     vdW  Elec       q    Type
REMARK                         _______ _______ _______ _____ _____    ______ ____
ROOT
ATOM      1  O   UNL     1     -15.852 -13.574  17.947  0.00  0.00    +0.000 OA
ATOM      2  C   UNL     1     -13.621 -13.937  20.613  0.00  0.00    +0.000 C 
ATOM      3  C   UNL     1     -12.968 -14.798  19.473  0.00  0.00    +0.000 C 
ATOM      4  C   UNL     1     -12.355 -14.691  20.815  0.00  0.00    +0.000 C 
ATOM      5  C   UNL     1     -14.215 -15.230  18.759  0.00  0.00    +0.000 C 
ATOM      6  C   UNL     1     -14.325 -12.937  19.754  0.00  0.00    +0.000 C 
ATOM      7  C   UNL     1     -14.942 -13.871  18.704  0.00  0.00    +0.000 C 
ATOM      8  H   UNL     1     -12.316 -14.318  18.738  0.00  0.00    +0.000 HD
ATOM      9  H   UNL     1     -11.457 -14.079  20.909  0.00  0.00    +0.000 HD
ATOM     10  H   UNL     1     -12.123 -15.674  21.202  0.00  0.00    +0.000 HD
ATOM     11  H   UNL     1     -14.798 -15.956  19.334  0.00  0.00    +0.000 HD
ATOM     12  H   UNL     1     -13.613 -12.267  19.258  0.00  0.00    +0.000 HD
ATOM     13  H   UNL     1     -15.104 -12.328  20.208  0.00  0.00    +0.000 HD
ENDROOT
BRANCH   5  14
ATOM     14  C   UNL     1     -13.943 -15.780  17.372  0.00  0.00    +0.000 C 
ATOM     15  H   UNL     1     -13.175 -16.561  17.409  0.00  0.00    +0.000 HD
ATOM     16  H   UNL     1     -14.840 -16.226  16.929  0.00  0.00    +0.000 HD
ATOM     17  H   UNL     1     -13.596 -14.987  16.701  0.00  0.00    +0.000 HD
ENDBRANCH   5  14
BRANCH   2  18
ATOM     18  C   UNL     1     -14.614 -14.485  21.620  0.00  0.00    +0.000 C 
ATOM     19  H   UNL     1     -15.045 -15.437  21.287  0.00  0.00    +0.000 HD
BRANCH  18  20
ATOM     20  C   UNL     1     -13.935 -14.756  22.964  0.00  0.00    +0.000 C 
ATOM     21  H   UNL     1     -14.545 -14.486  23.835  0.00  0.00    +0.000 HD
ATOM     22  H   UNL     1     -13.773 -15.838  23.062  0.00  0.00    +0.000 HD
ATOM     23  H   UNL     1     -12.924 -14.338  23.025  0.00  0.00    +0.000 HD
ENDBRANCH  18  20
BRANCH  18  24
ATOM     24  C   UNL     1     -15.791 -13.525  21.805  0.00  0.00    +0.000 C 
ATOM     25  H   UNL     1     -16.407 -13.465  20.901  0.00  0.00    +0.000 HD
ATOM     26  H   UNL     1     -15.436 -12.512  22.031  0.00  0.00    +0.000 HD
ATOM     27  H   UNL     1     -16.433 -13.804  22.644  0.00  0.00    +0.000 HD
ENDBRANCH  18  24
ENDBRANCH   2  18
TORSDOF 4
ENDMDL
MODEL 8
REMARK VINA RESULT:    -4.140     15.521     16.605
REMARK INTER + INTRA:          -4.861
REMARK INTER:                  -4.726
REMARK INTRA:                  -0.136
REMARK UNBOUND:                -0.117
REMARK  Name = 249286
REMARK  4 active torsions:
REMARK  status: ('A' for Active; 'I' for Inactive)
REMARK    1  A    between atoms: C_2  and  C_7
REMARK    2  A    between atoms: C_5  and  C_9
REMARK    3  A    between atoms: C_7  and  C_10
REMARK    4  A    between atoms: C_7  and  C_11
REMARK                            x       y       z     vdW  Elec       q    Type
REMARK                         _______ _______ _______ _____ _____    ______ ____
ROOT
ATOM      1  O   UNL     1       0.895  11.430 -12.058  0.00  0.00    +0.000 OA
ATOM      2  C   UNL     1       3.750  12.939 -10.722  0.00  0.00    +0.000 C 
ATOM      3  C   UNL     1       2.619  13.345  -9.711  0.00  0.00    +0.000 C 
ATOM      4  C   UNL     1       4.015  13.801  -9.539  0.00  0.00    +0.000 C 
ATOM      5  C   UNL     1       1.456  13.382 -10.659  0.00  0.00    +0.000 C 
ATOM      6  C   UNL     1       3.174  11.640 -11.184  0.00  0.00    +0.000 C 
ATOM      7  C   UNL     1       1.714  12.057 -11.405  0.00  0.00    +0.000 C 
ATOM      8  H   UNL     1       2.355  12.668  -8.893  0.00  0.00    +0.000 HD
ATOM      9  H   UNL     1       4.600  13.336  -8.744  0.00  0.00    +0.000 HD
ATOM     10  H   UNL     1       4.046  14.871  -9.385  0.00  0.00    +0.000 HD
ATOM     11  H   UNL     1       1.507  14.229 -11.350  0.00  0.00    +0.000 HD
ATOM     12  H   UNL     1       3.211  10.884 -10.391  0.00  0.00    +0.000 HD
ATOM     13  H   UNL     1       3.572  11.196 -12.094  0.00  0.00    +0.000 HD
ENDROOT
BRANCH   5  14
ATOM     14  C   UNL     1       0.115  13.380  -9.952  0.00  0.00    +0.000 C 
ATOM     15  H   UNL     1       0.045  12.537  -9.256  0.00  0.00    +0.000 HD
ATOM     16  H   UNL     1      -0.040  14.296  -9.372  0.00  0.00    +0.000 HD
ATOM     17  H   UNL     1      -0.704  13.299 -10.675  0.00  0.00    +0.000 HD
ENDBRANCH   5  14
BRANCH   2  18
ATOM     18  C   UNL     1       4.123  13.757 -11.943  0.00  0.00    +0.000 C 
ATOM     19  H   UNL     1       3.253  14.272 -12.367  0.00  0.00    +0.000 HD
BRANCH  18  20
ATOM     20  C   UNL     1       5.143  14.841 -11.584  0.00  0.00    +0.000 C 
ATOM     21  H   UNL     1       5.259  15.617 -12.350  0.00  0.00    +0.000 HD
ATOM     22  H   UNL     1       4.784  15.378 -10.695  0.00  0.00    +0.000 HD
ATOM     23  H   UNL     1       6.108  14.431 -11.264  0.00  0.00    +0.000 HD
ENDBRANCH  18  20
BRANCH  18  24
ATOM     24  C   UNL     1       4.673  12.861 -13.054  0.00  0.00    +0.000 C 
ATOM     25  H   UNL     1       5.707  12.559 -12.854  0.00  0.00    +0.000 HD
ATOM     26  H   UNL     1       4.662  13.383 -14.018  0.00  0.00    +0.000 HD
ATOM     27  H   UNL     1       4.072  11.959 -13.204  0.00  0.00    +0.000 HD
ENDBRANCH  18  24
ENDBRANCH   2  18
TORSDOF 4
ENDMDL
MODEL 9
REMARK VINA RESULT:    -4.116     15.500     16.771
REMARK INTER + INTRA:          -4.834
REMARK INTER:                  -4.703
REMARK INTRA:                  -0.131
REMARK UNBOUND:                -0.117
REMARK  Name = 249286
REMARK  4 active torsions:
REMARK  status: ('A' for Active; 'I' for Inactive)
REMARK    1  A    between atoms: C_2  and  C_7
REMARK    2  A    between atoms: C_5  and  C_9
REMARK    3  A    between atoms: C_7  and  C_10
REMARK    4  A    between atoms: C_7  and  C_11
REMARK                            x       y       z     vdW  Elec       q    Type
REMARK                         _______ _______ _______ _____ _____    ______ ____
ROOT
ATOM      1  O   UNL     1       4.758  12.237 -13.419  0.00  0.00    +0.000 OA
ATOM      2  C   UNL     1       2.267  12.115 -10.970  0.00  0.00    +0.000 C 
ATOM      3  C   UNL     1       1.475  11.878 -12.305  0.00  0.00    +0.000 C 
ATOM      4  C   UNL     1       0.791  11.932 -10.995  0.00  0.00    +0.000 C 
ATOM      5  C   UNL     1       2.338  12.677 -13.237  0.00  0.00    +0.000 C 
ATOM      6  C   UNL     1       3.579  11.535 -11.389  0.00  0.00    +0.000 C 
ATOM      7  C   UNL     1       3.720  12.166 -12.781  0.00  0.00    +0.000 C 
ATOM      8  H   UNL     1       1.395  10.867 -12.715  0.00  0.00    +0.000 HD
ATOM      9  H   UNL     1       0.431  10.990 -10.579  0.00  0.00    +0.000 HD
ATOM     10  H   UNL     1      -0.047  12.613 -11.035  0.00  0.00    +0.000 HD
ATOM     11  H   UNL     1       2.251  13.755 -13.069  0.00  0.00    +0.000 HD
ATOM     12  H   UNL     1       3.515  10.446 -11.498  0.00  0.00    +0.000 HD
ATOM     13  H   UNL     1       4.457  11.766 -10.790  0.00  0.00    +0.000 HD
ENDROOT
BRANCH   5  14
ATOM     14  C   UNL     1       2.077  12.367 -14.699  0.00  0.00    +0.000 C 
ATOM     15  H   UNL     1       2.483  11.385 -14.965  0.00  0.00    +0.000 HD
ATOM     16  H   UNL     1       1.005  12.348 -14.925  0.00  0.00    +0.000 HD
ATOM     17  H   UNL     1       2.543  13.119 -15.344  0.00  0.00    +0.000 HD
ENDBRANCH   5  14
BRANCH   2  18
ATOM     18  C   UNL     1       2.519  13.486 -10.371  0.00  0.00    +0.000 C 
ATOM     19  H   UNL     1       2.597  14.258 -11.146  0.00  0.00    +0.000 HD
BRANCH  18  20
ATOM     20  C   UNL     1       1.370  13.900  -9.450  0.00  0.00    +0.000 C 
ATOM     21  H   UNL     1       0.674  13.088  -9.211  0.00  0.00    +0.000 HD
ATOM     22  H   UNL     1       1.791  14.200  -8.480  0.00  0.00    +0.000 HD
ATOM     23  H   UNL     1       0.849  14.801  -9.794  0.00  0.00    +0.000 HD
ENDBRANCH  18  20
BRANCH  18  24
ATOM     24  C   UNL     1       3.846  13.512  -9.608  0.00  0.00    +0.000 C 
ATOM     25  H   UNL     1       4.690  13.265 -10.260  0.00  0.00    +0.000 HD
ATOM     26  H   UNL     1       3.838  12.785  -8.787  0.00  0.00    +0.000 HD
ATOM     27  H   UNL     1       4.042  14.480  -9.139  0.00  0.00    +0.000 HD
ENDBRANCH  18  24
ENDBRANCH   2  18
TORSDOF 4
ENDMDL
MODEL 10
REMARK VINA RESULT:    -4.001     15.817     16.954
REMARK INTER + INTRA:          -4.702
REMARK INTER:                  -4.585
REMARK INTRA:                  -0.117
REMARK UNBOUND:                -0.117
REMARK  Name = 249286
REMARK  4 active torsions:
REMARK  status: ('A' for Active; 'I' for Inactive)
REMARK    1  A    between atoms: C_2  and  C_7
REMARK    2  A    between atoms: C_5  and  C_9
REMARK    3  A    between atoms: C_7  and  C_10
REMARK    4  A    between atoms: C_7  and  C_11
REMARK                            x       y       z     vdW  Elec       q    Type
REMARK                         _______ _______ _______ _____ _____    ______ ____
ROOT
ATOM      1  O   UNL     1       5.078  15.860 -10.194  0.00  0.00    +0.000 OA
ATOM      2  C   UNL     1       3.130  12.959 -10.279  0.00  0.00    +0.000 C 
ATOM      3  C   UNL     1       4.046  12.819 -11.548  0.00  0.00    +0.000 C 
ATOM      4  C   UNL     1       3.028  11.801 -11.208  0.00  0.00    +0.000 C 
ATOM      5  C   UNL     1       4.221  14.273 -11.876  0.00  0.00    +0.000 C 
ATOM      6  C   UNL     1       4.057  13.768  -9.430  0.00  0.00    +0.000 C 
ATOM      7  C   UNL     1       4.533  14.801 -10.460  0.00  0.00    +0.000 C 
ATOM      8  H   UNL     1       5.043  12.381 -11.450  0.00  0.00    +0.000 HD
ATOM      9  H   UNL     1       3.383  10.850 -10.809  0.00  0.00    +0.000 HD
ATOM     10  H   UNL     1       2.410  11.585 -12.068  0.00  0.00    +0.000 HD
ATOM     11  H   UNL     1       3.304  14.728 -12.263  0.00  0.00    +0.000 HD
ATOM     12  H   UNL     1       4.916  13.172  -9.102  0.00  0.00    +0.000 HD
ATOM     13  H   UNL     1       3.645  14.277  -8.562  0.00  0.00    +0.000 HD
ENDROOT
BRANCH   5  14
ATOM     14  C   UNL     1       5.364  14.530 -12.839  0.00  0.00    +0.000 C 
ATOM     15  H   UNL     1       5.271  13.895 -13.727  0.00  0.00    +0.000 HD
ATOM     16  H   UNL     1       5.379  15.570 -13.181  0.00  0.00    +0.000 HD
ATOM     17  H   UNL     1       6.327  14.319 -12.362  0.00  0.00    +0.000 HD
ENDBRANCH   5  14
BRANCH   2  18
ATOM     18  C   UNL     1       1.775  13.639 -10.289  0.00  0.00    +0.000 C 
ATOM     19  H   UNL     1       1.713  14.409 -11.067  0.00  0.00    +0.000 HD
BRANCH  18  20
ATOM     20  C   UNL     1       0.660  12.631 -10.577  0.00  0.00    +0.000 C 
ATOM     21  H   UNL     1      -0.246  13.077 -11.003  0.00  0.00    +0.000 HD
ATOM     22  H   UNL     1       1.013  11.930 -11.346  0.00  0.00    +0.000 HD
ATOM     23  H   UNL     1       0.437  11.984  -9.721  0.00  0.00    +0.000 HD
ENDBRANCH  18  20
BRANCH  18  24
ATOM     24  C   UNL     1       1.513  14.353  -8.961  0.00  0.00    +0.000 C 
ATOM     25  H   UNL     1       0.554  14.883  -8.971  0.00  0.00    +0.000 HD
ATOM     26  H   UNL     1       2.297  15.091  -8.754  0.00  0.00    +0.000 HD
ATOM     27  H   UNL     1       1.521  13.670  -8.107  0.00  0.00    +0.000 HD
ENDBRANCH  18  24
ENDBRANCH   2  18
TORSDOF 4
ENDMDL
