MODEL 1
REMARK VINA RESULT:    -3.358      0.000      0.000
REMARK INTER + INTRA:          -4.507
REMARK INTER:                  -4.348
REMARK INTRA:                  -0.159
REMARK UNBOUND:                -0.167
REMARK  Name = 31272
REMARK  6 active torsions:
REMARK  status: ('A' for Active; 'I' for Inactive)
REMARK    1  A    between atoms: O_1  and  C_5
REMARK    2  A    between atoms: O_1  and  C_7
REMARK    3  A    between atoms: C_3  and  C_4
REMARK    4  A    between atoms: C_3  and  C_5
REMARK    5  A    between atoms: C_4  and  C_6
REMARK    6  A    between atoms: C_7  and  C_8
REMARK                            x       y       z     vdW  Elec       q    Type
REMARK                         _______ _______ _______ _____ _____    ______ ____
ROOT
ATOM      1  C   UNL     1      -1.503 -14.337  -8.565  0.00  0.00    +0.000 C 
ATOM      2  H   UNL     1      -0.772 -15.105  -8.282  0.00  0.00    +0.000 HD
ATOM      3  H   UNL     1      -2.465 -14.674  -8.158  0.00  0.00    +0.000 HD
ENDROOT
BRANCH   1   4
ATOM      4  C   UNL     1      -1.115 -12.991  -7.958  0.00  0.00    +0.000 C 
ATOM      5  H   UNL     1      -0.448 -13.146  -7.100  0.00  0.00    +0.000 HD
ATOM      6  H   UNL     1      -2.009 -12.480  -7.586  0.00  0.00    +0.000 HD
BRANCH   4   7
ATOM      7  C   UNL     1      -0.416 -12.103  -8.974  0.00  0.00    +0.000 C 
ATOM      8  H   UNL     1       0.328 -11.462  -8.491  0.00  0.00    +0.000 HD
ATOM      9  H   UNL     1       0.091 -12.703  -9.737  0.00  0.00    +0.000 HD
ATOM     10  H   UNL     1      -1.144 -11.458  -9.478  0.00  0.00    +0.000 HD
ENDBRANCH   4   7
ENDBRANCH   1   4
BRANCH   1  11
ATOM     11  C   UNL     1      -1.598 -14.263 -10.081  0.00  0.00    +0.000 C 
ATOM     12  H   UNL     1      -2.607 -13.956 -10.380  0.00  0.00    +0.000 HD
ATOM     13  H   UNL     1      -0.873 -13.537 -10.468  0.00  0.00    +0.000 HD
BRANCH  11  14
ATOM     14  O   UNL     1      -1.318 -15.546 -10.623  0.00  0.00    +0.000 OA
BRANCH  14  16
ATOM     15  O   UNL     1      -0.129 -16.414 -12.403  0.00  0.00    +0.000 OA
ATOM     16  C   UNL     1      -0.859 -15.564 -11.911  0.00  0.00    +0.000 C 
BRANCH  16  17
ATOM     17  C   UNL     1      -1.383 -14.374 -12.657  0.00  0.00    +0.000 C 
ATOM     18  H   UNL     1      -1.114 -14.453 -13.714  0.00  0.00    +0.000 HD
ATOM     19  H   UNL     1      -0.979 -13.457 -12.223  0.00  0.00    +0.000 HD
ATOM     20  H   UNL     1      -2.474 -14.347 -12.577  0.00  0.00    +0.000 HD
ENDBRANCH  16  17
ENDBRANCH  14  16
ENDBRANCH  11  14
ENDBRANCH   1  11
TORSDOF 6
ENDMDL
MODEL 2
REMARK VINA RESULT:    -3.286     31.927     32.734
REMARK INTER + INTRA:          -4.414
REMARK INTER:                  -4.356
REMARK INTRA:                  -0.059
REMARK UNBOUND:                -0.167
REMARK  Name = 31272
REMARK  6 active torsions:
REMARK  status: ('A' for Active; 'I' for Inactive)
REMARK    1  A    between atoms: O_1  and  C_5
REMARK    2  A    between atoms: O_1  and  C_7
REMARK    3  A    between atoms: C_3  and  C_4
REMARK    4  A    between atoms: C_3  and  C_5
REMARK    5  A    between atoms: C_4  and  C_6
REMARK    6  A    between atoms: C_7  and  C_8
REMARK                            x       y       z     vdW  Elec       q    Type
REMARK                         _______ _______ _______ _____ _____    ______ ____
ROOT
ATOM      1  C   UNL     1       0.015  -7.111  21.006  0.00  0.00    +0.000 C 
ATOM      2  H   UNL     1      -0.053  -6.872  22.075  0.00  0.00    +0.000 HD
ATOM      3  H   UNL     1       0.293  -8.171  20.952  0.00  0.00    +0.000 HD
ENDROOT
BRANCH   1   4
ATOM      4  C   UNL     1      -1.333  -6.884  20.327  0.00  0.00    +0.000 C 
ATOM      5  H   UNL     1      -1.683  -7.818  19.870  0.00  0.00    +0.000 HD
ATOM      6  H   UNL     1      -1.225  -6.149  19.522  0.00  0.00    +0.000 HD
BRANCH   4   7
ATOM      7  C   UNL     1      -2.379  -6.395  21.316  0.00  0.00    +0.000 C 
ATOM      8  H   UNL     1      -2.100  -5.425  21.737  0.00  0.00    +0.000 HD
ATOM      9  H   UNL     1      -3.357  -6.292  20.833  0.00  0.00    +0.000 HD
ATOM     10  H   UNL     1      -2.481  -7.107  22.142  0.00  0.00    +0.000 HD
ENDBRANCH   4   7
ENDBRANCH   1   4
BRANCH   1  11
ATOM     11  C   UNL     1       1.113  -6.272  20.369  0.00  0.00    +0.000 C 
ATOM     12  H   UNL     1       1.579  -6.827  19.546  0.00  0.00    +0.000 HD
ATOM     13  H   UNL     1       0.693  -5.338  19.980  0.00  0.00    +0.000 HD
BRANCH  11  14
ATOM     14  O   UNL     1       2.095  -5.977  21.353  0.00  0.00    +0.000 OA
BRANCH  14  16
ATOM     15  O   UNL     1       2.958  -4.247  20.087  0.00  0.00    +0.000 OA
ATOM     16  C   UNL     1       3.052  -5.071  20.988  0.00  0.00    +0.000 C 
BRANCH  16  17
ATOM     17  C   UNL     1       4.262  -5.225  21.859  0.00  0.00    +0.000 C 
ATOM     18  H   UNL     1       4.563  -6.276  21.892  0.00  0.00    +0.000 HD
ATOM     19  H   UNL     1       4.043  -4.855  22.864  0.00  0.00    +0.000 HD
ATOM     20  H   UNL     1       5.086  -4.639  21.443  0.00  0.00    +0.000 HD
ENDBRANCH  16  17
ENDBRANCH  14  16
ENDBRANCH  11  14
ENDBRANCH   1  11
TORSDOF 6
ENDMDL
MODEL 3
REMARK VINA RESULT:    -3.233     32.161     32.813
REMARK INTER + INTRA:          -4.345
REMARK INTER:                  -4.204
REMARK INTRA:                  -0.141
REMARK UNBOUND:                -0.167
REMARK  Name = 31272
REMARK  6 active torsions:
REMARK  status: ('A' for Active; 'I' for Inactive)
REMARK    1  A    between atoms: O_1  and  C_5
REMARK    2  A    between atoms: O_1  and  C_7
REMARK    3  A    between atoms: C_3  and  C_4
REMARK    4  A    between atoms: C_3  and  C_5
REMARK    5  A    between atoms: C_4  and  C_6
REMARK    6  A    between atoms: C_7  and  C_8
REMARK                            x       y       z     vdW  Elec       q    Type
REMARK                         _______ _______ _______ _____ _____    ______ ____
ROOT
ATOM      1  C   UNL     1      -2.256   7.866  12.683  0.00  0.00    +0.000 C 
ATOM      2  H   UNL     1      -1.244   7.467  12.824  0.00  0.00    +0.000 HD
ATOM      3  H   UNL     1      -2.701   7.274  11.874  0.00  0.00    +0.000 HD
ENDROOT
BRANCH   1   4
ATOM      4  C   UNL     1      -3.071   7.705  13.964  0.00  0.00    +0.000 C 
ATOM      5  H   UNL     1      -2.415   7.808  14.838  0.00  0.00    +0.000 HD
ATOM      6  H   UNL     1      -3.509   6.702  14.003  0.00  0.00    +0.000 HD
BRANCH   4   7
ATOM      7  C   UNL     1      -4.179   8.741  14.053  0.00  0.00    +0.000 C 
ATOM      8  H   UNL     1      -5.055   8.430  13.476  0.00  0.00    +0.000 HD
ATOM      9  H   UNL     1      -4.489   8.897  15.092  0.00  0.00    +0.000 HD
ATOM     10  H   UNL     1      -3.833   9.701  13.654  0.00  0.00    +0.000 HD
ENDBRANCH   4   7
ENDBRANCH   1   4
BRANCH   1  11
ATOM     11  C   UNL     1      -2.171   9.322  12.251  0.00  0.00    +0.000 C 
ATOM     12  H   UNL     1      -3.151   9.802  12.354  0.00  0.00    +0.000 HD
ATOM     13  H   UNL     1      -1.443   9.856  12.872  0.00  0.00    +0.000 HD
BRANCH  11  14
ATOM     14  O   UNL     1      -1.762   9.374  10.891  0.00  0.00    +0.000 OA
BRANCH  14  16
ATOM     15  O   UNL     1      -0.707  11.033   9.679  0.00  0.00    +0.000 OA
ATOM     16  C   UNL     1      -1.645  10.624  10.350  0.00  0.00    +0.000 C 
BRANCH  16  17
ATOM     17  C   UNL     1      -2.848  11.448  10.698  0.00  0.00    +0.000 C 
ATOM     18  H   UNL     1      -2.806  12.406  10.173  0.00  0.00    +0.000 HD
ATOM     19  H   UNL     1      -2.891  11.603  11.779  0.00  0.00    +0.000 HD
ATOM     20  H   UNL     1      -3.753  10.918  10.385  0.00  0.00    +0.000 HD
ENDBRANCH  16  17
ENDBRANCH  14  16
ENDBRANCH  11  14
ENDBRANCH   1  11
TORSDOF 6
ENDMDL
MODEL 4
REMARK VINA RESULT:    -2.940     26.816     28.253
REMARK INTER + INTRA:          -3.967
REMARK INTER:                  -3.803
REMARK INTRA:                  -0.164
REMARK UNBOUND:                -0.167
REMARK  Name = 31272
REMARK  6 active torsions:
REMARK  status: ('A' for Active; 'I' for Inactive)
REMARK    1  A    between atoms: O_1  and  C_5
REMARK    2  A    between atoms: O_1  and  C_7
REMARK    3  A    between atoms: C_3  and  C_4
REMARK    4  A    between atoms: C_3  and  C_5
REMARK    5  A    between atoms: C_4  and  C_6
REMARK    6  A    between atoms: C_7  and  C_8
REMARK                            x       y       z     vdW  Elec       q    Type
REMARK                         _______ _______ _______ _____ _____    ______ ____
ROOT
ATOM      1  C   UNL     1       4.568  14.722 -10.416  0.00  0.00    +0.000 C 
ATOM      2  H   UNL     1       4.518  15.816 -10.478  0.00  0.00    +0.000 HD
ATOM      3  H   UNL     1       5.622  14.460 -10.571  0.00  0.00    +0.000 HD
ENDROOT
BRANCH   1   4
ATOM      4  C   UNL     1       4.104  14.249  -9.040  0.00  0.00    +0.000 C 
ATOM      5  H   UNL     1       4.099  13.153  -9.005  0.00  0.00    +0.000 HD
ATOM      6  H   UNL     1       3.077  14.585  -8.859  0.00  0.00    +0.000 HD
BRANCH   4   7
ATOM      7  C   UNL     1       5.007  14.776  -7.937  0.00  0.00    +0.000 C 
ATOM      8  H   UNL     1       5.688  15.542  -8.318  0.00  0.00    +0.000 HD
ATOM      9  H   UNL     1       4.418  15.214  -7.124  0.00  0.00    +0.000 HD
ATOM     10  H   UNL     1       5.610  13.962  -7.520  0.00  0.00    +0.000 HD
ENDBRANCH   4   7
ENDBRANCH   1   4
BRANCH   1  11
ATOM     11  C   UNL     1       3.731  14.113 -11.531  0.00  0.00    +0.000 C 
ATOM     12  H   UNL     1       2.901  13.536 -11.105  0.00  0.00    +0.000 HD
ATOM     13  H   UNL     1       3.325  14.904 -12.171  0.00  0.00    +0.000 HD
BRANCH  11  14
ATOM     14  O   UNL     1       4.554  13.252 -12.305  0.00  0.00    +0.000 OA
BRANCH  14  16
ATOM     15  O   UNL     1       4.061  11.505 -13.734  0.00  0.00    +0.000 OA
ATOM     16  C   UNL     1       4.009  12.042 -12.635  0.00  0.00    +0.000 C 
BRANCH  16  17
ATOM     17  C   UNL     1       3.323  11.447 -11.442  0.00  0.00    +0.000 C 
ATOM     18  H   UNL     1       2.640  12.181 -11.005  0.00  0.00    +0.000 HD
ATOM     19  H   UNL     1       4.067  11.128 -10.709  0.00  0.00    +0.000 HD
ATOM     20  H   UNL     1       2.744  10.574 -11.755  0.00  0.00    +0.000 HD
ENDBRANCH  16  17
ENDBRANCH  14  16
ENDBRANCH  11  14
ENDBRANCH   1  11
TORSDOF 6
ENDMDL
MODEL 5
REMARK VINA RESULT:    -2.911     27.007     28.099
REMARK INTER + INTRA:          -3.930
REMARK INTER:                  -3.828
REMARK INTRA:                  -0.102
REMARK UNBOUND:                -0.167
REMARK  Name = 31272
REMARK  6 active torsions:
REMARK  status: ('A' for Active; 'I' for Inactive)
REMARK    1  A    between atoms: O_1  and  C_5
REMARK    2  A    between atoms: O_1  and  C_7
REMARK    3  A    between atoms: C_3  and  C_4
REMARK    4  A    between atoms: C_3  and  C_5
REMARK    5  A    between atoms: C_4  and  C_6
REMARK    6  A    between atoms: C_7  and  C_8
REMARK                            x       y       z     vdW  Elec       q    Type
REMARK                         _______ _______ _______ _____ _____    ______ ____
ROOT
ATOM      1  C   UNL     1       3.316  -4.118  15.281  0.00  0.00    +0.000 C 
ATOM      2  H   UNL     1       3.842  -5.067  15.446  0.00  0.00    +0.000 HD
ATOM      3  H   UNL     1       2.620  -4.301  14.453  0.00  0.00    +0.000 HD
ENDROOT
BRANCH   1   4
ATOM      4  C   UNL     1       2.548  -3.714  16.537  0.00  0.00    +0.000 C 
ATOM      5  H   UNL     1       1.469  -3.764  16.346  0.00  0.00    +0.000 HD
ATOM      6  H   UNL     1       2.784  -2.677  16.799  0.00  0.00    +0.000 HD
BRANCH   4   7
ATOM      7  C   UNL     1       2.886  -4.618  17.711  0.00  0.00    +0.000 C 
ATOM      8  H   UNL     1       3.967  -4.766  17.795  0.00  0.00    +0.000 HD
ATOM      9  H   UNL     1       2.524  -4.190  18.652  0.00  0.00    +0.000 HD
ATOM     10  H   UNL     1       2.417  -5.599  17.581  0.00  0.00    +0.000 HD
ENDBRANCH   4   7
ENDBRANCH   1   4
BRANCH   1  11
ATOM     11  C   UNL     1       4.317  -3.050  14.866  0.00  0.00    +0.000 C 
ATOM     12  H   UNL     1       3.883  -2.053  15.011  0.00  0.00    +0.000 HD
ATOM     13  H   UNL     1       5.228  -3.135  15.469  0.00  0.00    +0.000 HD
BRANCH  11  14
ATOM     14  O   UNL     1       4.639  -3.229  13.494  0.00  0.00    +0.000 OA
BRANCH  14  16
ATOM     15  O   UNL     1       6.507  -3.146  12.139  0.00  0.00    +0.000 OA
ATOM     16  C   UNL     1       5.859  -2.755  13.100  0.00  0.00    +0.000 C 
BRANCH  16  17
ATOM     17  C   UNL     1       6.307  -1.663  14.024  0.00  0.00    +0.000 C 
ATOM     18  H   UNL     1       6.649  -2.095  14.969  0.00  0.00    +0.000 HD
ATOM     19  H   UNL     1       5.485  -0.963  14.196  0.00  0.00    +0.000 HD
ATOM     20  H   UNL     1       7.138  -1.119  13.568  0.00  0.00    +0.000 HD
ENDBRANCH  16  17
ENDBRANCH  14  16
ENDBRANCH  11  14
ENDBRANCH   1  11
TORSDOF 6
ENDMDL
MODEL 6
REMARK VINA RESULT:    -2.899     26.770     27.608
REMARK INTER + INTRA:          -3.914
REMARK INTER:                  -3.821
REMARK INTRA:                  -0.093
REMARK UNBOUND:                -0.167
REMARK  Name = 31272
REMARK  6 active torsions:
REMARK  status: ('A' for Active; 'I' for Inactive)
REMARK    1  A    between atoms: O_1  and  C_5
REMARK    2  A    between atoms: O_1  and  C_7
REMARK    3  A    between atoms: C_3  and  C_4
REMARK    4  A    between atoms: C_3  and  C_5
REMARK    5  A    between atoms: C_4  and  C_6
REMARK    6  A    between atoms: C_7  and  C_8
REMARK                            x       y       z     vdW  Elec       q    Type
REMARK                         _______ _______ _______ _____ _____    ______ ____
ROOT
ATOM      1  C   UNL     1       3.875  13.191 -11.097  0.00  0.00    +0.000 C 
ATOM      2  H   UNL     1       3.682  14.034 -11.772  0.00  0.00    +0.000 HD
ATOM      3  H   UNL     1       4.967  13.121 -11.010  0.00  0.00    +0.000 HD
ENDROOT
BRANCH   1   4
ATOM      4  C   UNL     1       3.253  13.456  -9.728  0.00  0.00    +0.000 C 
ATOM      5  H   UNL     1       3.089  12.506  -9.203  0.00  0.00    +0.000 HD
ATOM      6  H   UNL     1       2.274  13.932  -9.851  0.00  0.00    +0.000 HD
BRANCH   4   7
ATOM      7  C   UNL     1       4.141  14.346  -8.875  0.00  0.00    +0.000 C 
ATOM      8  H   UNL     1       4.140  15.375  -9.247  0.00  0.00    +0.000 HD
ATOM      9  H   UNL     1       3.802  14.357  -7.834  0.00  0.00    +0.000 HD
ATOM     10  H   UNL     1       5.173  13.980  -8.893  0.00  0.00    +0.000 HD
ENDBRANCH   4   7
ENDBRANCH   1   4
BRANCH   1  11
ATOM     11  C   UNL     1       3.339  11.910 -11.719  0.00  0.00    +0.000 C 
ATOM     12  H   UNL     1       3.208  11.144 -10.946  0.00  0.00    +0.000 HD
ATOM     13  H   UNL     1       2.374  12.103 -12.201  0.00  0.00    +0.000 HD
BRANCH  11  14
ATOM     14  O   UNL     1       4.269  11.447 -12.688  0.00  0.00    +0.000 OA
BRANCH  14  16
ATOM     15  O   UNL     1       3.152  11.891 -14.661  0.00  0.00    +0.000 OA
ATOM     16  C   UNL     1       4.139  11.977 -13.942  0.00  0.00    +0.000 C 
BRANCH  16  17
ATOM     17  C   UNL     1       5.397  12.696 -14.327  0.00  0.00    +0.000 C 
ATOM     18  H   UNL     1       5.221  13.294 -15.225  0.00  0.00    +0.000 HD
ATOM     19  H   UNL     1       6.200  11.974 -14.495  0.00  0.00    +0.000 HD
ATOM     20  H   UNL     1       5.694  13.366 -13.515  0.00  0.00    +0.000 HD
ENDBRANCH  16  17
ENDBRANCH  14  16
ENDBRANCH  11  14
ENDBRANCH   1  11
TORSDOF 6
ENDMDL
MODEL 7
REMARK VINA RESULT:    -2.855     22.932     24.323
REMARK INTER + INTRA:          -3.857
REMARK INTER:                  -3.756
REMARK INTRA:                  -0.101
REMARK UNBOUND:                -0.167
REMARK  Name = 31272
REMARK  6 active torsions:
REMARK  status: ('A' for Active; 'I' for Inactive)
REMARK    1  A    between atoms: O_1  and  C_5
REMARK    2  A    between atoms: O_1  and  C_7
REMARK    3  A    between atoms: C_3  and  C_4
REMARK    4  A    between atoms: C_3  and  C_5
REMARK    5  A    between atoms: C_4  and  C_6
REMARK    6  A    between atoms: C_7  and  C_8
REMARK                            x       y       z     vdW  Elec       q    Type
REMARK                         _______ _______ _______ _____ _____    ______ ____
ROOT
ATOM      1  C   UNL     1     -18.057 -11.662   3.974  0.00  0.00    +0.000 C 
ATOM      2  H   UNL     1     -18.272 -12.641   3.527  0.00  0.00    +0.000 HD
ATOM      3  H   UNL     1     -16.973 -11.638   4.138  0.00  0.00    +0.000 HD
ENDROOT
BRANCH   1   4
ATOM      4  C   UNL     1     -18.472 -10.544   3.021  0.00  0.00    +0.000 C 
ATOM      5  H   UNL     1     -19.560 -10.409   3.054  0.00  0.00    +0.000 HD
ATOM      6  H   UNL     1     -18.209 -10.815   1.993  0.00  0.00    +0.000 HD
BRANCH   4   7
ATOM      7  C   UNL     1     -17.799  -9.229   3.380  0.00  0.00    +0.000 C 
ATOM      8  H   UNL     1     -18.373  -8.377   3.003  0.00  0.00    +0.000 HD
ATOM      9  H   UNL     1     -17.700  -9.123   4.466  0.00  0.00    +0.000 HD
ATOM     10  H   UNL     1     -16.797  -9.184   2.941  0.00  0.00    +0.000 HD
ENDBRANCH   4   7
ENDBRANCH   1   4
BRANCH   1  11
ATOM     11  C   UNL     1     -18.770 -11.551   5.314  0.00  0.00    +0.000 C 
ATOM     12  H   UNL     1     -18.170 -10.953   6.010  0.00  0.00    +0.000 HD
ATOM     13  H   UNL     1     -19.747 -11.073   5.180  0.00  0.00    +0.000 HD
BRANCH  11  14
ATOM     14  O   UNL     1     -18.949 -12.855   5.848  0.00  0.00    +0.000 OA
BRANCH  14  16
ATOM     15  O   UNL     1     -19.228 -13.681   7.987  0.00  0.00    +0.000 OA
ATOM     16  C   UNL     1     -19.538 -12.920   7.081  0.00  0.00    +0.000 C 
BRANCH  16  17
ATOM     17  C   UNL     1     -20.640 -11.908   7.176  0.00  0.00    +0.000 C 
ATOM     18  H   UNL     1     -21.539 -12.377   7.584  0.00  0.00    +0.000 HD
ATOM     19  H   UNL     1     -20.840 -11.485   6.188  0.00  0.00    +0.000 HD
ATOM     20  H   UNL     1     -20.333 -11.100   7.846  0.00  0.00    +0.000 HD
ENDBRANCH  16  17
ENDBRANCH  14  16
ENDBRANCH  11  14
ENDBRANCH   1  11
TORSDOF 6
ENDMDL
MODEL 8
REMARK VINA RESULT:    -2.802     18.240     19.634
REMARK INTER + INTRA:          -3.789
REMARK INTER:                  -3.504
REMARK INTRA:                  -0.285
REMARK UNBOUND:                -0.167
REMARK  Name = 31272
REMARK  6 active torsions:
REMARK  status: ('A' for Active; 'I' for Inactive)
REMARK    1  A    between atoms: O_1  and  C_5
REMARK    2  A    between atoms: O_1  and  C_7
REMARK    3  A    between atoms: C_3  and  C_4
REMARK    4  A    between atoms: C_3  and  C_5
REMARK    5  A    between atoms: C_4  and  C_6
REMARK    6  A    between atoms: C_7  and  C_8
REMARK                            x       y       z     vdW  Elec       q    Type
REMARK                         _______ _______ _______ _____ _____    ______ ____
ROOT
ATOM      1  C   UNL     1     -15.052 -11.169  -0.419  0.00  0.00    +0.000 C 
ATOM      2  H   UNL     1     -14.746 -12.106   0.062  0.00  0.00    +0.000 HD
ATOM      3  H   UNL     1     -14.367 -11.027  -1.264  0.00  0.00    +0.000 HD
ENDROOT
BRANCH   1   4
ATOM      4  C   UNL     1     -16.491 -11.277  -0.918  0.00  0.00    +0.000 C 
ATOM      5  H   UNL     1     -17.186 -11.195  -0.073  0.00  0.00    +0.000 HD
ATOM      6  H   UNL     1     -16.652 -12.258  -1.378  0.00  0.00    +0.000 HD
BRANCH   4   7
ATOM      7  C   UNL     1     -16.812 -10.189  -1.930  0.00  0.00    +0.000 C 
ATOM      8  H   UNL     1     -17.857 -10.243  -2.249  0.00  0.00    +0.000 HD
ATOM      9  H   UNL     1     -16.633  -9.195  -1.507  0.00  0.00    +0.000 HD
ATOM     10  H   UNL     1     -16.180 -10.299  -2.818  0.00  0.00    +0.000 HD
ENDBRANCH   4   7
ENDBRANCH   1   4
BRANCH   1  11
ATOM     11  C   UNL     1     -14.883 -10.018   0.562  0.00  0.00    +0.000 C 
ATOM     12  H   UNL     1     -13.824  -9.895   0.817  0.00  0.00    +0.000 HD
ATOM     13  H   UNL     1     -15.256  -9.089   0.118  0.00  0.00    +0.000 HD
BRANCH  11  14
ATOM     14  O   UNL     1     -15.620 -10.308   1.741  0.00  0.00    +0.000 OA
BRANCH  14  16
ATOM     15  O   UNL     1     -16.963  -9.274   3.311  0.00  0.00    +0.000 OA
ATOM     16  C   UNL     1     -16.391  -9.290   2.229  0.00  0.00    +0.000 C 
BRANCH  16  17
ATOM     17  C   UNL     1     -16.442  -8.166   1.238  0.00  0.00    +0.000 C 
ATOM     18  H   UNL     1     -16.578  -8.568   0.230  0.00  0.00    +0.000 HD
ATOM     19  H   UNL     1     -15.522  -7.578   1.297  0.00  0.00    +0.000 HD
ATOM     20  H   UNL     1     -17.289  -7.515   1.471  0.00  0.00    +0.000 HD
ENDBRANCH  16  17
ENDBRANCH  14  16
ENDBRANCH  11  14
ENDBRANCH   1  11
TORSDOF 6
ENDMDL
MODEL 9
REMARK VINA RESULT:    -2.760     20.058     21.307
REMARK INTER + INTRA:          -3.734
REMARK INTER:                  -3.566
REMARK INTRA:                  -0.167
REMARK UNBOUND:                -0.167
REMARK  Name = 31272
REMARK  6 active torsions:
REMARK  status: ('A' for Active; 'I' for Inactive)
REMARK    1  A    between atoms: O_1  and  C_5
REMARK    2  A    between atoms: O_1  and  C_7
REMARK    3  A    between atoms: C_3  and  C_4
REMARK    4  A    between atoms: C_3  and  C_5
REMARK    5  A    between atoms: C_4  and  C_6
REMARK    6  A    between atoms: C_7  and  C_8
REMARK                            x       y       z     vdW  Elec       q    Type
REMARK                         _______ _______ _______ _____ _____    ______ ____
ROOT
ATOM      1  C   UNL     1     -17.240 -11.675   3.692  0.00  0.00    +0.000 C 
ATOM      2  H   UNL     1     -16.694 -12.441   4.257  0.00  0.00    +0.000 HD
ATOM      3  H   UNL     1     -17.695 -12.197   2.841  0.00  0.00    +0.000 HD
ENDROOT
BRANCH   1   4
ATOM      4  C   UNL     1     -18.324 -11.048   4.566  0.00  0.00    +0.000 C 
ATOM      5  H   UNL     1     -19.145 -10.683   3.937  0.00  0.00    +0.000 HD
ATOM      6  H   UNL     1     -17.916 -10.184   5.102  0.00  0.00    +0.000 HD
BRANCH   4   7
ATOM      7  C   UNL     1     -18.876 -12.046   5.571  0.00  0.00    +0.000 C 
ATOM      8  H   UNL     1     -18.146 -12.256   6.359  0.00  0.00    +0.000 HD
ATOM      9  H   UNL     1     -19.789 -11.665   6.041  0.00  0.00    +0.000 HD
ATOM     10  H   UNL     1     -19.119 -12.990   5.072  0.00  0.00    +0.000 HD
ENDBRANCH   4   7
ENDBRANCH   1   4
BRANCH   1  11
ATOM     11  C   UNL     1     -16.262 -10.631   3.176  0.00  0.00    +0.000 C 
ATOM     12  H   UNL     1     -16.627  -9.625   3.412  0.00  0.00    +0.000 HD
ATOM     13  H   UNL     1     -15.280 -10.775   3.640  0.00  0.00    +0.000 HD
BRANCH  11  14
ATOM     14  O   UNL     1     -16.144 -10.770   1.767  0.00  0.00    +0.000 OA
BRANCH  14  16
ATOM     15  O   UNL     1     -17.729 -10.116   0.219  0.00  0.00    +0.000 OA
ATOM     16  C   UNL     1     -16.837  -9.860   1.017  0.00  0.00    +0.000 C 
BRANCH  16  17
ATOM     17  C   UNL     1     -16.348  -8.474   1.313  0.00  0.00    +0.000 C 
ATOM     18  H   UNL     1     -15.945  -8.023   0.402  0.00  0.00    +0.000 HD
ATOM     19  H   UNL     1     -15.586  -8.510   2.095  0.00  0.00    +0.000 HD
ATOM     20  H   UNL     1     -17.183  -7.862   1.665  0.00  0.00    +0.000 HD
ENDBRANCH  16  17
ENDBRANCH  14  16
ENDBRANCH  11  14
ENDBRANCH   1  11
TORSDOF 6
ENDMDL
MODEL 10
REMARK VINA RESULT:    -2.737     19.118     20.341
REMARK INTER + INTRA:          -3.705
REMARK INTER:                  -3.401
REMARK INTRA:                  -0.304
REMARK UNBOUND:                -0.167
REMARK  Name = 31272
REMARK  6 active torsions:
REMARK  status: ('A' for Active; 'I' for Inactive)
REMARK    1  A    between atoms: O_1  and  C_5
REMARK    2  A    between atoms: O_1  and  C_7
REMARK    3  A    between atoms: C_3  and  C_4
REMARK    4  A    between atoms: C_3  and  C_5
REMARK    5  A    between atoms: C_4  and  C_6
REMARK    6  A    between atoms: C_7  and  C_8
REMARK                            x       y       z     vdW  Elec       q    Type
REMARK                         _______ _______ _______ _____ _____    ______ ____
ROOT
ATOM      1  C   UNL     1     -17.535 -11.634   3.183  0.00  0.00    +0.000 C 
ATOM      2  H   UNL     1     -17.396 -11.913   4.234  0.00  0.00    +0.000 HD
ATOM      3  H   UNL     1     -17.972 -12.514   2.694  0.00  0.00    +0.000 HD
ENDROOT
BRANCH   1   4
ATOM      4  C   UNL     1     -18.485 -10.444   3.074  0.00  0.00    +0.000 C 
ATOM      5  H   UNL     1     -19.372 -10.616   3.696  0.00  0.00    +0.000 HD
ATOM      6  H   UNL     1     -18.830 -10.336   2.040  0.00  0.00    +0.000 HD
BRANCH   4   7
ATOM      7  C   UNL     1     -17.814  -9.153   3.516  0.00  0.00    +0.000 C 
ATOM      8  H   UNL     1     -18.542  -8.458   3.943  0.00  0.00    +0.000 HD
ATOM      9  H   UNL     1     -17.043  -9.351   4.269  0.00  0.00    +0.000 HD
ATOM     10  H   UNL     1     -17.336  -8.663   2.661  0.00  0.00    +0.000 HD
ENDBRANCH   4   7
ENDBRANCH   1   4
BRANCH   1  11
ATOM     11  C   UNL     1     -16.182 -11.332   2.555  0.00  0.00    +0.000 C 
ATOM     12  H   UNL     1     -15.805 -10.370   2.922  0.00  0.00    +0.000 HD
ATOM     13  H   UNL     1     -15.466 -12.120   2.812  0.00  0.00    +0.000 HD
BRANCH  11  14
ATOM     14  O   UNL     1     -16.335 -11.271   1.144  0.00  0.00    +0.000 OA
BRANCH  14  16
ATOM     15  O   UNL     1     -14.619  -9.829   0.582  0.00  0.00    +0.000 OA
ATOM     16  C   UNL     1     -15.792 -10.175   0.532  0.00  0.00    +0.000 C 
BRANCH  16  17
ATOM     17  C   UNL     1     -16.853  -9.435  -0.226  0.00  0.00    +0.000 C 
ATOM     18  H   UNL     1     -16.404  -8.595  -0.764  0.00  0.00    +0.000 HD
ATOM     19  H   UNL     1     -17.624  -9.083   0.463  0.00  0.00    +0.000 HD
ATOM     20  H   UNL     1     -17.315 -10.108  -0.954  0.00  0.00    +0.000 HD
ENDBRANCH  16  17
ENDBRANCH  14  16
ENDBRANCH  11  14
ENDBRANCH   1  11
TORSDOF 6
ENDMDL
