MODEL 1
REMARK VINA RESULT:    -5.577      0.000      0.000
REMARK INTER + INTRA:          -7.669
REMARK INTER:                  -7.149
REMARK INTRA:                  -0.521
REMARK UNBOUND:                -0.299
REMARK  Name = 638011
REMARK  7 active torsions:
REMARK  status: ('A' for Active; 'I' for Inactive)
REMARK    1  A    between atoms: C_2  and  C_3
REMARK    2  A    between atoms: C_2  and  C_4
REMARK    3  A    between atoms: C_3  and  C_5
REMARK    4  A    between atoms: C_4  and  C_7
REMARK    5  A    between atoms: C_6  and  C_9
REMARK    6  A    between atoms: C_6  and  C_10
REMARK    7  A    between atoms: C_8  and  C_11
REMARK                            x       y       z     vdW  Elec       q    Type
REMARK                         _______ _______ _______ _____ _____    ______ ____
ROOT
ATOM      1  C   UNL     1      11.602   7.067  -3.383  0.00  0.00    +0.000 C 
ATOM      2  H   UNL     1      11.698   8.140  -3.198  0.00  0.00    +0.000 HD
ATOM      3  H   UNL     1      12.557   6.751  -3.821  0.00  0.00    +0.000 HD
ENDROOT
BRANCH   1   4
ATOM      4  C   UNL     1      11.422   6.332  -2.047  0.00  0.00    +0.000 C 
ATOM      5  H   UNL     1      12.383   6.305  -1.519  0.00  0.00    +0.000 HD
ATOM      6  H   UNL     1      11.157   5.286  -2.247  0.00  0.00    +0.000 HD
BRANCH   4   7
ATOM      7  C   UNL     1      10.379   6.957  -1.141  0.00  0.00    +0.000 C 
ATOM      8  C   UNL     1      10.329   8.249  -0.771  0.00  0.00    +0.000 C 
ATOM      9  H   UNL     1      11.066   8.947  -1.158  0.00  0.00    +0.000 HD
BRANCH   7  10
ATOM     10  C   UNL     1       9.304   6.010  -0.669  0.00  0.00    +0.000 C 
ATOM     11  H   UNL     1       9.693   5.162  -0.096  0.00  0.00    +0.000 HD
ATOM     12  H   UNL     1       8.727   5.630  -1.517  0.00  0.00    +0.000 HD
ATOM     13  H   UNL     1       8.613   6.526   0.007  0.00  0.00    +0.000 HD
ENDBRANCH   7  10
BRANCH   8  15
ATOM     14  O   UNL     1       8.256   9.320  -0.389  0.00  0.00    +0.000 OA
ATOM     15  C   UNL     1       9.282   8.846   0.085  0.00  0.00    +0.000 C 
ATOM     16  H   UNL     1       9.460   8.822   1.172  0.00  0.00    +0.000 HD
ENDBRANCH   8  15
ENDBRANCH   4   7
ENDBRANCH   1   4
BRANCH   1  17
ATOM     17  C   UNL     1      10.515   6.745  -4.373  0.00  0.00    +0.000 C 
ATOM     18  C   UNL     1       9.705   7.600  -5.025  0.00  0.00    +0.000 C 
ATOM     19  H   UNL     1      10.409   5.682  -4.585  0.00  0.00    +0.000 HD
BRANCH  18  20
ATOM     20  C   UNL     1       8.675   7.083  -5.993  0.00  0.00    +0.000 C 
ATOM     21  H   UNL     1       9.146   6.421  -6.728  0.00  0.00    +0.000 HD
ATOM     22  H   UNL     1       8.204   7.915  -6.526  0.00  0.00    +0.000 HD
ATOM     23  H   UNL     1       7.881   6.516  -5.496  0.00  0.00    +0.000 HD
ENDBRANCH  18  20
BRANCH  18  24
ATOM     24  C   UNL     1       9.712   9.095  -4.868  0.00  0.00    +0.000 C 
ATOM     25  H   UNL     1      10.559   9.524  -5.412  0.00  0.00    +0.000 HD
ATOM     26  H   UNL     1       9.788   9.433  -3.833  0.00  0.00    +0.000 HD
ATOM     27  H   UNL     1       8.789   9.518  -5.281  0.00  0.00    +0.000 HD
ENDBRANCH  18  24
ENDBRANCH   1  17
TORSDOF 7
ENDMDL
MODEL 2
REMARK VINA RESULT:    -5.478      8.287      9.511
REMARK INTER + INTRA:          -7.539
REMARK INTER:                  -6.880
REMARK INTRA:                  -0.659
REMARK UNBOUND:                -0.299
REMARK  Name = 638011
REMARK  7 active torsions:
REMARK  status: ('A' for Active; 'I' for Inactive)
REMARK    1  A    between atoms: C_2  and  C_3
REMARK    2  A    between atoms: C_2  and  C_4
REMARK    3  A    between atoms: C_3  and  C_5
REMARK    4  A    between atoms: C_4  and  C_7
REMARK    5  A    between atoms: C_6  and  C_9
REMARK    6  A    between atoms: C_6  and  C_10
REMARK    7  A    between atoms: C_8  and  C_11
REMARK                            x       y       z     vdW  Elec       q    Type
REMARK                         _______ _______ _______ _____ _____    ______ ____
ROOT
ATOM      1  C   UNL     1       6.962  -2.271  -2.292  0.00  0.00    +0.000 C 
ATOM      2  H   UNL     1       7.281  -2.817  -3.183  0.00  0.00    +0.000 HD
ATOM      3  H   UNL     1       6.432  -3.000  -1.667  0.00  0.00    +0.000 HD
ENDROOT
BRANCH   1   4
ATOM      4  C   UNL     1       8.198  -1.789  -1.519  0.00  0.00    +0.000 C 
ATOM      5  H   UNL     1       8.631  -2.633  -0.968  0.00  0.00    +0.000 HD
ATOM      6  H   UNL     1       7.885  -1.060  -0.761  0.00  0.00    +0.000 HD
BRANCH   4   7
ATOM      7  C   UNL     1       9.269  -1.176  -2.400  0.00  0.00    +0.000 C 
ATOM      8  C   UNL     1       9.938  -1.806  -3.383  0.00  0.00    +0.000 C 
ATOM      9  H   UNL     1       9.697  -2.839  -3.619  0.00  0.00    +0.000 HD
BRANCH   7  10
ATOM     10  C   UNL     1       9.548   0.282  -2.134  0.00  0.00    +0.000 C 
ATOM     11  H   UNL     1      10.606   0.495  -1.951  0.00  0.00    +0.000 HD
ATOM     12  H   UNL     1       8.962   0.636  -1.281  0.00  0.00    +0.000 HD
ATOM     13  H   UNL     1       9.276   0.887  -3.006  0.00  0.00    +0.000 HD
ENDBRANCH   7  10
BRANCH   8  15
ATOM     14  O   UNL     1      12.135  -1.502  -4.201  0.00  0.00    +0.000 OA
ATOM     15  C   UNL     1      10.954  -1.181  -4.255  0.00  0.00    +0.000 C 
ATOM     16  H   UNL     1      10.590  -0.428  -4.974  0.00  0.00    +0.000 HD
ENDBRANCH   8  15
ENDBRANCH   4   7
ENDBRANCH   1   4
BRANCH   1  17
ATOM     17  C   UNL     1       6.004  -1.155  -2.608  0.00  0.00    +0.000 C 
ATOM     18  C   UNL     1       5.930  -0.417  -3.731  0.00  0.00    +0.000 C 
ATOM     19  H   UNL     1       5.278  -0.958  -1.819  0.00  0.00    +0.000 HD
BRANCH  18  20
ATOM     20  C   UNL     1       4.886   0.659  -3.865  0.00  0.00    +0.000 C 
ATOM     21  H   UNL     1       4.592   1.027  -2.875  0.00  0.00    +0.000 HD
ATOM     22  H   UNL     1       3.996   0.264  -4.366  0.00  0.00    +0.000 HD
ATOM     23  H   UNL     1       5.240   1.517  -4.446  0.00  0.00    +0.000 HD
ENDBRANCH  18  20
BRANCH  18  24
ATOM     24  C   UNL     1       6.837  -0.551  -4.921  0.00  0.00    +0.000 C 
ATOM     25  H   UNL     1       6.880   0.397  -5.467  0.00  0.00    +0.000 HD
ATOM     26  H   UNL     1       6.527  -1.319  -5.632  0.00  0.00    +0.000 HD
ATOM     27  H   UNL     1       7.851  -0.803  -4.591  0.00  0.00    +0.000 HD
ENDBRANCH  18  24
ENDBRANCH   1  17
TORSDOF 7
ENDMDL
MODEL 3
REMARK VINA RESULT:    -5.213      4.131      5.470
REMARK INTER + INTRA:          -7.188
REMARK INTER:                  -6.881
REMARK INTRA:                  -0.308
REMARK UNBOUND:                -0.299
REMARK  Name = 638011
REMARK  7 active torsions:
REMARK  status: ('A' for Active; 'I' for Inactive)
REMARK    1  A    between atoms: C_2  and  C_3
REMARK    2  A    between atoms: C_2  and  C_4
REMARK    3  A    between atoms: C_3  and  C_5
REMARK    4  A    between atoms: C_4  and  C_7
REMARK    5  A    between atoms: C_6  and  C_9
REMARK    6  A    between atoms: C_6  and  C_10
REMARK    7  A    between atoms: C_8  and  C_11
REMARK                            x       y       z     vdW  Elec       q    Type
REMARK                         _______ _______ _______ _____ _____    ______ ____
ROOT
ATOM      1  C   UNL     1      11.713   6.996  -3.825  0.00  0.00    +0.000 C 
ATOM      2  H   UNL     1      11.943   6.178  -3.138  0.00  0.00    +0.000 HD
ATOM      3  H   UNL     1      11.506   7.870  -3.193  0.00  0.00    +0.000 HD
ENDROOT
BRANCH   1   4
ATOM      4  C   UNL     1      12.949   7.308  -4.681  0.00  0.00    +0.000 C 
ATOM      5  H   UNL     1      13.466   8.180  -4.263  0.00  0.00    +0.000 HD
ATOM      6  H   UNL     1      12.623   7.602  -5.687  0.00  0.00    +0.000 HD
BRANCH   4   7
ATOM      7  C   UNL     1      13.929   6.155  -4.781  0.00  0.00    +0.000 C 
ATOM      8  C   UNL     1      15.050   6.136  -5.524  0.00  0.00    +0.000 C 
ATOM      9  H   UNL     1      15.332   7.017  -6.093  0.00  0.00    +0.000 HD
BRANCH   7  10
ATOM     10  C   UNL     1      13.588   4.960  -3.926  0.00  0.00    +0.000 C 
ATOM     11  H   UNL     1      14.402   4.656  -3.261  0.00  0.00    +0.000 HD
ATOM     12  H   UNL     1      13.305   4.109  -4.552  0.00  0.00    +0.000 HD
ATOM     13  H   UNL     1      12.744   5.192  -3.267  0.00  0.00    +0.000 HD
ENDBRANCH   7  10
BRANCH   8  15
ATOM     14  O   UNL     1      17.181   5.152  -5.238  0.00  0.00    +0.000 OA
ATOM     15  C   UNL     1      16.012   5.015  -5.580  0.00  0.00    +0.000 C 
ATOM     16  H   UNL     1      15.618   4.044  -5.921  0.00  0.00    +0.000 HD
ENDBRANCH   8  15
ENDBRANCH   4   7
ENDBRANCH   1   4
BRANCH   1  17
ATOM     17  C   UNL     1      10.486   6.730  -4.653  0.00  0.00    +0.000 C 
ATOM     18  C   UNL     1       9.613   7.623  -5.156  0.00  0.00    +0.000 C 
ATOM     19  H   UNL     1      10.321   5.676  -4.877  0.00  0.00    +0.000 HD
BRANCH  18  20
ATOM     20  C   UNL     1       8.440   7.159  -5.977  0.00  0.00    +0.000 C 
ATOM     21  H   UNL     1       8.660   6.190  -6.439  0.00  0.00    +0.000 HD
ATOM     22  H   UNL     1       8.224   7.881  -6.772  0.00  0.00    +0.000 HD
ATOM     23  H   UNL     1       7.529   7.043  -5.379  0.00  0.00    +0.000 HD
ENDBRANCH  18  20
BRANCH  18  24
ATOM     24  C   UNL     1       9.683   9.111  -4.961  0.00  0.00    +0.000 C 
ATOM     25  H   UNL     1      10.650   9.489  -5.309  0.00  0.00    +0.000 HD
ATOM     26  H   UNL     1       9.566   9.430  -3.924  0.00  0.00    +0.000 HD
ATOM     27  H   UNL     1       8.894   9.601  -5.543  0.00  0.00    +0.000 HD
ENDBRANCH  18  24
ENDBRANCH   1  17
TORSDOF 7
ENDMDL
MODEL 4
REMARK VINA RESULT:    -5.133      7.378      8.495
REMARK INTER + INTRA:          -7.082
REMARK INTER:                  -6.432
REMARK INTRA:                  -0.650
REMARK UNBOUND:                -0.299
REMARK  Name = 638011
REMARK  7 active torsions:
REMARK  status: ('A' for Active; 'I' for Inactive)
REMARK    1  A    between atoms: C_2  and  C_3
REMARK    2  A    between atoms: C_2  and  C_4
REMARK    3  A    between atoms: C_3  and  C_5
REMARK    4  A    between atoms: C_4  and  C_7
REMARK    5  A    between atoms: C_6  and  C_9
REMARK    6  A    between atoms: C_6  and  C_10
REMARK    7  A    between atoms: C_8  and  C_11
REMARK                            x       y       z     vdW  Elec       q    Type
REMARK                         _______ _______ _______ _____ _____    ______ ____
ROOT
ATOM      1  C   UNL     1       6.805  -2.048  -2.349  0.00  0.00    +0.000 C 
ATOM      2  H   UNL     1       6.418  -3.055  -2.170  0.00  0.00    +0.000 HD
ATOM      3  H   UNL     1       6.390  -1.422  -1.549  0.00  0.00    +0.000 HD
ENDROOT
BRANCH   1   4
ATOM      4  C   UNL     1       8.334  -2.056  -2.206  0.00  0.00    +0.000 C 
ATOM      5  H   UNL     1       8.787  -2.164  -3.199  0.00  0.00    +0.000 HD
ATOM      6  H   UNL     1       8.636  -2.944  -1.637  0.00  0.00    +0.000 HD
BRANCH   4   7
ATOM      7  C   UNL     1       8.891  -0.812  -1.543  0.00  0.00    +0.000 C 
ATOM      8  C   UNL     1       8.752  -0.480  -0.247  0.00  0.00    +0.000 C 
ATOM      9  H   UNL     1       8.226  -1.151   0.425  0.00  0.00    +0.000 HD
BRANCH   7  10
ATOM     10  C   UNL     1       9.696   0.083  -2.453  0.00  0.00    +0.000 C 
ATOM     11  H   UNL     1       9.621  -0.192  -3.509  0.00  0.00    +0.000 HD
ATOM     12  H   UNL     1      10.750   0.080  -2.160  0.00  0.00    +0.000 HD
ATOM     13  H   UNL     1       9.330   1.114  -2.393  0.00  0.00    +0.000 HD
ENDBRANCH   7  10
BRANCH   8  15
ATOM     14  O   UNL     1       8.731   1.787   0.427  0.00  0.00    +0.000 OA
ATOM     15  C   UNL     1       9.335   0.721   0.389  0.00  0.00    +0.000 C 
ATOM     16  H   UNL     1      10.329   0.601   0.850  0.00  0.00    +0.000 HD
ENDBRANCH   8  15
ENDBRANCH   4   7
ENDBRANCH   1   4
BRANCH   1  17
ATOM     17  C   UNL     1       6.347  -1.476  -3.662  0.00  0.00    +0.000 C 
ATOM     18  C   UNL     1       6.010  -0.203  -3.941  0.00  0.00    +0.000 C 
ATOM     19  H   UNL     1       6.315  -2.201  -4.475  0.00  0.00    +0.000 HD
BRANCH  18  20
ATOM     20  C   UNL     1       5.582   0.183  -5.332  0.00  0.00    +0.000 C 
ATOM     21  H   UNL     1       5.778  -0.638  -6.029  0.00  0.00    +0.000 HD
ATOM     22  H   UNL     1       6.138   1.064  -5.669  0.00  0.00    +0.000 HD
ATOM     23  H   UNL     1       4.515   0.422  -5.390  0.00  0.00    +0.000 HD
ENDBRANCH  18  20
BRANCH  18  24
ATOM     24  C   UNL     1       6.002   0.931  -2.954  0.00  0.00    +0.000 C 
ATOM     25  H   UNL     1       7.027   1.265  -2.761  0.00  0.00    +0.000 HD
ATOM     26  H   UNL     1       5.558   0.678  -1.990  0.00  0.00    +0.000 HD
ATOM     27  H   UNL     1       5.437   1.776  -3.361  0.00  0.00    +0.000 HD
ENDBRANCH  18  24
ENDBRANCH   1  17
TORSDOF 7
ENDMDL
MODEL 5
REMARK VINA RESULT:    -4.842      3.321      4.860
REMARK INTER + INTRA:          -6.698
REMARK INTER:                  -6.398
REMARK INTRA:                  -0.300
REMARK UNBOUND:                -0.299
REMARK  Name = 638011
REMARK  7 active torsions:
REMARK  status: ('A' for Active; 'I' for Inactive)
REMARK    1  A    between atoms: C_2  and  C_3
REMARK    2  A    between atoms: C_2  and  C_4
REMARK    3  A    between atoms: C_3  and  C_5
REMARK    4  A    between atoms: C_4  and  C_7
REMARK    5  A    between atoms: C_6  and  C_9
REMARK    6  A    between atoms: C_6  and  C_10
REMARK    7  A    between atoms: C_8  and  C_11
REMARK                            x       y       z     vdW  Elec       q    Type
REMARK                         _______ _______ _______ _____ _____    ______ ____
ROOT
ATOM      1  C   UNL     1      13.839   6.972  -4.877  0.00  0.00    +0.000 C 
ATOM      2  H   UNL     1      13.666   7.147  -5.942  0.00  0.00    +0.000 HD
ATOM      3  H   UNL     1      14.914   7.125  -4.719  0.00  0.00    +0.000 HD
ENDROOT
BRANCH   1   4
ATOM      4  C   UNL     1      13.080   8.024  -4.055  0.00  0.00    +0.000 C 
ATOM      5  H   UNL     1      13.300   9.021  -4.457  0.00  0.00    +0.000 HD
ATOM      6  H   UNL     1      13.464   8.021  -3.027  0.00  0.00    +0.000 HD
BRANCH   4   7
ATOM      7  C   UNL     1      11.578   7.819  -4.038  0.00  0.00    +0.000 C 
ATOM      8  C   UNL     1      10.777   7.769  -5.118  0.00  0.00    +0.000 C 
ATOM      9  H   UNL     1      11.210   7.846  -6.111  0.00  0.00    +0.000 HD
BRANCH   7  10
ATOM     10  C   UNL     1      10.983   7.626  -2.666  0.00  0.00    +0.000 C 
ATOM     11  H   UNL     1      10.599   6.615  -2.498  0.00  0.00    +0.000 HD
ATOM     12  H   UNL     1      10.176   8.344  -2.493  0.00  0.00    +0.000 HD
ATOM     13  H   UNL     1      11.746   7.780  -1.895  0.00  0.00    +0.000 HD
ENDBRANCH   7  10
BRANCH   8  15
ATOM     14  O   UNL     1       8.744   6.919  -5.974  0.00  0.00    +0.000 OA
ATOM     15  C   UNL     1       9.319   7.532  -5.082  0.00  0.00    +0.000 C 
ATOM     16  H   UNL     1       8.779   7.912  -4.199  0.00  0.00    +0.000 HD
ENDBRANCH   8  15
ENDBRANCH   4   7
ENDBRANCH   1   4
BRANCH   1  17
ATOM     17  C   UNL     1      13.512   5.564  -4.460  0.00  0.00    +0.000 C 
ATOM     18  C   UNL     1      14.121   4.424  -4.835  0.00  0.00    +0.000 C 
ATOM     19  H   UNL     1      12.690   5.492  -3.748  0.00  0.00    +0.000 HD
BRANCH  18  20
ATOM     20  C   UNL     1      13.650   3.099  -4.297  0.00  0.00    +0.000 C 
ATOM     21  H   UNL     1      14.216   2.281  -4.757  0.00  0.00    +0.000 HD
ATOM     22  H   UNL     1      12.588   2.954  -4.521  0.00  0.00    +0.000 HD
ATOM     23  H   UNL     1      13.774   3.019  -3.212  0.00  0.00    +0.000 HD
ENDBRANCH  18  20
BRANCH  18  24
ATOM     24  C   UNL     1      15.272   4.328  -5.797  0.00  0.00    +0.000 C 
ATOM     25  H   UNL     1      15.176   3.424  -6.406  0.00  0.00    +0.000 HD
ATOM     26  H   UNL     1      16.250   4.292  -5.316  0.00  0.00    +0.000 HD
ATOM     27  H   UNL     1      15.271   5.195  -6.467  0.00  0.00    +0.000 HD
ENDBRANCH  18  24
ENDBRANCH   1  17
TORSDOF 7
ENDMDL
MODEL 6
REMARK VINA RESULT:    -4.733      2.800      4.333
REMARK INTER + INTRA:          -6.554
REMARK INTER:                  -5.939
REMARK INTRA:                  -0.615
REMARK UNBOUND:                -0.299
REMARK  Name = 638011
REMARK  7 active torsions:
REMARK  status: ('A' for Active; 'I' for Inactive)
REMARK    1  A    between atoms: C_2  and  C_3
REMARK    2  A    between atoms: C_2  and  C_4
REMARK    3  A    between atoms: C_3  and  C_5
REMARK    4  A    between atoms: C_4  and  C_7
REMARK    5  A    between atoms: C_6  and  C_9
REMARK    6  A    between atoms: C_6  and  C_10
REMARK    7  A    between atoms: C_8  and  C_11
REMARK                            x       y       z     vdW  Elec       q    Type
REMARK                         _______ _______ _______ _____ _____    ______ ____
ROOT
ATOM      1  C   UNL     1      13.672   6.970  -5.215  0.00  0.00    +0.000 C 
ATOM      2  H   UNL     1      12.711   6.650  -5.627  0.00  0.00    +0.000 HD
ATOM      3  H   UNL     1      14.209   7.448  -6.044  0.00  0.00    +0.000 HD
ENDROOT
BRANCH   1   4
ATOM      4  C   UNL     1      13.434   8.028  -4.127  0.00  0.00    +0.000 C 
ATOM      5  H   UNL     1      13.532   9.027  -4.568  0.00  0.00    +0.000 HD
ATOM      6  H   UNL     1      14.228   7.951  -3.373  0.00  0.00    +0.000 HD
BRANCH   4   7
ATOM      7  C   UNL     1      12.081   7.917  -3.453  0.00  0.00    +0.000 C 
ATOM      8  C   UNL     1      11.868   7.690  -2.144  0.00  0.00    +0.000 C 
ATOM      9  H   UNL     1      12.716   7.603  -1.470  0.00  0.00    +0.000 HD
BRANCH   7  10
ATOM     10  C   UNL     1      10.900   8.121  -4.368  0.00  0.00    +0.000 C 
ATOM     11  H   UNL     1      10.062   7.451  -4.153  0.00  0.00    +0.000 HD
ATOM     12  H   UNL     1      11.198   7.992  -5.413  0.00  0.00    +0.000 HD
ATOM     13  H   UNL     1      10.499   9.135  -4.253  0.00  0.00    +0.000 HD
ENDBRANCH   7  10
BRANCH   8  15
ATOM     14  O   UNL     1       9.978   6.551  -1.294  0.00  0.00    +0.000 OA
ATOM     15  C   UNL     1      10.540   7.621  -1.499  0.00  0.00    +0.000 C 
ATOM     16  H   UNL     1      10.092   8.579  -1.189  0.00  0.00    +0.000 HD
ENDBRANCH   8  15
ENDBRANCH   4   7
ENDBRANCH   1   4
BRANCH   1  17
ATOM     17  C   UNL     1      14.509   5.818  -4.731  0.00  0.00    +0.000 C 
ATOM     18  C   UNL     1      14.094   4.677  -4.149  0.00  0.00    +0.000 C 
ATOM     19  H   UNL     1      15.577   5.941  -4.906  0.00  0.00    +0.000 HD
BRANCH  18  20
ATOM     20  C   UNL     1      15.092   3.628  -3.738  0.00  0.00    +0.000 C 
ATOM     21  H   UNL     1      15.674   3.298  -4.606  0.00  0.00    +0.000 HD
ATOM     22  H   UNL     1      14.576   2.759  -3.316  0.00  0.00    +0.000 HD
ATOM     23  H   UNL     1      15.798   3.993  -2.984  0.00  0.00    +0.000 HD
ENDBRANCH  18  20
BRANCH  18  24
ATOM     24  C   UNL     1      12.666   4.330  -3.836  0.00  0.00    +0.000 C 
ATOM     25  H   UNL     1      12.199   5.143  -3.270  0.00  0.00    +0.000 HD
ATOM     26  H   UNL     1      12.549   3.419  -3.247  0.00  0.00    +0.000 HD
ATOM     27  H   UNL     1      12.103   4.192  -4.765  0.00  0.00    +0.000 HD
ENDBRANCH  18  24
ENDBRANCH   1  17
TORSDOF 7
ENDMDL
MODEL 7
REMARK VINA RESULT:    -4.585     23.629     25.333
REMARK INTER + INTRA:          -6.358
REMARK INTER:                  -6.157
REMARK INTRA:                  -0.201
REMARK UNBOUND:                -0.299
REMARK  Name = 638011
REMARK  7 active torsions:
REMARK  status: ('A' for Active; 'I' for Inactive)
REMARK    1  A    between atoms: C_2  and  C_3
REMARK    2  A    between atoms: C_2  and  C_4
REMARK    3  A    between atoms: C_3  and  C_5
REMARK    4  A    between atoms: C_4  and  C_7
REMARK    5  A    between atoms: C_6  and  C_9
REMARK    6  A    between atoms: C_6  and  C_10
REMARK    7  A    between atoms: C_8  and  C_11
REMARK                            x       y       z     vdW  Elec       q    Type
REMARK                         _______ _______ _______ _____ _____    ______ ____
ROOT
ATOM      1  C   UNL     1      -1.126 -13.009  -9.319  0.00  0.00    +0.000 C 
ATOM      2  H   UNL     1      -0.042 -13.037  -9.459  0.00  0.00    +0.000 HD
ATOM      3  H   UNL     1      -1.394 -11.946  -9.269  0.00  0.00    +0.000 HD
ENDROOT
BRANCH   1   4
ATOM      4  C   UNL     1      -1.816 -13.620 -10.547  0.00  0.00    +0.000 C 
ATOM      5  H   UNL     1      -2.582 -12.925 -10.913  0.00  0.00    +0.000 HD
ATOM      6  H   UNL     1      -2.352 -14.527 -10.242  0.00  0.00    +0.000 HD
BRANCH   4   7
ATOM      7  C   UNL     1      -0.865 -13.947 -11.682  0.00  0.00    +0.000 C 
ATOM      8  C   UNL     1       0.244 -13.258 -12.005  0.00  0.00    +0.000 C 
ATOM      9  H   UNL     1       0.537 -12.401 -11.405  0.00  0.00    +0.000 HD
BRANCH   7  10
ATOM     10  C   UNL     1      -1.221 -15.186 -12.466  0.00  0.00    +0.000 C 
ATOM     11  H   UNL     1      -1.656 -15.979 -11.851  0.00  0.00    +0.000 HD
ATOM     12  H   UNL     1      -0.340 -15.580 -12.981  0.00  0.00    +0.000 HD
ATOM     13  H   UNL     1      -1.980 -14.953 -13.222  0.00  0.00    +0.000 HD
ENDBRANCH   7  10
BRANCH   8  15
ATOM     14  O   UNL     1       2.080 -14.427 -12.927  0.00  0.00    +0.000 OA
ATOM     15  C   UNL     1       1.178 -13.615 -13.094  0.00  0.00    +0.000 C 
ATOM     16  H   UNL     1       1.005 -13.133 -14.070  0.00  0.00    +0.000 HD
ENDBRANCH   8  15
ENDBRANCH   4   7
ENDBRANCH   1   4
BRANCH   1  17
ATOM     17  C   UNL     1      -1.561 -13.652  -8.030  0.00  0.00    +0.000 C 
ATOM     18  C   UNL     1      -1.237 -13.295  -6.773  0.00  0.00    +0.000 C 
ATOM     19  H   UNL     1      -2.240 -14.494  -8.161  0.00  0.00    +0.000 HD
BRANCH  18  20
ATOM     20  C   UNL     1      -1.786 -14.063  -5.600  0.00  0.00    +0.000 C 
ATOM     21  H   UNL     1      -1.019 -14.167  -4.825  0.00  0.00    +0.000 HD
ATOM     22  H   UNL     1      -2.099 -15.064  -5.915  0.00  0.00    +0.000 HD
ATOM     23  H   UNL     1      -2.653 -13.572  -5.146  0.00  0.00    +0.000 HD
ENDBRANCH  18  20
BRANCH  18  24
ATOM     24  C   UNL     1      -0.326 -12.160  -6.399  0.00  0.00    +0.000 C 
ATOM     25  H   UNL     1       0.718 -12.477  -6.481  0.00  0.00    +0.000 HD
ATOM     26  H   UNL     1      -0.473 -11.789  -5.384  0.00  0.00    +0.000 HD
ATOM     27  H   UNL     1      -0.482 -11.316  -7.080  0.00  0.00    +0.000 HD
ENDBRANCH  18  24
ENDBRANCH   1  17
TORSDOF 7
ENDMDL
MODEL 8
REMARK VINA RESULT:    -4.515      6.592      7.813
REMARK INTER + INTRA:          -6.266
REMARK INTER:                  -5.588
REMARK INTRA:                  -0.678
REMARK UNBOUND:                -0.299
REMARK  Name = 638011
REMARK  7 active torsions:
REMARK  status: ('A' for Active; 'I' for Inactive)
REMARK    1  A    between atoms: C_2  and  C_3
REMARK    2  A    between atoms: C_2  and  C_4
REMARK    3  A    between atoms: C_3  and  C_5
REMARK    4  A    between atoms: C_4  and  C_7
REMARK    5  A    between atoms: C_6  and  C_9
REMARK    6  A    between atoms: C_6  and  C_10
REMARK    7  A    between atoms: C_8  and  C_11
REMARK                            x       y       z     vdW  Elec       q    Type
REMARK                         _______ _______ _______ _____ _____    ______ ____
ROOT
ATOM      1  C   UNL     1       7.439  -1.581  -1.417  0.00  0.00    +0.000 C 
ATOM      2  H   UNL     1       7.282  -2.610  -1.084  0.00  0.00    +0.000 HD
ATOM      3  H   UNL     1       6.444  -1.121  -1.449  0.00  0.00    +0.000 HD
ENDROOT
BRANCH   1   4
ATOM      4  C   UNL     1       8.280  -0.830  -0.374  0.00  0.00    +0.000 C 
ATOM      5  H   UNL     1       9.336  -1.096  -0.503  0.00  0.00    +0.000 HD
ATOM      6  H   UNL     1       8.001  -1.178   0.629  0.00  0.00    +0.000 HD
BRANCH   4   7
ATOM      7  C   UNL     1       8.139   0.678  -0.446  0.00  0.00    +0.000 C 
ATOM      8  C   UNL     1       7.039   1.383  -0.125  0.00  0.00    +0.000 C 
ATOM      9  H   UNL     1       6.162   0.866   0.255  0.00  0.00    +0.000 HD
BRANCH   7  10
ATOM     10  C   UNL     1       9.381   1.408  -0.892  0.00  0.00    +0.000 C 
ATOM     11  H   UNL     1      10.120   1.534  -0.095  0.00  0.00    +0.000 HD
ATOM     12  H   UNL     1       9.124   2.392  -1.296  0.00  0.00    +0.000 HD
ATOM     13  H   UNL     1       9.894   0.842  -1.678  0.00  0.00    +0.000 HD
ENDBRANCH   7  10
BRANCH   8  15
ATOM     14  O   UNL     1       5.927   3.418  -0.586  0.00  0.00    +0.000 OA
ATOM     15  C   UNL     1       6.933   2.857  -0.168  0.00  0.00    +0.000 C 
ATOM     16  H   UNL     1       7.795   3.424   0.218  0.00  0.00    +0.000 HD
ENDBRANCH   8  15
ENDBRANCH   4   7
ENDBRANCH   1   4
BRANCH   1  17
ATOM     17  C   UNL     1       8.026  -1.502  -2.800  0.00  0.00    +0.000 C 
ATOM     18  C   UNL     1       7.626  -0.732  -3.829  0.00  0.00    +0.000 C 
ATOM     19  H   UNL     1       8.894  -2.143  -2.951  0.00  0.00    +0.000 HD
BRANCH  18  20
ATOM     20  C   UNL     1       8.353  -0.786  -5.146  0.00  0.00    +0.000 C 
ATOM     21  H   UNL     1       8.385   0.209  -5.602  0.00  0.00    +0.000 HD
ATOM     22  H   UNL     1       7.840  -1.466  -5.834  0.00  0.00    +0.000 HD
ATOM     23  H   UNL     1       9.385  -1.138  -5.041  0.00  0.00    +0.000 HD
ENDBRANCH  18  20
BRANCH  18  24
ATOM     24  C   UNL     1       6.460   0.215  -3.804  0.00  0.00    +0.000 C 
ATOM     25  H   UNL     1       5.744  -0.053  -4.588  0.00  0.00    +0.000 HD
ATOM     26  H   UNL     1       6.732   1.260  -3.959  0.00  0.00    +0.000 HD
ATOM     27  H   UNL     1       5.949   0.153  -2.836  0.00  0.00    +0.000 HD
ENDBRANCH  18  24
ENDBRANCH   1  17
TORSDOF 7
ENDMDL
MODEL 9
REMARK VINA RESULT:    -4.511     17.576     20.531
REMARK INTER + INTRA:          -6.261
REMARK INTER:                  -5.723
REMARK INTRA:                  -0.538
REMARK UNBOUND:                -0.299
REMARK  Name = 638011
REMARK  7 active torsions:
REMARK  status: ('A' for Active; 'I' for Inactive)
REMARK    1  A    between atoms: C_2  and  C_3
REMARK    2  A    between atoms: C_2  and  C_4
REMARK    3  A    between atoms: C_3  and  C_5
REMARK    4  A    between atoms: C_4  and  C_7
REMARK    5  A    between atoms: C_6  and  C_9
REMARK    6  A    between atoms: C_6  and  C_10
REMARK    7  A    between atoms: C_8  and  C_11
REMARK                            x       y       z     vdW  Elec       q    Type
REMARK                         _______ _______ _______ _____ _____    ______ ____
ROOT
ATOM      1  C   UNL     1      -3.189   7.993  13.897  0.00  0.00    +0.000 C 
ATOM      2  H   UNL     1      -4.017   8.681  13.710  0.00  0.00    +0.000 HD
ATOM      3  H   UNL     1      -3.649   7.022  14.117  0.00  0.00    +0.000 HD
ENDROOT
BRANCH   1   4
ATOM      4  C   UNL     1      -2.349   7.846  12.620  0.00  0.00    +0.000 C 
ATOM      5  H   UNL     1      -2.888   7.213  11.905  0.00  0.00    +0.000 HD
ATOM      6  H   UNL     1      -1.423   7.308  12.861  0.00  0.00    +0.000 HD
BRANCH   4   7
ATOM      7  C   UNL     1      -2.012   9.166  11.954  0.00  0.00    +0.000 C 
ATOM      8  C   UNL     1      -0.847   9.472  11.356  0.00  0.00    +0.000 C 
ATOM      9  H   UNL     1      -0.062   8.724  11.295  0.00  0.00    +0.000 HD
BRANCH   7  10
ATOM     10  C   UNL     1      -3.129  10.179  11.961  0.00  0.00    +0.000 C 
ATOM     11  H   UNL     1      -2.776  11.215  11.954  0.00  0.00    +0.000 HD
ATOM     12  H   UNL     1      -3.777  10.031  12.830  0.00  0.00    +0.000 HD
ATOM     13  H   UNL     1      -3.743  10.075  11.059  0.00  0.00    +0.000 HD
ENDBRANCH   7  10
BRANCH   8  15
ATOM     14  O   UNL     1      -0.397  10.821   9.467  0.00  0.00    +0.000 OA
ATOM     15  C   UNL     1      -0.552  10.754  10.680  0.00  0.00    +0.000 C 
ATOM     16  H   UNL     1      -0.503  11.649  11.321  0.00  0.00    +0.000 HD
ENDBRANCH   8  15
ENDBRANCH   4   7
ENDBRANCH   1   4
BRANCH   1  17
ATOM     17  C   UNL     1      -2.364   8.389  15.091  0.00  0.00    +0.000 C 
ATOM     18  C   UNL     1      -2.544   9.440  15.913  0.00  0.00    +0.000 C 
ATOM     19  H   UNL     1      -1.539   7.711  15.306  0.00  0.00    +0.000 HD
BRANCH  18  20
ATOM     20  C   UNL     1      -1.610   9.667  17.071  0.00  0.00    +0.000 C 
ATOM     21  H   UNL     1      -0.751   8.992  17.003  0.00  0.00    +0.000 HD
ATOM     22  H   UNL     1      -2.126   9.477  18.018  0.00  0.00    +0.000 HD
ATOM     23  H   UNL     1      -1.225  10.692  17.104  0.00  0.00    +0.000 HD
ENDBRANCH  18  20
BRANCH  18  24
ATOM     24  C   UNL     1      -3.627  10.473  15.780  0.00  0.00    +0.000 C 
ATOM     25  H   UNL     1      -3.649  10.862  14.756  0.00  0.00    +0.000 HD
ATOM     26  H   UNL     1      -3.511  11.328  16.447  0.00  0.00    +0.000 HD
ATOM     27  H   UNL     1      -4.602  10.021  15.995  0.00  0.00    +0.000 HD
ENDBRANCH  18  24
ENDBRANCH   1  17
TORSDOF 7
ENDMDL
MODEL 10
REMARK VINA RESULT:    -4.402     26.080     28.522
REMARK INTER + INTRA:          -6.117
REMARK INTER:                  -5.818
REMARK INTRA:                  -0.299
REMARK UNBOUND:                -0.299
REMARK  Name = 638011
REMARK  7 active torsions:
REMARK  status: ('A' for Active; 'I' for Inactive)
REMARK    1  A    between atoms: C_2  and  C_3
REMARK    2  A    between atoms: C_2  and  C_4
REMARK    3  A    between atoms: C_3  and  C_5
REMARK    4  A    between atoms: C_4  and  C_7
REMARK    5  A    between atoms: C_6  and  C_9
REMARK    6  A    between atoms: C_6  and  C_10
REMARK    7  A    between atoms: C_8  and  C_11
REMARK                            x       y       z     vdW  Elec       q    Type
REMARK                         _______ _______ _______ _____ _____    ______ ____
ROOT
ATOM      1  C   UNL     1       1.491  -7.175  19.934  0.00  0.00    +0.000 C 
ATOM      2  H   UNL     1       2.364  -7.390  20.555  0.00  0.00    +0.000 HD
ATOM      3  H   UNL     1       1.154  -8.144  19.545  0.00  0.00    +0.000 HD
ENDROOT
BRANCH   1   4
ATOM      4  C   UNL     1       0.371  -6.597  20.811  0.00  0.00    +0.000 C 
ATOM      5  H   UNL     1       0.203  -5.548  20.537  0.00  0.00    +0.000 HD
ATOM      6  H   UNL     1       0.704  -6.587  21.857  0.00  0.00    +0.000 HD
BRANCH   4   7
ATOM      7  C   UNL     1      -0.941  -7.350  20.703  0.00  0.00    +0.000 C 
ATOM      8  C   UNL     1      -1.086  -8.627  20.307  0.00  0.00    +0.000 C 
ATOM      9  H   UNL     1      -0.206  -9.217  20.063  0.00  0.00    +0.000 HD
BRANCH   7  10
ATOM     10  C   UNL     1      -2.158  -6.563  21.121  0.00  0.00    +0.000 C 
ATOM     11  H   UNL     1      -2.834  -6.336  20.291  0.00  0.00    +0.000 HD
ATOM     12  H   UNL     1      -1.862  -5.627  21.604  0.00  0.00    +0.000 HD
ATOM     13  H   UNL     1      -2.756  -7.139  21.836  0.00  0.00    +0.000 HD
ENDBRANCH   7  10
BRANCH   8  15
ATOM     14  O   UNL     1      -3.072  -9.335  19.238  0.00  0.00    +0.000 OA
ATOM     15  C   UNL     1      -2.371  -9.355  20.242  0.00  0.00    +0.000 C 
ATOM     16  H   UNL     1      -2.653  -9.937  21.135  0.00  0.00    +0.000 HD
ENDBRANCH   8  15
ENDBRANCH   4   7
ENDBRANCH   1   4
BRANCH   1  17
ATOM     17  C   UNL     1       1.817  -6.297  18.757  0.00  0.00    +0.000 C 
ATOM     18  C   UNL     1       2.585  -5.192  18.733  0.00  0.00    +0.000 C 
ATOM     19  H   UNL     1       1.383  -6.636  17.817  0.00  0.00    +0.000 HD
BRANCH  18  20
ATOM     20  C   UNL     1       2.803  -4.447  17.444  0.00  0.00    +0.000 C 
ATOM     21  H   UNL     1       3.587  -3.692  17.571  0.00  0.00    +0.000 HD
ATOM     22  H   UNL     1       1.882  -3.941  17.137  0.00  0.00    +0.000 HD
ATOM     23  H   UNL     1       3.108  -5.107  16.624  0.00  0.00    +0.000 HD
ENDBRANCH  18  20
BRANCH  18  24
ATOM     24  C   UNL     1       3.270  -4.583  19.924  0.00  0.00    +0.000 C 
ATOM     25  H   UNL     1       2.693  -4.788  20.832  0.00  0.00    +0.000 HD
ATOM     26  H   UNL     1       3.397  -3.502  19.859  0.00  0.00    +0.000 HD
ATOM     27  H   UNL     1       4.267  -5.021  20.045  0.00  0.00    +0.000 HD
ENDBRANCH  18  24
ENDBRANCH   1  17
TORSDOF 7
ENDMDL
