MODEL 1
REMARK VINA RESULT:    -5.050      0.000      0.000
REMARK INTER + INTRA:          -6.912
REMARK INTER:                  -6.691
REMARK INTRA:                  -0.221
REMARK UNBOUND:                -0.238
REMARK  Name = 1551246
REMARK  7 active torsions:
REMARK  status: ('A' for Active; 'I' for Inactive)
REMARK    1  A    between atoms: C_2  and  C_3
REMARK    2  A    between atoms: C_2  and  C_4
REMARK    3  A    between atoms: C_3  and  C_5
REMARK    4  A    between atoms: C_4  and  C_7
REMARK    5  A    between atoms: C_6  and  C_8
REMARK    6  A    between atoms: C_6  and  C_9
REMARK    7  A    between atoms: C_10  and  C_11
REMARK                            x       y       z     vdW  Elec       q    Type
REMARK                         _______ _______ _______ _____ _____    ______ ____
ROOT
ATOM      1  C   UNL     1      -0.972 -13.172  -9.754  0.00  0.00    +0.000 C 
ATOM      2  H   UNL     1      -0.855 -14.229  -9.481  0.00  0.00    +0.000 HD
ATOM      3  H   UNL     1      -2.035 -13.063 -10.000  0.00  0.00    +0.000 HD
ENDROOT
BRANCH   1   4
ATOM      4  C   UNL     1      -0.625 -12.271  -8.561  0.00  0.00    +0.000 C 
ATOM      5  H   UNL     1      -1.104 -11.295  -8.702  0.00  0.00    +0.000 HD
ATOM      6  H   UNL     1       0.454 -12.077  -8.549  0.00  0.00    +0.000 HD
BRANCH   4   7
ATOM      7  C   UNL     1      -1.060 -12.835  -7.221  0.00  0.00    +0.000 C 
ATOM      8  C   UNL     1      -1.976 -13.809  -7.064  0.00  0.00    +0.000 C 
ATOM      9  H   UNL     1      -2.464 -14.225  -7.941  0.00  0.00    +0.000 HD
BRANCH   7  10
ATOM     10  C   UNL     1      -0.362 -12.254  -6.019  0.00  0.00    +0.000 C 
ATOM     11  H   UNL     1       0.490 -11.610  -6.254  0.00  0.00    +0.000 HD
ATOM     12  H   UNL     1      -1.062 -11.636  -5.444  0.00  0.00    +0.000 HD
ATOM     13  H   UNL     1       0.001 -13.054  -5.366  0.00  0.00    +0.000 HD
ENDBRANCH   7  10
BRANCH   8  15
ATOM     14  N   UNL     1      -2.660 -14.804  -4.782  0.00  0.00    +0.000 NA
ATOM     15  C   UNL     1      -2.352 -14.352  -5.805  0.00  0.00    +0.000 C 
ENDBRANCH   8  15
ENDBRANCH   4   7
ENDBRANCH   1   4
BRANCH   1  16
ATOM     16  C   UNL     1      -0.114 -12.892 -10.957  0.00  0.00    +0.000 C 
ATOM     17  C   UNL     1      -0.261 -13.361 -12.210  0.00  0.00    +0.000 C 
ATOM     18  H   UNL     1       0.722 -12.221 -10.769  0.00  0.00    +0.000 HD
BRANCH  17  19
ATOM     19  C   UNL     1       0.637 -13.038 -13.370  0.00  0.00    +0.000 C 
ATOM     20  H   UNL     1       0.090 -13.130 -14.313  0.00  0.00    +0.000 HD
ATOM     21  H   UNL     1       1.022 -12.017 -13.284  0.00  0.00    +0.000 HD
ATOM     22  H   UNL     1       1.496 -13.716 -13.414  0.00  0.00    +0.000 HD
ENDBRANCH  17  19
BRANCH  17  23
ATOM     23  C   UNL     1      -1.405 -14.279 -12.549  0.00  0.00    +0.000 C 
ATOM     24  H   UNL     1      -1.285 -14.659 -13.569  0.00  0.00    +0.000 HD
ATOM     25  H   UNL     1      -2.393 -13.817 -12.499  0.00  0.00    +0.000 HD
ATOM     26  H   UNL     1      -1.411 -15.135 -11.866  0.00  0.00    +0.000 HD
ENDBRANCH  17  23
ENDBRANCH   1  16
TORSDOF 7
ENDMDL
MODEL 2
REMARK VINA RESULT:    -4.414     18.716     19.905
REMARK INTER + INTRA:          -6.071
REMARK INTER:                  -5.495
REMARK INTRA:                  -0.577
REMARK UNBOUND:                -0.238
REMARK  Name = 1551246
REMARK  7 active torsions:
REMARK  status: ('A' for Active; 'I' for Inactive)
REMARK    1  A    between atoms: C_2  and  C_3
REMARK    2  A    between atoms: C_2  and  C_4
REMARK    3  A    between atoms: C_3  and  C_5
REMARK    4  A    between atoms: C_4  and  C_7
REMARK    5  A    between atoms: C_6  and  C_8
REMARK    6  A    between atoms: C_6  and  C_9
REMARK    7  A    between atoms: C_10  and  C_11
REMARK                            x       y       z     vdW  Elec       q    Type
REMARK                         _______ _______ _______ _____ _____    ______ ____
ROOT
ATOM      1  C   UNL     1     -16.121  -9.443   0.296  0.00  0.00    +0.000 C 
ATOM      2  H   UNL     1     -15.177  -9.001  -0.048  0.00  0.00    +0.000 HD
ATOM      3  H   UNL     1     -15.911 -10.514   0.391  0.00  0.00    +0.000 HD
ENDROOT
BRANCH   1   4
ATOM      4  C   UNL     1     -16.512  -8.871   1.666  0.00  0.00    +0.000 C 
ATOM      5  H   UNL     1     -17.366  -8.195   1.538  0.00  0.00    +0.000 HD
ATOM      6  H   UNL     1     -15.694  -8.253   2.053  0.00  0.00    +0.000 HD
BRANCH   4   7
ATOM      7  C   UNL     1     -16.883  -9.930   2.687  0.00  0.00    +0.000 C 
ATOM      8  C   UNL     1     -17.925  -9.841   3.535  0.00  0.00    +0.000 C 
ATOM      9  H   UNL     1     -18.549  -8.952   3.517  0.00  0.00    +0.000 HD
BRANCH   7  10
ATOM     10  C   UNL     1     -16.014 -11.161   2.686  0.00  0.00    +0.000 C 
ATOM     11  H   UNL     1     -15.055 -11.041   3.197  0.00  0.00    +0.000 HD
ATOM     12  H   UNL     1     -16.531 -11.982   3.196  0.00  0.00    +0.000 HD
ATOM     13  H   UNL     1     -15.803 -11.477   1.660  0.00  0.00    +0.000 HD
ENDBRANCH   7  10
BRANCH   8  15
ATOM     14  N   UNL     1     -18.576 -11.676   5.231  0.00  0.00    +0.000 NA
ATOM     15  C   UNL     1     -18.284 -10.854   4.465  0.00  0.00    +0.000 C 
ENDBRANCH   8  15
ENDBRANCH   4   7
ENDBRANCH   1   4
BRANCH   1  16
ATOM     16  C   UNL     1     -17.172  -9.196  -0.752  0.00  0.00    +0.000 C 
ATOM     17  C   UNL     1     -18.223  -9.973  -1.073  0.00  0.00    +0.000 C 
ATOM     18  H   UNL     1     -17.050  -8.267  -1.304  0.00  0.00    +0.000 HD
BRANCH  17  19
ATOM     19  C   UNL     1     -19.240  -9.664  -2.136  0.00  0.00    +0.000 C 
ATOM     20  H   UNL     1     -19.623  -8.647  -2.014  0.00  0.00    +0.000 HD
ATOM     21  H   UNL     1     -18.792  -9.754  -3.131  0.00  0.00    +0.000 HD
ATOM     22  H   UNL     1     -20.091 -10.351  -2.089  0.00  0.00    +0.000 HD
ENDBRANCH  17  19
BRANCH  17  23
ATOM     23  C   UNL     1     -18.468 -11.264  -0.339  0.00  0.00    +0.000 C 
ATOM     24  H   UNL     1     -18.540 -12.090  -1.055  0.00  0.00    +0.000 HD
ATOM     25  H   UNL     1     -19.381 -11.285   0.259  0.00  0.00    +0.000 HD
ATOM     26  H   UNL     1     -17.632 -11.472   0.337  0.00  0.00    +0.000 HD
ENDBRANCH  17  23
ENDBRANCH   1  16
TORSDOF 7
ENDMDL
MODEL 3
REMARK VINA RESULT:    -4.369      3.750      6.028
REMARK INTER + INTRA:          -6.012
REMARK INTER:                  -5.708
REMARK INTRA:                  -0.304
REMARK UNBOUND:                -0.238
REMARK  Name = 1551246
REMARK  7 active torsions:
REMARK  status: ('A' for Active; 'I' for Inactive)
REMARK    1  A    between atoms: C_2  and  C_3
REMARK    2  A    between atoms: C_2  and  C_4
REMARK    3  A    between atoms: C_3  and  C_5
REMARK    4  A    between atoms: C_4  and  C_7
REMARK    5  A    between atoms: C_6  and  C_8
REMARK    6  A    between atoms: C_6  and  C_9
REMARK    7  A    between atoms: C_10  and  C_11
REMARK                            x       y       z     vdW  Elec       q    Type
REMARK                         _______ _______ _______ _____ _____    ______ ____
ROOT
ATOM      1  C   UNL     1      -2.009 -14.645  -9.575  0.00  0.00    +0.000 C 
ATOM      2  H   UNL     1      -1.560 -14.015 -10.354  0.00  0.00    +0.000 HD
ATOM      3  H   UNL     1      -3.090 -14.567  -9.739  0.00  0.00    +0.000 HD
ENDROOT
BRANCH   1   4
ATOM      4  C   UNL     1      -1.566 -16.104  -9.745  0.00  0.00    +0.000 C 
ATOM      5  H   UNL     1      -2.299 -16.757  -9.257  0.00  0.00    +0.000 HD
ATOM      6  H   UNL     1      -0.620 -16.266  -9.216  0.00  0.00    +0.000 HD
BRANCH   4   7
ATOM      7  C   UNL     1      -1.424 -16.535 -11.193  0.00  0.00    +0.000 C 
ATOM      8  C   UNL     1      -1.588 -17.797 -11.634  0.00  0.00    +0.000 C 
ATOM      9  H   UNL     1      -1.821 -18.582 -10.920  0.00  0.00    +0.000 HD
BRANCH   7  10
ATOM     10  C   UNL     1      -1.114 -15.430 -12.169  0.00  0.00    +0.000 C 
ATOM     11  H   UNL     1      -0.157 -15.536 -12.688  0.00  0.00    +0.000 HD
ATOM     12  H   UNL     1      -1.883 -15.394 -12.949  0.00  0.00    +0.000 HD
ATOM     13  H   UNL     1      -1.104 -14.462 -11.657  0.00  0.00    +0.000 HD
ENDBRANCH   7  10
BRANCH   8  15
ATOM     14  N   UNL     1      -1.394 -18.503 -14.110  0.00  0.00    +0.000 NA
ATOM     15  C   UNL     1      -1.485 -18.183 -12.998  0.00  0.00    +0.000 C 
ENDBRANCH   8  15
ENDBRANCH   4   7
ENDBRANCH   1   4
BRANCH   1  16
ATOM     16  C   UNL     1      -1.632 -14.082  -8.232  0.00  0.00    +0.000 C 
ATOM     17  C   UNL     1      -0.901 -12.983  -7.967  0.00  0.00    +0.000 C 
ATOM     18  H   UNL     1      -2.011 -14.647  -7.382  0.00  0.00    +0.000 HD
BRANCH  17  19
ATOM     19  C   UNL     1      -0.560 -12.475  -6.594  0.00  0.00    +0.000 C 
ATOM     20  H   UNL     1      -0.391 -11.394  -6.618  0.00  0.00    +0.000 HD
ATOM     21  H   UNL     1      -1.376 -12.687  -5.895  0.00  0.00    +0.000 HD
ATOM     22  H   UNL     1       0.347 -12.948  -6.204  0.00  0.00    +0.000 HD
ENDBRANCH  17  19
BRANCH  17  23
ATOM     23  C   UNL     1      -0.359 -12.141  -9.090  0.00  0.00    +0.000 C 
ATOM     24  H   UNL     1      -0.219 -12.759  -9.983  0.00  0.00    +0.000 HD
ATOM     25  H   UNL     1       0.601 -11.663  -8.884  0.00  0.00    +0.000 HD
ATOM     26  H   UNL     1      -1.071 -11.346  -9.336  0.00  0.00    +0.000 HD
ENDBRANCH  17  23
ENDBRANCH   1  16
TORSDOF 7
ENDMDL
MODEL 4
REMARK VINA RESULT:    -4.150     26.608     27.402
REMARK INTER + INTRA:          -5.722
REMARK INTER:                  -5.246
REMARK INTRA:                  -0.476
REMARK UNBOUND:                -0.238
REMARK  Name = 1551246
REMARK  7 active torsions:
REMARK  status: ('A' for Active; 'I' for Inactive)
REMARK    1  A    between atoms: C_2  and  C_3
REMARK    2  A    between atoms: C_2  and  C_4
REMARK    3  A    between atoms: C_3  and  C_5
REMARK    4  A    between atoms: C_4  and  C_7
REMARK    5  A    between atoms: C_6  and  C_8
REMARK    6  A    between atoms: C_6  and  C_9
REMARK    7  A    between atoms: C_10  and  C_11
REMARK                            x       y       z     vdW  Elec       q    Type
REMARK                         _______ _______ _______ _____ _____    ______ ____
ROOT
ATOM      1  C   UNL     1       3.140  12.195 -12.648  0.00  0.00    +0.000 C 
ATOM      2  H   UNL     1       2.378  11.505 -13.034  0.00  0.00    +0.000 HD
ATOM      3  H   UNL     1       2.672  13.185 -12.697  0.00  0.00    +0.000 HD
ENDROOT
BRANCH   1   4
ATOM      4  C   UNL     1       3.477  11.856 -11.190  0.00  0.00    +0.000 C 
ATOM      5  H   UNL     1       4.550  11.640 -11.114  0.00  0.00    +0.000 HD
ATOM      6  H   UNL     1       2.963  10.933 -10.898  0.00  0.00    +0.000 HD
BRANCH   4   7
ATOM      7  C   UNL     1       3.137  12.964 -10.210  0.00  0.00    +0.000 C 
ATOM      8  C   UNL     1       4.046  13.675  -9.516  0.00  0.00    +0.000 C 
ATOM      9  H   UNL     1       5.101  13.446  -9.635  0.00  0.00    +0.000 HD
BRANCH   7  10
ATOM     10  C   UNL     1       1.670  13.274 -10.070  0.00  0.00    +0.000 C 
ATOM     11  H   UNL     1       1.360  14.224 -10.516  0.00  0.00    +0.000 HD
ATOM     12  H   UNL     1       1.075  12.497 -10.564  0.00  0.00    +0.000 HD
ATOM     13  H   UNL     1       1.385  13.300  -9.013  0.00  0.00    +0.000 HD
ENDBRANCH   7  10
BRANCH   8  15
ATOM     14  N   UNL     1       3.457  15.601  -7.902  0.00  0.00    +0.000 NA
ATOM     15  C   UNL     1       3.718  14.733  -8.625  0.00  0.00    +0.000 C 
ENDBRANCH   8  15
ENDBRANCH   4   7
ENDBRANCH   1   4
BRANCH   1  16
ATOM     16  C   UNL     1       4.343  12.128 -13.548  0.00  0.00    +0.000 C 
ATOM     17  C   UNL     1       5.283  13.070 -13.750  0.00  0.00    +0.000 C 
ATOM     18  H   UNL     1       4.450  11.191 -14.091  0.00  0.00    +0.000 HD
BRANCH  17  19
ATOM     19  C   UNL     1       6.465  12.937 -14.668  0.00  0.00    +0.000 C 
ATOM     20  H   UNL     1       6.716  13.906 -15.110  0.00  0.00    +0.000 HD
ATOM     21  H   UNL     1       7.336  12.566 -14.118  0.00  0.00    +0.000 HD
ATOM     22  H   UNL     1       6.262  12.237 -15.484  0.00  0.00    +0.000 HD
ENDBRANCH  17  19
BRANCH  17  23
ATOM     23  C   UNL     1       5.212  14.384 -13.018  0.00  0.00    +0.000 C 
ATOM     24  H   UNL     1       4.463  14.326 -12.222  0.00  0.00    +0.000 HD
ATOM     25  H   UNL     1       4.945  15.241 -13.640  0.00  0.00    +0.000 HD
ATOM     26  H   UNL     1       6.181  14.606 -12.557  0.00  0.00    +0.000 HD
ENDBRANCH  17  23
ENDBRANCH   1  16
TORSDOF 7
ENDMDL
MODEL 5
REMARK VINA RESULT:    -4.136     31.064     34.029
REMARK INTER + INTRA:          -5.704
REMARK INTER:                  -5.369
REMARK INTRA:                  -0.336
REMARK UNBOUND:                -0.238
REMARK  Name = 1551246
REMARK  7 active torsions:
REMARK  status: ('A' for Active; 'I' for Inactive)
REMARK    1  A    between atoms: C_2  and  C_3
REMARK    2  A    between atoms: C_2  and  C_4
REMARK    3  A    between atoms: C_3  and  C_5
REMARK    4  A    between atoms: C_4  and  C_7
REMARK    5  A    between atoms: C_6  and  C_8
REMARK    6  A    between atoms: C_6  and  C_9
REMARK    7  A    between atoms: C_10  and  C_11
REMARK                            x       y       z     vdW  Elec       q    Type
REMARK                         _______ _______ _______ _____ _____    ______ ____
ROOT
ATOM      1  C   UNL     1      -1.221  10.001  17.593  0.00  0.00    +0.000 C 
ATOM      2  H   UNL     1      -0.472  10.681  17.167  0.00  0.00    +0.000 HD
ATOM      3  H   UNL     1      -1.439  10.411  18.586  0.00  0.00    +0.000 HD
ENDROOT
BRANCH   1   4
ATOM      4  C   UNL     1      -2.497  10.010  16.740  0.00  0.00    +0.000 C 
ATOM      5  H   UNL     1      -2.916  11.024  16.738  0.00  0.00    +0.000 HD
ATOM      6  H   UNL     1      -3.257   9.373  17.208  0.00  0.00    +0.000 HD
BRANCH   4   7
ATOM      7  C   UNL     1      -2.276   9.575  15.304  0.00  0.00    +0.000 C 
ATOM      8  C   UNL     1      -2.694   8.404  14.787  0.00  0.00    +0.000 C 
ATOM      9  H   UNL     1      -3.213   7.697  15.429  0.00  0.00    +0.000 HD
BRANCH   7  10
ATOM     10  C   UNL     1      -1.567  10.575  14.428  0.00  0.00    +0.000 C 
ATOM     11  H   UNL     1      -1.390  11.546  14.898  0.00  0.00    +0.000 HD
ATOM     12  H   UNL     1      -0.581  10.189  14.144  0.00  0.00    +0.000 HD
ATOM     13  H   UNL     1      -2.139  10.752  13.512  0.00  0.00    +0.000 HD
ENDBRANCH   7  10
BRANCH   8  15
ATOM     14  N   UNL     1      -2.369   7.707  12.323  0.00  0.00    +0.000 NA
ATOM     15  C   UNL     1      -2.510   8.020  13.431  0.00  0.00    +0.000 C 
ENDBRANCH   8  15
ENDBRANCH   4   7
ENDBRANCH   1   4
BRANCH   1  16
ATOM     16  C   UNL     1      -0.612   8.630  17.704  0.00  0.00    +0.000 C 
ATOM     17  C   UNL     1      -0.280   7.957  18.821  0.00  0.00    +0.000 C 
ATOM     18  H   UNL     1      -0.430   8.138  16.751  0.00  0.00    +0.000 HD
BRANCH  17  19
ATOM     19  C   UNL     1       0.328   6.583  18.860  0.00  0.00    +0.000 C 
ATOM     20  H   UNL     1      -0.149   5.977  19.637  0.00  0.00    +0.000 HD
ATOM     21  H   UNL     1       0.201   6.081  17.895  0.00  0.00    +0.000 HD
ATOM     22  H   UNL     1       1.400   6.624  19.077  0.00  0.00    +0.000 HD
ENDBRANCH  17  19
BRANCH  17  23
ATOM     23  C   UNL     1      -0.521   8.565  20.177  0.00  0.00    +0.000 C 
ATOM     24  H   UNL     1       0.353   8.403  20.817  0.00  0.00    +0.000 HD
ATOM     25  H   UNL     1      -1.384   8.164  20.713  0.00  0.00    +0.000 HD
ATOM     26  H   UNL     1      -0.674   9.646  20.078  0.00  0.00    +0.000 HD
ENDBRANCH  17  23
ENDBRANCH   1  16
TORSDOF 7
ENDMDL
MODEL 6
REMARK VINA RESULT:    -4.074     26.600     27.798
REMARK INTER + INTRA:          -5.623
REMARK INTER:                  -5.288
REMARK INTRA:                  -0.334
REMARK UNBOUND:                -0.238
REMARK  Name = 1551246
REMARK  7 active torsions:
REMARK  status: ('A' for Active; 'I' for Inactive)
REMARK    1  A    between atoms: C_2  and  C_3
REMARK    2  A    between atoms: C_2  and  C_4
REMARK    3  A    between atoms: C_3  and  C_5
REMARK    4  A    between atoms: C_4  and  C_7
REMARK    5  A    between atoms: C_6  and  C_8
REMARK    6  A    between atoms: C_6  and  C_9
REMARK    7  A    between atoms: C_10  and  C_11
REMARK                            x       y       z     vdW  Elec       q    Type
REMARK                         _______ _______ _______ _____ _____    ______ ____
ROOT
ATOM      1  C   UNL     1       3.670  12.506 -10.474  0.00  0.00    +0.000 C 
ATOM      2  H   UNL     1       3.924  11.684  -9.793  0.00  0.00    +0.000 HD
ATOM      3  H   UNL     1       4.590  13.098 -10.555  0.00  0.00    +0.000 HD
ENDROOT
BRANCH   1   4
ATOM      4  C   UNL     1       3.289  11.958 -11.856  0.00  0.00    +0.000 C 
ATOM      5  H   UNL     1       2.254  12.246 -12.079  0.00  0.00    +0.000 HD
ATOM      6  H   UNL     1       3.296  10.862 -11.832  0.00  0.00    +0.000 HD
BRANCH   4   7
ATOM      7  C   UNL     1       4.181  12.453 -12.979  0.00  0.00    +0.000 C 
ATOM      8  C   UNL     1       4.195  11.943 -14.225  0.00  0.00    +0.000 C 
ATOM      9  H   UNL     1       3.543  11.107 -14.462  0.00  0.00    +0.000 HD
BRANCH   7  10
ATOM     10  C   UNL     1       5.067  13.621 -12.632  0.00  0.00    +0.000 C 
ATOM     11  H   UNL     1       4.870  14.067 -11.652  0.00  0.00    +0.000 HD
ATOM     12  H   UNL     1       6.116  13.303 -12.617  0.00  0.00    +0.000 HD
ATOM     13  H   UNL     1       4.963  14.414 -13.380  0.00  0.00    +0.000 HD
ENDBRANCH   7  10
BRANCH   8  15
ATOM     14  N   UNL     1       5.684  12.841 -16.133  0.00  0.00    +0.000 NA
ATOM     15  C   UNL     1       5.011  12.437 -15.278  0.00  0.00    +0.000 C 
ENDBRANCH   8  15
ENDBRANCH   4   7
ENDBRANCH   1   4
BRANCH   1  16
ATOM     16  C   UNL     1       2.567  13.317  -9.852  0.00  0.00    +0.000 C 
ATOM     17  C   UNL     1       2.674  14.312  -8.951  0.00  0.00    +0.000 C 
ATOM     18  H   UNL     1       1.567  13.053 -10.188  0.00  0.00    +0.000 HD
BRANCH  17  19
ATOM     19  C   UNL     1       1.524  15.085  -8.368  0.00  0.00    +0.000 C 
ATOM     20  H   UNL     1       1.852  15.655  -7.493  0.00  0.00    +0.000 HD
ATOM     21  H   UNL     1       1.116  15.780  -9.109  0.00  0.00    +0.000 HD
ATOM     22  H   UNL     1       0.714  14.420  -8.051  0.00  0.00    +0.000 HD
ENDBRANCH  17  19
BRANCH  17  23
ATOM     23  C   UNL     1       4.027  14.746  -8.453  0.00  0.00    +0.000 C 
ATOM     24  H   UNL     1       4.746  14.737  -9.279  0.00  0.00    +0.000 HD
ATOM     25  H   UNL     1       4.447  14.121  -7.663  0.00  0.00    +0.000 HD
ATOM     26  H   UNL     1       3.970  15.768  -8.064  0.00  0.00    +0.000 HD
ENDBRANCH  17  23
ENDBRANCH   1  16
TORSDOF 7
ENDMDL
MODEL 7
REMARK VINA RESULT:    -4.073     19.671     21.408
REMARK INTER + INTRA:          -5.621
REMARK INTER:                  -5.121
REMARK INTRA:                  -0.500
REMARK UNBOUND:                -0.238
REMARK  Name = 1551246
REMARK  7 active torsions:
REMARK  status: ('A' for Active; 'I' for Inactive)
REMARK    1  A    between atoms: C_2  and  C_3
REMARK    2  A    between atoms: C_2  and  C_4
REMARK    3  A    between atoms: C_3  and  C_5
REMARK    4  A    between atoms: C_4  and  C_7
REMARK    5  A    between atoms: C_6  and  C_8
REMARK    6  A    between atoms: C_6  and  C_9
REMARK    7  A    between atoms: C_10  and  C_11
REMARK                            x       y       z     vdW  Elec       q    Type
REMARK                         _______ _______ _______ _____ _____    ______ ____
ROOT
ATOM      1  C   UNL     1     -16.198 -11.627   3.463  0.00  0.00    +0.000 C 
ATOM      2  H   UNL     1     -16.436 -11.120   4.406  0.00  0.00    +0.000 HD
ATOM      3  H   UNL     1     -15.269 -12.174   3.664  0.00  0.00    +0.000 HD
ENDROOT
BRANCH   1   4
ATOM      4  C   UNL     1     -17.309 -12.619   3.094  0.00  0.00    +0.000 C 
ATOM      5  H   UNL     1     -16.868 -13.616   2.967  0.00  0.00    +0.000 HD
ATOM      6  H   UNL     1     -17.733 -12.352   2.119  0.00  0.00    +0.000 HD
BRANCH   4   7
ATOM      7  C   UNL     1     -18.416 -12.710   4.128  0.00  0.00    +0.000 C 
ATOM      8  C   UNL     1     -18.462 -11.987   5.263  0.00  0.00    +0.000 C 
ATOM      9  H   UNL     1     -17.654 -11.296   5.484  0.00  0.00    +0.000 HD
BRANCH   7  10
ATOM     10  C   UNL     1     -19.534 -13.664   3.795  0.00  0.00    +0.000 C 
ATOM     11  H   UNL     1     -19.275 -14.721   3.896  0.00  0.00    +0.000 HD
ATOM     12  H   UNL     1     -20.383 -13.492   4.467  0.00  0.00    +0.000 HD
ATOM     13  H   UNL     1     -19.876 -13.506   2.768  0.00  0.00    +0.000 HD
ENDBRANCH   7  10
BRANCH   8  15
ATOM     14  N   UNL     1     -20.384 -12.120   6.982  0.00  0.00    +0.000 NA
ATOM     15  C   UNL     1     -19.521 -12.055   6.208  0.00  0.00    +0.000 C 
ENDBRANCH   8  15
ENDBRANCH   4   7
ENDBRANCH   1   4
BRANCH   1  16
ATOM     16  C   UNL     1     -15.983 -10.583   2.402  0.00  0.00    +0.000 C 
ATOM     17  C   UNL     1     -16.599  -9.394   2.269  0.00  0.00    +0.000 C 
ATOM     18  H   UNL     1     -15.228 -10.841   1.661  0.00  0.00    +0.000 HD
BRANCH  17  19
ATOM     19  C   UNL     1     -16.333  -8.393   1.180  0.00  0.00    +0.000 C 
ATOM     20  H   UNL     1     -16.791  -8.721   0.241  0.00  0.00    +0.000 HD
ATOM     21  H   UNL     1     -16.745  -7.415   1.450  0.00  0.00    +0.000 HD
ATOM     22  H   UNL     1     -15.260  -8.267   1.003  0.00  0.00    +0.000 HD
ENDBRANCH  17  19
BRANCH  17  23
ATOM     23  C   UNL     1     -17.640  -8.961   3.267  0.00  0.00    +0.000 C 
ATOM     24  H   UNL     1     -18.475  -8.479   2.746  0.00  0.00    +0.000 HD
ATOM     25  H   UNL     1     -17.287  -8.253   4.019  0.00  0.00    +0.000 HD
ATOM     26  H   UNL     1     -18.030  -9.834   3.800  0.00  0.00    +0.000 HD
ENDBRANCH  17  23
ENDBRANCH   1  16
TORSDOF 7
ENDMDL
MODEL 8
REMARK VINA RESULT:    -4.017      2.805      6.185
REMARK INTER + INTRA:          -5.546
REMARK INTER:                  -5.255
REMARK INTRA:                  -0.291
REMARK UNBOUND:                -0.238
REMARK  Name = 1551246
REMARK  7 active torsions:
REMARK  status: ('A' for Active; 'I' for Inactive)
REMARK    1  A    between atoms: C_2  and  C_3
REMARK    2  A    between atoms: C_2  and  C_4
REMARK    3  A    between atoms: C_3  and  C_5
REMARK    4  A    between atoms: C_4  and  C_7
REMARK    5  A    between atoms: C_6  and  C_8
REMARK    6  A    between atoms: C_6  and  C_9
REMARK    7  A    between atoms: C_10  and  C_11
REMARK                            x       y       z     vdW  Elec       q    Type
REMARK                         _______ _______ _______ _____ _____    ______ ____
ROOT
ATOM      1  C   UNL     1      -2.226 -14.772  -7.025  0.00  0.00    +0.000 C 
ATOM      2  H   UNL     1      -2.494 -15.344  -7.923  0.00  0.00    +0.000 HD
ATOM      3  H   UNL     1      -1.591 -15.449  -6.441  0.00  0.00    +0.000 HD
ENDROOT
BRANCH   1   4
ATOM      4  C   UNL     1      -1.427 -13.519  -7.408  0.00  0.00    +0.000 C 
ATOM      5  H   UNL     1      -0.467 -13.534  -6.878  0.00  0.00    +0.000 HD
ATOM      6  H   UNL     1      -1.953 -12.625  -7.051  0.00  0.00    +0.000 HD
BRANCH   4   7
ATOM      7  C   UNL     1      -1.156 -13.397  -8.896  0.00  0.00    +0.000 C 
ATOM      8  C   UNL     1      -1.591 -14.269  -9.825  0.00  0.00    +0.000 C 
ATOM      9  H   UNL     1      -2.162 -15.137  -9.511  0.00  0.00    +0.000 HD
BRANCH   7  10
ATOM     10  C   UNL     1      -0.374 -12.179  -9.312  0.00  0.00    +0.000 C 
ATOM     11  H   UNL     1      -0.987 -11.330  -9.628  0.00  0.00    +0.000 HD
ATOM     12  H   UNL     1       0.233 -11.820  -8.472  0.00  0.00    +0.000 HD
ATOM     13  H   UNL     1       0.300 -12.423 -10.139  0.00  0.00    +0.000 HD
ENDBRANCH   7  10
BRANCH   8  15
ATOM     14  N   UNL     1      -1.174 -14.018 -12.360  0.00  0.00    +0.000 NA
ATOM     15  C   UNL     1      -1.359 -14.127 -11.220  0.00  0.00    +0.000 C 
ENDBRANCH   8  15
ENDBRANCH   4   7
ENDBRANCH   1   4
BRANCH   1  16
ATOM     16  C   UNL     1      -3.487 -14.445  -6.274  0.00  0.00    +0.000 C 
ATOM     17  C   UNL     1      -3.792 -14.733  -4.995  0.00  0.00    +0.000 C 
ATOM     18  H   UNL     1      -4.231 -13.903  -6.855  0.00  0.00    +0.000 HD
BRANCH  17  19
ATOM     19  C   UNL     1      -5.078 -14.374  -4.305  0.00  0.00    +0.000 C 
ATOM     20  H   UNL     1      -5.279 -13.303  -4.406  0.00  0.00    +0.000 HD
ATOM     21  H   UNL     1      -5.914 -14.931  -4.740  0.00  0.00    +0.000 HD
ATOM     22  H   UNL     1      -5.039 -14.609  -3.237  0.00  0.00    +0.000 HD
ENDBRANCH  17  19
BRANCH  17  23
ATOM     23  C   UNL     1      -2.805 -15.463  -4.124  0.00  0.00    +0.000 C 
ATOM     24  H   UNL     1      -3.338 -16.128  -3.436  0.00  0.00    +0.000 HD
ATOM     25  H   UNL     1      -2.171 -14.819  -3.512  0.00  0.00    +0.000 HD
ATOM     26  H   UNL     1      -2.143 -16.076  -4.745  0.00  0.00    +0.000 HD
ENDBRANCH  17  23
ENDBRANCH   1  16
TORSDOF 7
ENDMDL
MODEL 9
REMARK VINA RESULT:    -3.939     33.750     35.255
REMARK INTER + INTRA:          -5.444
REMARK INTER:                  -5.235
REMARK INTRA:                  -0.209
REMARK UNBOUND:                -0.238
REMARK  Name = 1551246
REMARK  7 active torsions:
REMARK  status: ('A' for Active; 'I' for Inactive)
REMARK    1  A    between atoms: C_2  and  C_3
REMARK    2  A    between atoms: C_2  and  C_4
REMARK    3  A    between atoms: C_3  and  C_5
REMARK    4  A    between atoms: C_4  and  C_7
REMARK    5  A    between atoms: C_6  and  C_8
REMARK    6  A    between atoms: C_6  and  C_9
REMARK    7  A    between atoms: C_10  and  C_11
REMARK                            x       y       z     vdW  Elec       q    Type
REMARK                         _______ _______ _______ _____ _____    ______ ____
ROOT
ATOM      1  C   UNL     1     -28.915  -6.672  12.384  0.00  0.00    +0.000 C 
ATOM      2  H   UNL     1     -27.916  -7.080  12.186  0.00  0.00    +0.000 HD
ATOM      3  H   UNL     1     -29.112  -6.911  13.436  0.00  0.00    +0.000 HD
ENDROOT
BRANCH   1   4
ATOM      4  C   UNL     1     -28.919  -5.150  12.193  0.00  0.00    +0.000 C 
ATOM      5  H   UNL     1     -29.676  -4.710  12.854  0.00  0.00    +0.000 HD
ATOM      6  H   UNL     1     -29.235  -4.908  11.172  0.00  0.00    +0.000 HD
BRANCH   4   7
ATOM      7  C   UNL     1     -27.583  -4.493  12.486  0.00  0.00    +0.000 C 
ATOM      8  C   UNL     1     -26.745  -4.014  11.547  0.00  0.00    +0.000 C 
ATOM      9  H   UNL     1     -27.015  -4.108  10.499  0.00  0.00    +0.000 HD
BRANCH   7  10
ATOM     10  C   UNL     1     -27.235  -4.361  13.946  0.00  0.00    +0.000 C 
ATOM     11  H   UNL     1     -26.484  -5.073  14.301  0.00  0.00    +0.000 HD
ATOM     12  H   UNL     1     -26.826  -3.363  14.143  0.00  0.00    +0.000 HD
ATOM     13  H   UNL     1     -28.129  -4.490  14.564  0.00  0.00    +0.000 HD
ENDBRANCH   7  10
BRANCH   8  15
ATOM     14  N   UNL     1     -24.507  -2.838  12.068  0.00  0.00    +0.000 NA
ATOM     15  C   UNL     1     -25.511  -3.371  11.835  0.00  0.00    +0.000 C 
ENDBRANCH   8  15
ENDBRANCH   4   7
ENDBRANCH   1   4
BRANCH   1  16
ATOM     16  C   UNL     1     -29.901  -7.368  11.486  0.00  0.00    +0.000 C 
ATOM     17  C   UNL     1     -29.938  -8.668  11.142  0.00  0.00    +0.000 C 
ATOM     18  H   UNL     1     -30.676  -6.721  11.078  0.00  0.00    +0.000 HD
BRANCH  17  19
ATOM     19  C   UNL     1     -30.957  -9.300  10.236  0.00  0.00    +0.000 C 
ATOM     20  H   UNL     1     -31.495 -10.094  10.762  0.00  0.00    +0.000 HD
ATOM     21  H   UNL     1     -31.679  -8.552   9.893  0.00  0.00    +0.000 HD
ATOM     22  H   UNL     1     -30.488  -9.742   9.351  0.00  0.00    +0.000 HD
ENDBRANCH  17  19
BRANCH  17  23
ATOM     23  C   UNL     1     -28.912  -9.628  11.683  0.00  0.00    +0.000 C 
ATOM     24  H   UNL     1     -28.968 -10.577  11.139  0.00  0.00    +0.000 HD
ATOM     25  H   UNL     1     -29.019  -9.865  12.743  0.00  0.00    +0.000 HD
ATOM     26  H   UNL     1     -27.907  -9.215  11.542  0.00  0.00    +0.000 HD
ENDBRANCH  17  23
ENDBRANCH   1  16
TORSDOF 7
ENDMDL
MODEL 10
REMARK VINA RESULT:    -3.818     26.114     27.452
REMARK INTER + INTRA:          -5.284
REMARK INTER:                  -5.045
REMARK INTRA:                  -0.238
REMARK UNBOUND:                -0.238
REMARK  Name = 1551246
REMARK  7 active torsions:
REMARK  status: ('A' for Active; 'I' for Inactive)
REMARK    1  A    between atoms: C_2  and  C_3
REMARK    2  A    between atoms: C_2  and  C_4
REMARK    3  A    between atoms: C_3  and  C_5
REMARK    4  A    between atoms: C_4  and  C_7
REMARK    5  A    between atoms: C_6  and  C_8
REMARK    6  A    between atoms: C_6  and  C_9
REMARK    7  A    between atoms: C_10  and  C_11
REMARK                            x       y       z     vdW  Elec       q    Type
REMARK                         _______ _______ _______ _____ _____    ______ ____
ROOT
ATOM      1  C   UNL     1      -9.990   9.694   1.624  0.00  0.00    +0.000 C 
ATOM      2  H   UNL     1     -10.564  10.212   2.403  0.00  0.00    +0.000 HD
ATOM      3  H   UNL     1      -9.158   9.220   2.158  0.00  0.00    +0.000 HD
ENDROOT
BRANCH   1   4
ATOM      4  C   UNL     1     -10.851   8.617   0.952  0.00  0.00    +0.000 C 
ATOM      5  H   UNL     1     -10.210   7.772   0.674  0.00  0.00    +0.000 HD
ATOM      6  H   UNL     1     -11.260   9.007   0.012  0.00  0.00    +0.000 HD
BRANCH   4   7
ATOM      7  C   UNL     1     -11.978   8.101   1.827  0.00  0.00    +0.000 C 
ATOM      8  C   UNL     1     -12.203   8.495   3.095  0.00  0.00    +0.000 C 
ATOM      9  H   UNL     1     -11.534   9.220   3.551  0.00  0.00    +0.000 HD
BRANCH   7  10
ATOM     10  C   UNL     1     -12.901   7.106   1.172  0.00  0.00    +0.000 C 
ATOM     11  H   UNL     1     -12.394   6.270   0.682  0.00  0.00    +0.000 HD
ATOM     12  H   UNL     1     -13.565   6.663   1.923  0.00  0.00    +0.000 HD
ATOM     13  H   UNL     1     -13.521   7.602   0.419  0.00  0.00    +0.000 HD
ENDBRANCH   7  10
BRANCH   8  15
ATOM     14  N   UNL     1     -14.162   7.656   4.552  0.00  0.00    +0.000 NA
ATOM     15  C   UNL     1     -13.281   8.029   3.895  0.00  0.00    +0.000 C 
ENDBRANCH   8  15
ENDBRANCH   4   7
ENDBRANCH   1   4
BRANCH   1  16
ATOM     16  C   UNL     1      -9.482  10.718   0.647  0.00  0.00    +0.000 C 
ATOM     17  C   UNL     1      -8.799  11.849   0.907  0.00  0.00    +0.000 C 
ATOM     18  H   UNL     1      -9.701  10.496  -0.396  0.00  0.00    +0.000 HD
BRANCH  17  19
ATOM     19  C   UNL     1      -8.319  12.832  -0.123  0.00  0.00    +0.000 C 
ATOM     20  H   UNL     1      -7.333  13.220   0.150  0.00  0.00    +0.000 HD
ATOM     21  H   UNL     1      -8.248  12.353  -1.105  0.00  0.00    +0.000 HD
ATOM     22  H   UNL     1      -9.001  13.683  -0.214  0.00  0.00    +0.000 HD
ENDBRANCH  17  19
BRANCH  17  23
ATOM     23  C   UNL     1      -8.442  12.213   2.323  0.00  0.00    +0.000 C 
ATOM     24  H   UNL     1      -7.423  12.613   2.358  0.00  0.00    +0.000 HD
ATOM     25  H   UNL     1      -8.479  11.384   3.033  0.00  0.00    +0.000 HD
ATOM     26  H   UNL     1      -9.123  12.987   2.692  0.00  0.00    +0.000 HD
ENDBRANCH  17  23
ENDBRANCH   1  16
TORSDOF 7
ENDMDL
