MODEL 1
REMARK VINA RESULT:    -6.926      0.000      0.000
REMARK INTER + INTRA:          -6.926
REMARK INTER:                  -6.926
REMARK INTRA:                   0.000
REMARK UNBOUND:                 0.000
REMARK  Name = 323
REMARK  0 active torsions:
REMARK  status: ('A' for Active; 'I' for Inactive)
REMARK                            x       y       z     vdW  Elec       q    Type
REMARK                         _______ _______ _______ _____ _____    ______ ____
ROOT
ATOM      1  O   UNL     1       8.469  -1.247  -4.854  0.00  0.00    +0.000 OA
ATOM      2  O   UNL     1      10.573  -2.105  -4.573  0.00  0.00    +0.000 OA
ATOM      3  C   UNL     1       7.543   0.205  -3.133  0.00  0.00    +0.000 A 
ATOM      4  C   UNL     1       7.419  -0.448  -4.357  0.00  0.00    +0.000 A 
ATOM      5  C   UNL     1       6.482   0.988  -2.674  0.00  0.00    +0.000 A 
ATOM      6  C   UNL     1       8.774   0.047  -2.377  0.00  0.00    +0.000 A 
ATOM      7  C   UNL     1       6.266  -0.338  -5.131  0.00  0.00    +0.000 A 
ATOM      8  C   UNL     1       5.319   1.106  -3.440  0.00  0.00    +0.000 A 
ATOM      9  C   UNL     1       5.211   0.445  -4.666  0.00  0.00    +0.000 A 
ATOM     10  C   UNL     1       9.763  -0.712  -2.855  0.00  0.00    +0.000 A 
ATOM     11  C   UNL     1       9.656  -1.413  -4.148  0.00  0.00    +0.000 A 
ATOM     12  H   UNL     1       6.545   1.511  -1.723  0.00  0.00    +0.000 HD
ATOM     13  H   UNL     1       8.875   0.553  -1.423  0.00  0.00    +0.000 HD
ATOM     14  H   UNL     1       6.184  -0.853  -6.084  0.00  0.00    +0.000 HD
ATOM     15  H   UNL     1       4.494   1.716  -3.081  0.00  0.00    +0.000 HD
ATOM     16  H   UNL     1       4.305   0.541  -5.256  0.00  0.00    +0.000 HD
ATOM     17  H   UNL     1      10.685  -0.835  -2.295  0.00  0.00    +0.000 HD
ENDROOT
TORSDOF 0
ENDMDL
MODEL 2
REMARK VINA RESULT:    -6.102     15.985     17.214
REMARK INTER + INTRA:          -6.102
REMARK INTER:                  -6.102
REMARK INTRA:                   0.000
REMARK UNBOUND:                 0.000
REMARK  Name = 323
REMARK  0 active torsions:
REMARK  status: ('A' for Active; 'I' for Inactive)
REMARK                            x       y       z     vdW  Elec       q    Type
REMARK                         _______ _______ _______ _____ _____    ______ ____
ROOT
ATOM      1  O   UNL     1       0.115 -12.519 -11.284  0.00  0.00    +0.000 OA
ATOM      2  O   UNL     1       0.486 -12.894 -13.513  0.00  0.00    +0.000 OA
ATOM      3  C   UNL     1      -1.217 -14.117 -10.021  0.00  0.00    +0.000 A 
ATOM      4  C   UNL     1      -0.473 -12.941 -10.074  0.00  0.00    +0.000 A 
ATOM      5  C   UNL     1      -1.784 -14.503  -8.804  0.00  0.00    +0.000 A 
ATOM      6  C   UNL     1      -1.375 -14.902 -11.234  0.00  0.00    +0.000 A 
ATOM      7  C   UNL     1      -0.283 -12.143  -8.948  0.00  0.00    +0.000 A 
ATOM      8  C   UNL     1      -1.601 -13.712  -7.667  0.00  0.00    +0.000 A 
ATOM      9  C   UNL     1      -0.852 -12.535  -7.739  0.00  0.00    +0.000 A 
ATOM     10  C   UNL     1      -0.815 -14.495 -12.375  0.00  0.00    +0.000 A 
ATOM     11  C   UNL     1      -0.023 -13.253 -12.458  0.00  0.00    +0.000 A 
ATOM     12  H   UNL     1      -2.370 -15.416  -8.727  0.00  0.00    +0.000 HD
ATOM     13  H   UNL     1      -1.954 -15.819 -11.196  0.00  0.00    +0.000 HD
ATOM     14  H   UNL     1       0.300 -11.228  -9.006  0.00  0.00    +0.000 HD
ATOM     15  H   UNL     1      -2.044 -14.014  -6.721  0.00  0.00    +0.000 HD
ATOM     16  H   UNL     1      -0.715 -11.925  -6.851  0.00  0.00    +0.000 HD
ATOM     17  H   UNL     1      -0.930 -15.075 -13.285  0.00  0.00    +0.000 HD
ENDROOT
TORSDOF 0
ENDMDL
MODEL 3
REMARK VINA RESULT:    -5.764      2.748      4.313
REMARK INTER + INTRA:          -5.764
REMARK INTER:                  -5.764
REMARK INTRA:                   0.000
REMARK UNBOUND:                 0.000
REMARK  Name = 323
REMARK  0 active torsions:
REMARK  status: ('A' for Active; 'I' for Inactive)
REMARK                            x       y       z     vdW  Elec       q    Type
REMARK                         _______ _______ _______ _____ _____    ______ ____
ROOT
ATOM      1  O   UNL     1       7.355  -1.702  -1.237  0.00  0.00    +0.000 OA
ATOM      2  O   UNL     1       5.989  -2.904  -2.628  0.00  0.00    +0.000 OA
ATOM      3  C   UNL     1       7.268   0.730  -1.304  0.00  0.00    +0.000 A 
ATOM      4  C   UNL     1       7.799  -0.445  -0.777  0.00  0.00    +0.000 A 
ATOM      5  C   UNL     1       7.732   1.956  -0.823  0.00  0.00    +0.000 A 
ATOM      6  C   UNL     1       6.249   0.637  -2.336  0.00  0.00    +0.000 A 
ATOM      7  C   UNL     1       8.778  -0.427   0.214  0.00  0.00    +0.000 A 
ATOM      8  C   UNL     1       8.714   1.990   0.171  0.00  0.00    +0.000 A 
ATOM      9  C   UNL     1       9.236   0.801   0.688  0.00  0.00    +0.000 A 
ATOM     10  C   UNL     1       5.834  -0.557  -2.765  0.00  0.00    +0.000 A 
ATOM     11  C   UNL     1       6.381  -1.815  -2.224  0.00  0.00    +0.000 A 
ATOM     12  H   UNL     1       7.339   2.892  -1.211  0.00  0.00    +0.000 HD
ATOM     13  H   UNL     1       5.833   1.550  -2.749  0.00  0.00    +0.000 HD
ATOM     14  H   UNL     1       9.182  -1.352   0.615  0.00  0.00    +0.000 HD
ATOM     15  H   UNL     1       9.074   2.945   0.544  0.00  0.00    +0.000 HD
ATOM     16  H   UNL     1       9.999   0.835   1.460  0.00  0.00    +0.000 HD
ATOM     17  H   UNL     1       5.074  -0.634  -3.536  0.00  0.00    +0.000 HD
ENDROOT
TORSDOF 0
ENDMDL
MODEL 4
REMARK VINA RESULT:    -5.729     15.715     16.842
REMARK INTER + INTRA:          -5.729
REMARK INTER:                  -5.729
REMARK INTRA:                   0.000
REMARK UNBOUND:                 0.000
REMARK  Name = 323
REMARK  0 active torsions:
REMARK  status: ('A' for Active; 'I' for Inactive)
REMARK                            x       y       z     vdW  Elec       q    Type
REMARK                         _______ _______ _______ _____ _____    ______ ____
ROOT
ATOM      1  O   UNL     1      -1.721 -14.530  -7.387  0.00  0.00    +0.000 OA
ATOM      2  O   UNL     1      -1.774 -14.185  -5.124  0.00  0.00    +0.000 OA
ATOM      3  C   UNL     1      -0.634 -12.880  -8.811  0.00  0.00    +0.000 A 
ATOM      4  C   UNL     1      -1.326 -14.080  -8.664  0.00  0.00    +0.000 A 
ATOM      5  C   UNL     1      -0.261 -12.467 -10.091  0.00  0.00    +0.000 A 
ATOM      6  C   UNL     1      -0.325 -12.101  -7.623  0.00  0.00    +0.000 A 
ATOM      7  C   UNL     1      -1.654 -14.875  -9.761  0.00  0.00    +0.000 A 
ATOM      8  C   UNL     1      -0.583 -13.255 -11.200  0.00  0.00    +0.000 A 
ATOM      9  C   UNL     1      -1.278 -14.456 -11.035  0.00  0.00    +0.000 A 
ATOM     10  C   UNL     1      -0.702 -12.534  -6.418  0.00  0.00    +0.000 A 
ATOM     11  C   UNL     1      -1.436 -13.800  -6.237  0.00  0.00    +0.000 A 
ATOM     12  H   UNL     1       0.281 -11.537 -10.242  0.00  0.00    +0.000 HD
ATOM     13  H   UNL     1       0.214 -11.166  -7.733  0.00  0.00    +0.000 HD
ATOM     14  H   UNL     1      -2.194 -15.807  -9.630  0.00  0.00    +0.000 HD
ATOM     15  H   UNL     1      -0.292 -12.932 -12.196  0.00  0.00    +0.000 HD
ATOM     16  H   UNL     1      -1.525 -15.062 -11.901  0.00  0.00    +0.000 HD
ATOM     17  H   UNL     1      -0.475 -11.957  -5.527  0.00  0.00    +0.000 HD
ENDROOT
TORSDOF 0
ENDMDL
MODEL 5
REMARK VINA RESULT:    -5.278     22.981     24.389
REMARK INTER + INTRA:          -5.278
REMARK INTER:                  -5.278
REMARK INTRA:                   0.000
REMARK UNBOUND:                 0.000
REMARK  Name = 323
REMARK  0 active torsions:
REMARK  status: ('A' for Active; 'I' for Inactive)
REMARK                            x       y       z     vdW  Elec       q    Type
REMARK                         _______ _______ _______ _____ _____    ______ ____
ROOT
ATOM      1  O   UNL     1       4.433 -11.657 -24.434  0.00  0.00    +0.000 OA
ATOM      2  O   UNL     1       3.003 -10.017 -23.720  0.00  0.00    +0.000 OA
ATOM      3  C   UNL     1       6.540 -11.019 -25.474  0.00  0.00    +0.000 A 
ATOM      4  C   UNL     1       5.658 -12.005 -25.040  0.00  0.00    +0.000 A 
ATOM      5  C   UNL     1       7.743 -11.403 -26.070  0.00  0.00    +0.000 A 
ATOM      6  C   UNL     1       6.176  -9.624 -25.290  0.00  0.00    +0.000 A 
ATOM      7  C   UNL     1       5.946 -13.361 -25.187  0.00  0.00    +0.000 A 
ATOM      8  C   UNL     1       8.045 -12.759 -26.224  0.00  0.00    +0.000 A 
ATOM      9  C   UNL     1       7.148 -13.736 -25.783  0.00  0.00    +0.000 A 
ATOM     10  C   UNL     1       5.015  -9.303 -24.715  0.00  0.00    +0.000 A 
ATOM     11  C   UNL     1       4.064 -10.328 -24.247  0.00  0.00    +0.000 A 
ATOM     12  H   UNL     1       8.455 -10.659 -26.419  0.00  0.00    +0.000 HD
ATOM     13  H   UNL     1       6.860  -8.852 -25.626  0.00  0.00    +0.000 HD
ATOM     14  H   UNL     1       5.247 -14.118 -24.843  0.00  0.00    +0.000 HD
ATOM     15  H   UNL     1       8.981 -13.056 -26.688  0.00  0.00    +0.000 HD
ATOM     16  H   UNL     1       7.389 -14.787 -25.905  0.00  0.00    +0.000 HD
ATOM     17  H   UNL     1       4.736  -8.263 -24.575  0.00  0.00    +0.000 HD
ENDROOT
TORSDOF 0
ENDMDL
MODEL 6
REMARK VINA RESULT:    -5.081     23.203     24.408
REMARK INTER + INTRA:          -5.081
REMARK INTER:                  -5.081
REMARK INTRA:                   0.000
REMARK UNBOUND:                 0.000
REMARK  Name = 323
REMARK  0 active torsions:
REMARK  status: ('A' for Active; 'I' for Inactive)
REMARK                            x       y       z     vdW  Elec       q    Type
REMARK                         _______ _______ _______ _____ _____    ______ ____
ROOT
ATOM      1  O   UNL     1       7.475 -12.251 -25.608  0.00  0.00    +0.000 OA
ATOM      2  O   UNL     1       8.149 -14.395 -26.050  0.00  0.00    +0.000 OA
ATOM      3  C   UNL     1       5.172 -11.851 -24.928  0.00  0.00    +0.000 A 
ATOM      4  C   UNL     1       6.446 -11.369 -25.219  0.00  0.00    +0.000 A 
ATOM      5  C   UNL     1       4.179 -10.946 -24.546  0.00  0.00    +0.000 A 
ATOM      6  C   UNL     1       4.922 -13.279 -25.031  0.00  0.00    +0.000 A 
ATOM      7  C   UNL     1       6.752 -10.012 -25.140  0.00  0.00    +0.000 A 
ATOM      8  C   UNL     1       4.471  -9.582 -24.463  0.00  0.00    +0.000 A 
ATOM      9  C   UNL     1       5.755  -9.116 -24.759  0.00  0.00    +0.000 A 
ATOM     10  C   UNL     1       5.903 -14.107 -25.400  0.00  0.00    +0.000 A 
ATOM     11  C   UNL     1       7.259 -13.622 -25.714  0.00  0.00    +0.000 A 
ATOM     12  H   UNL     1       3.174 -11.288 -24.311  0.00  0.00    +0.000 HD
ATOM     13  H   UNL     1       3.932 -13.658 -24.805  0.00  0.00    +0.000 HD
ATOM     14  H   UNL     1       7.750  -9.652 -25.371  0.00  0.00    +0.000 HD
ATOM     15  H   UNL     1       3.697  -8.880 -24.166  0.00  0.00    +0.000 HD
ATOM     16  H   UNL     1       5.975  -8.055 -24.692  0.00  0.00    +0.000 HD
ATOM     17  H   UNL     1       5.723 -15.175 -25.480  0.00  0.00    +0.000 HD
ENDROOT
TORSDOF 0
ENDMDL
MODEL 7
REMARK VINA RESULT:    -5.001     17.264     18.481
REMARK INTER + INTRA:          -5.001
REMARK INTER:                  -5.001
REMARK INTRA:                   0.000
REMARK UNBOUND:                 0.000
REMARK  Name = 323
REMARK  0 active torsions:
REMARK  status: ('A' for Active; 'I' for Inactive)
REMARK                            x       y       z     vdW  Elec       q    Type
REMARK                         _______ _______ _______ _____ _____    ______ ____
ROOT
ATOM      1  O   UNL     1      -1.373 -13.294  -9.443  0.00  0.00    +0.000 OA
ATOM      2  O   UNL     1      -1.489 -12.738  -7.225  0.00  0.00    +0.000 OA
ATOM      3  C   UNL     1      -1.439 -15.644 -10.079  0.00  0.00    +0.000 A 
ATOM      4  C   UNL     1      -1.356 -14.299 -10.433  0.00  0.00    +0.000 A 
ATOM      5  C   UNL     1      -1.419 -16.610 -11.087  0.00  0.00    +0.000 A 
ATOM      6  C   UNL     1      -1.544 -15.993  -8.672  0.00  0.00    +0.000 A 
ATOM      7  C   UNL     1      -1.254 -13.897 -11.763  0.00  0.00    +0.000 A 
ATOM      8  C   UNL     1      -1.317 -16.221 -12.426  0.00  0.00    +0.000 A 
ATOM      9  C   UNL     1      -1.235 -14.867 -12.763  0.00  0.00    +0.000 A 
ATOM     10  C   UNL     1      -1.559 -15.035  -7.742  0.00  0.00    +0.000 A 
ATOM     11  C   UNL     1      -1.472 -13.605  -8.091  0.00  0.00    +0.000 A 
ATOM     12  H   UNL     1      -1.483 -17.668 -10.846  0.00  0.00    +0.000 HD
ATOM     13  H   UNL     1      -1.609 -17.039  -8.392  0.00  0.00    +0.000 HD
ATOM     14  H   UNL     1      -1.190 -12.844 -12.023  0.00  0.00    +0.000 HD
ATOM     15  H   UNL     1      -1.302 -16.974 -13.208  0.00  0.00    +0.000 HD
ATOM     16  H   UNL     1      -1.155 -14.572 -13.805  0.00  0.00    +0.000 HD
ATOM     17  H   UNL     1      -1.636 -15.288  -6.689  0.00  0.00    +0.000 HD
ENDROOT
TORSDOF 0
ENDMDL
MODEL 8
REMARK VINA RESULT:    -4.982     15.366     16.268
REMARK INTER + INTRA:          -4.982
REMARK INTER:                  -4.982
REMARK INTRA:                   0.000
REMARK UNBOUND:                 0.000
REMARK  Name = 323
REMARK  0 active torsions:
REMARK  status: ('A' for Active; 'I' for Inactive)
REMARK                            x       y       z     vdW  Elec       q    Type
REMARK                         _______ _______ _______ _____ _____    ______ ____
ROOT
ATOM      1  O   UNL     1       4.824  13.182 -12.686  0.00  0.00    +0.000 OA
ATOM      2  O   UNL     1       4.026  11.494 -14.012  0.00  0.00    +0.000 OA
ATOM      3  C   UNL     1       3.926  13.446 -10.438  0.00  0.00    +0.000 A 
ATOM      4  C   UNL     1       4.791  13.858 -11.449  0.00  0.00    +0.000 A 
ATOM      5  C   UNL     1       3.921  14.141  -9.227  0.00  0.00    +0.000 A 
ATOM      6  C   UNL     1       3.058  12.306 -10.681  0.00  0.00    +0.000 A 
ATOM      7  C   UNL     1       5.649  14.943 -11.281  0.00  0.00    +0.000 A 
ATOM      8  C   UNL     1       4.777  15.231  -9.045  0.00  0.00    +0.000 A 
ATOM      9  C   UNL     1       5.639  15.631 -10.069  0.00  0.00    +0.000 A 
ATOM     10  C   UNL     1       3.096  11.671 -11.855  0.00  0.00    +0.000 A 
ATOM     11  C   UNL     1       4.002  12.088 -12.941  0.00  0.00    +0.000 A 
ATOM     12  H   UNL     1       3.260  13.846  -8.417  0.00  0.00    +0.000 HD
ATOM     13  H   UNL     1       2.382  11.981  -9.897  0.00  0.00    +0.000 HD
ATOM     14  H   UNL     1       6.318  15.253 -12.078  0.00  0.00    +0.000 HD
ATOM     15  H   UNL     1       4.772  15.771  -8.102  0.00  0.00    +0.000 HD
ATOM     16  H   UNL     1       6.300  16.479  -9.920  0.00  0.00    +0.000 HD
ATOM     17  H   UNL     1       2.449  10.820 -12.044  0.00  0.00    +0.000 HD
ENDROOT
TORSDOF 0
ENDMDL
MODEL 9
REMARK VINA RESULT:    -4.947     23.381     24.585
REMARK INTER + INTRA:          -4.947
REMARK INTER:                  -4.947
REMARK INTRA:                   0.000
REMARK UNBOUND:                 0.000
REMARK  Name = 323
REMARK  0 active torsions:
REMARK  status: ('A' for Active; 'I' for Inactive)
REMARK                            x       y       z     vdW  Elec       q    Type
REMARK                         _______ _______ _______ _____ _____    ______ ____
ROOT
ATOM      1  O   UNL     1       5.564 -13.330 -25.296  0.00  0.00    +0.000 OA
ATOM      2  O   UNL     1       6.652 -15.226 -25.980  0.00  0.00    +0.000 OA
ATOM      3  C   UNL     1       6.698 -11.183 -25.482  0.00  0.00    +0.000 A 
ATOM      4  C   UNL     1       5.578 -11.930 -25.124  0.00  0.00    +0.000 A 
ATOM      5  C   UNL     1       6.674  -9.799 -25.296  0.00  0.00    +0.000 A 
ATOM      6  C   UNL     1       7.851 -11.871 -26.038  0.00  0.00    +0.000 A 
ATOM      7  C   UNL     1       4.440 -11.332 -24.586  0.00  0.00    +0.000 A 
ATOM      8  C   UNL     1       5.539  -9.186 -24.758  0.00  0.00    +0.000 A 
ATOM      9  C   UNL     1       4.425  -9.951 -24.404  0.00  0.00    +0.000 A 
ATOM     10  C   UNL     1       7.829 -13.197 -26.198  0.00  0.00    +0.000 A 
ATOM     11  C   UNL     1       6.656 -14.010 -25.826  0.00  0.00    +0.000 A 
ATOM     12  H   UNL     1       7.530  -9.185 -25.566  0.00  0.00    +0.000 HD
ATOM     13  H   UNL     1       8.725 -11.293 -26.318  0.00  0.00    +0.000 HD
ATOM     14  H   UNL     1       3.575 -11.929 -24.311  0.00  0.00    +0.000 HD
ATOM     15  H   UNL     1       5.523  -8.109 -24.614  0.00  0.00    +0.000 HD
ATOM     16  H   UNL     1       3.547  -9.468 -23.986  0.00  0.00    +0.000 HD
ATOM     17  H   UNL     1       8.687 -13.718 -26.611  0.00  0.00    +0.000 HD
ENDROOT
TORSDOF 0
ENDMDL
MODEL 10
REMARK VINA RESULT:    -4.911     26.107     27.564
REMARK INTER + INTRA:          -4.911
REMARK INTER:                  -4.911
REMARK INTRA:                   0.000
REMARK UNBOUND:                 0.000
REMARK  Name = 323
REMARK  0 active torsions:
REMARK  status: ('A' for Active; 'I' for Inactive)
REMARK                            x       y       z     vdW  Elec       q    Type
REMARK                         _______ _______ _______ _____ _____    ______ ____
ROOT
ATOM      1  O   UNL     1     -17.691 -10.994   1.699  0.00  0.00    +0.000 OA
ATOM      2  O   UNL     1     -16.213 -10.988   3.448  0.00  0.00    +0.000 OA
ATOM      3  C   UNL     1     -17.232  -9.601  -0.244  0.00  0.00    +0.000 A 
ATOM      4  C   UNL     1     -18.046 -10.515   0.421  0.00  0.00    +0.000 A 
ATOM      5  C   UNL     1     -17.616  -9.149  -1.508  0.00  0.00    +0.000 A 
ATOM      6  C   UNL     1     -16.011  -9.150   0.403  0.00  0.00    +0.000 A 
ATOM      7  C   UNL     1     -19.229 -10.988  -0.143  0.00  0.00    +0.000 A 
ATOM      8  C   UNL     1     -18.800  -9.615  -2.086  0.00  0.00    +0.000 A 
ATOM      9  C   UNL     1     -19.605 -10.532  -1.405  0.00  0.00    +0.000 A 
ATOM     10  C   UNL     1     -15.684  -9.608   1.614  0.00  0.00    +0.000 A 
ATOM     11  C   UNL     1     -16.528 -10.576   2.338  0.00  0.00    +0.000 A 
ATOM     12  H   UNL     1     -17.004  -8.437  -2.056  0.00  0.00    +0.000 HD
ATOM     13  H   UNL     1     -15.374  -8.438  -0.111  0.00  0.00    +0.000 HD
ATOM     14  H   UNL     1     -19.853 -11.700   0.388  0.00  0.00    +0.000 HD
ATOM     15  H   UNL     1     -19.097  -9.262  -3.070  0.00  0.00    +0.000 HD
ATOM     16  H   UNL     1     -20.523 -10.890  -1.860  0.00  0.00    +0.000 HD
ATOM     17  H   UNL     1     -14.774  -9.275   2.103  0.00  0.00    +0.000 HD
ENDROOT
TORSDOF 0
ENDMDL
