MODEL 1
REMARK VINA RESULT:    -4.404      0.000      0.000
REMARK INTER + INTRA:          -4.404
REMARK INTER:                  -4.404
REMARK INTRA:                   0.000
REMARK UNBOUND:                 0.000
REMARK  Name = 7967
REMARK  0 active torsions:
REMARK  status: ('A' for Active; 'I' for Inactive)
REMARK                            x       y       z     vdW  Elec       q    Type
REMARK                         _______ _______ _______ _____ _____    ______ ____
ROOT
ATOM      1  O   UNL     1       6.293   0.027  -0.231  0.00  0.00    +0.000 OA
ATOM      2  C   UNL     1       6.352  -0.798  -4.248  0.00  0.00    +0.000 C 
ATOM      3  C   UNL     1       6.285  -1.905  -3.198  0.00  0.00    +0.000 C 
ATOM      4  C   UNL     1       5.780   0.508  -3.700  0.00  0.00    +0.000 C 
ATOM      5  C   UNL     1       7.015  -1.515  -1.920  0.00  0.00    +0.000 C 
ATOM      6  C   UNL     1       6.500   0.952  -2.434  0.00  0.00    +0.000 C 
ATOM      7  C   UNL     1       6.536  -0.170  -1.421  0.00  0.00    +0.000 C 
ATOM      8  H   UNL     1       7.392  -0.646  -4.561  0.00  0.00    +0.000 HD
ATOM      9  H   UNL     1       5.788  -1.101  -5.137  0.00  0.00    +0.000 HD
ATOM     10  H   UNL     1       6.718  -2.826  -3.603  0.00  0.00    +0.000 HD
ATOM     11  H   UNL     1       5.233  -2.118  -2.967  0.00  0.00    +0.000 HD
ATOM     12  H   UNL     1       4.714   0.371  -3.485  0.00  0.00    +0.000 HD
ATOM     13  H   UNL     1       5.856   1.293  -4.462  0.00  0.00    +0.000 HD
ATOM     14  H   UNL     1       8.095  -1.449  -2.091  0.00  0.00    +0.000 HD
ATOM     15  H   UNL     1       6.838  -2.270  -1.145  0.00  0.00    +0.000 HD
ATOM     16  H   UNL     1       5.986   1.813  -1.997  0.00  0.00    +0.000 HD
ATOM     17  H   UNL     1       7.532   1.245  -2.653  0.00  0.00    +0.000 HD
ENDROOT
TORSDOF 0
ENDMDL
MODEL 2
REMARK VINA RESULT:    -4.297      2.224      3.106
REMARK INTER + INTRA:          -4.297
REMARK INTER:                  -4.297
REMARK INTRA:                   0.000
REMARK UNBOUND:                 0.000
REMARK  Name = 7967
REMARK  0 active torsions:
REMARK  status: ('A' for Active; 'I' for Inactive)
REMARK                            x       y       z     vdW  Elec       q    Type
REMARK                         _______ _______ _______ _____ _____    ______ ____
ROOT
ATOM      1  O   UNL     1       8.691  -1.126  -4.498  0.00  0.00    +0.000 OA
ATOM      2  C   UNL     1       5.256  -1.038  -2.260  0.00  0.00    +0.000 C 
ATOM      3  C   UNL     1       5.505  -0.047  -3.395  0.00  0.00    +0.000 C 
ATOM      4  C   UNL     1       6.043  -2.329  -2.481  0.00  0.00    +0.000 C 
ATOM      5  C   UNL     1       6.986   0.270  -3.552  0.00  0.00    +0.000 C 
ATOM      6  C   UNL     1       7.535  -2.062  -2.616  0.00  0.00    +0.000 C 
ATOM      7  C   UNL     1       7.795  -1.003  -3.664  0.00  0.00    +0.000 C 
ATOM      8  H   UNL     1       5.543  -0.586  -1.303  0.00  0.00    +0.000 HD
ATOM      9  H   UNL     1       4.186  -1.267  -2.201  0.00  0.00    +0.000 HD
ATOM     10  H   UNL     1       4.948   0.877  -3.208  0.00  0.00    +0.000 HD
ATOM     11  H   UNL     1       5.120  -0.470  -4.332  0.00  0.00    +0.000 HD
ATOM     12  H   UNL     1       5.676  -2.822  -3.388  0.00  0.00    +0.000 HD
ATOM     13  H   UNL     1       5.866  -3.017  -1.646  0.00  0.00    +0.000 HD
ATOM     14  H   UNL     1       7.359   0.835  -2.691  0.00  0.00    +0.000 HD
ATOM     15  H   UNL     1       7.143   0.876  -4.451  0.00  0.00    +0.000 HD
ATOM     16  H   UNL     1       8.053  -2.983  -2.902  0.00  0.00    +0.000 HD
ATOM     17  H   UNL     1       7.958  -1.712  -1.668  0.00  0.00    +0.000 HD
ENDROOT
TORSDOF 0
ENDMDL
MODEL 3
REMARK VINA RESULT:    -3.986     24.007     24.665
REMARK INTER + INTRA:          -3.986
REMARK INTER:                  -3.986
REMARK INTRA:                   0.000
REMARK UNBOUND:                 0.000
REMARK  Name = 7967
REMARK  0 active torsions:
REMARK  status: ('A' for Active; 'I' for Inactive)
REMARK                            x       y       z     vdW  Elec       q    Type
REMARK                         _______ _______ _______ _____ _____    ______ ____
ROOT
ATOM      1  O   UNL     1       3.435 -10.517 -23.577  0.00  0.00    +0.000 OA
ATOM      2  C   UNL     1       6.993 -10.682 -25.609  0.00  0.00    +0.000 C 
ATOM      3  C   UNL     1       6.605  -9.474 -24.760  0.00  0.00    +0.000 C 
ATOM      4  C   UNL     1       6.283 -11.943 -25.121  0.00  0.00    +0.000 C 
ATOM      5  C   UNL     1       5.099  -9.250 -24.752  0.00  0.00    +0.000 C 
ATOM      6  C   UNL     1       4.770 -11.774 -25.122  0.00  0.00    +0.000 C 
ATOM      7  C   UNL     1       4.372 -10.522 -24.374  0.00  0.00    +0.000 C 
ATOM      8  H   UNL     1       6.738 -10.495 -26.659  0.00  0.00    +0.000 HD
ATOM      9  H   UNL     1       8.078 -10.830 -25.562  0.00  0.00    +0.000 HD
ATOM     10  H   UNL     1       7.108  -8.578 -25.139  0.00  0.00    +0.000 HD
ATOM     11  H   UNL     1       6.956  -9.629 -23.732  0.00  0.00    +0.000 HD
ATOM     12  H   UNL     1       6.624 -12.176 -24.105  0.00  0.00    +0.000 HD
ATOM     13  H   UNL     1       6.560 -12.793 -25.756  0.00  0.00    +0.000 HD
ATOM     14  H   UNL     1       4.744  -8.938 -25.740  0.00  0.00    +0.000 HD
ATOM     15  H   UNL     1       4.843  -8.463 -24.034  0.00  0.00    +0.000 HD
ATOM     16  H   UNL     1       4.299 -12.641 -24.647  0.00  0.00    +0.000 HD
ATOM     17  H   UNL     1       4.387 -11.695 -26.145  0.00  0.00    +0.000 HD
ENDROOT
TORSDOF 0
ENDMDL
MODEL 4
REMARK VINA RESULT:    -3.639     19.607     20.678
REMARK INTER + INTRA:          -3.639
REMARK INTER:                  -3.639
REMARK INTRA:                   0.000
REMARK UNBOUND:                 0.000
REMARK  Name = 7967
REMARK  0 active torsions:
REMARK  status: ('A' for Active; 'I' for Inactive)
REMARK                            x       y       z     vdW  Elec       q    Type
REMARK                         _______ _______ _______ _____ _____    ______ ____
ROOT
ATOM      1  O   UNL     1      -1.707   7.906  11.630  0.00  0.00    +0.000 OA
ATOM      2  C   UNL     1      -3.101   9.856  14.957  0.00  0.00    +0.000 C 
ATOM      3  C   UNL     1      -2.615   8.410  15.014  0.00  0.00    +0.000 C 
ATOM      4  C   UNL     1      -2.448  10.605  13.796  0.00  0.00    +0.000 C 
ATOM      5  C   UNL     1      -2.881   7.673  13.708  0.00  0.00    +0.000 C 
ATOM      6  C   UNL     1      -2.711   9.918  12.463  0.00  0.00    +0.000 C 
ATOM      7  C   UNL     1      -2.335   8.455  12.534  0.00  0.00    +0.000 C 
ATOM      8  H   UNL     1      -4.191   9.877  14.847  0.00  0.00    +0.000 HD
ATOM      9  H   UNL     1      -2.861  10.361  15.899  0.00  0.00    +0.000 HD
ATOM     10  H   UNL     1      -3.109   7.886  15.839  0.00  0.00    +0.000 HD
ATOM     11  H   UNL     1      -1.538   8.400  15.226  0.00  0.00    +0.000 HD
ATOM     12  H   UNL     1      -1.367  10.664  13.969  0.00  0.00    +0.000 HD
ATOM     13  H   UNL     1      -2.825  11.634  13.760  0.00  0.00    +0.000 HD
ATOM     14  H   UNL     1      -3.955   7.531  13.551  0.00  0.00    +0.000 HD
ATOM     15  H   UNL     1      -2.406   6.686  13.734  0.00  0.00    +0.000 HD
ATOM     16  H   UNL     1      -2.126  10.401  11.674  0.00  0.00    +0.000 HD
ATOM     17  H   UNL     1      -3.770   9.982  12.192  0.00  0.00    +0.000 HD
ENDROOT
TORSDOF 0
ENDMDL
MODEL 5
REMARK VINA RESULT:    -3.606     16.183     17.282
REMARK INTER + INTRA:          -3.606
REMARK INTER:                  -3.606
REMARK INTRA:                   0.000
REMARK UNBOUND:                 0.000
REMARK  Name = 7967
REMARK  0 active torsions:
REMARK  status: ('A' for Active; 'I' for Inactive)
REMARK                            x       y       z     vdW  Elec       q    Type
REMARK                         _______ _______ _______ _____ _____    ______ ____
ROOT
ATOM      1  O   UNL     1      -2.985 -15.701  -8.277  0.00  0.00    +0.000 OA
ATOM      2  C   UNL     1      -0.605 -12.688  -9.717  0.00  0.00    +0.000 C 
ATOM      3  C   UNL     1      -1.314 -13.669 -10.647  0.00  0.00    +0.000 C 
ATOM      4  C   UNL     1      -1.343 -12.567  -8.385  0.00  0.00    +0.000 C 
ATOM      5  C   UNL     1      -1.462 -15.044 -10.010  0.00  0.00    +0.000 C 
ATOM      6  C   UNL     1      -1.490 -13.917  -7.698  0.00  0.00    +0.000 C 
ATOM      7  C   UNL     1      -2.095 -14.932  -8.641  0.00  0.00    +0.000 C 
ATOM      8  H   UNL     1       0.425 -13.021  -9.542  0.00  0.00    +0.000 HD
ATOM      9  H   UNL     1      -0.549 -11.704 -10.196  0.00  0.00    +0.000 HD
ATOM     10  H   UNL     1      -0.759 -13.756 -11.587  0.00  0.00    +0.000 HD
ATOM     11  H   UNL     1      -2.307 -13.273 -10.896  0.00  0.00    +0.000 HD
ATOM     12  H   UNL     1      -2.336 -12.137  -8.563  0.00  0.00    +0.000 HD
ATOM     13  H   UNL     1      -0.806 -11.874  -7.726  0.00  0.00    +0.000 HD
ATOM     14  H   UNL     1      -0.487 -15.528  -9.894  0.00  0.00    +0.000 HD
ATOM     15  H   UNL     1      -2.087 -15.682 -10.644  0.00  0.00    +0.000 HD
ATOM     16  H   UNL     1      -2.133 -13.818  -6.817  0.00  0.00    +0.000 HD
ATOM     17  H   UNL     1      -0.517 -14.297  -7.370  0.00  0.00    +0.000 HD
ENDROOT
TORSDOF 0
ENDMDL
MODEL 6
REMARK VINA RESULT:    -3.447     24.898     25.530
REMARK INTER + INTRA:          -3.447
REMARK INTER:                  -3.447
REMARK INTRA:                   0.000
REMARK UNBOUND:                 0.000
REMARK  Name = 7967
REMARK  0 active torsions:
REMARK  status: ('A' for Active; 'I' for Inactive)
REMARK                            x       y       z     vdW  Elec       q    Type
REMARK                         _______ _______ _______ _____ _____    ______ ____
ROOT
ATOM      1  O   UNL     1      -3.198  -9.218  19.668  0.00  0.00    +0.000 OA
ATOM      2  C   UNL     1       0.170  -7.322  21.039  0.00  0.00    +0.000 C 
ATOM      3  C   UNL     1       0.178  -8.798  20.647  0.00  0.00    +0.000 C 
ATOM      4  C   UNL     1      -0.938  -6.569  20.305  0.00  0.00    +0.000 C 
ATOM      5  C   UNL     1      -1.165  -9.461  20.917  0.00  0.00    +0.000 C 
ATOM      6  C   UNL     1      -2.306  -7.182  20.570  0.00  0.00    +0.000 C 
ATOM      7  C   UNL     1      -2.288  -8.668  20.287  0.00  0.00    +0.000 C 
ATOM      8  H   UNL     1       0.030  -7.227  22.122  0.00  0.00    +0.000 HD
ATOM      9  H   UNL     1       1.140  -6.874  20.798  0.00  0.00    +0.000 HD
ATOM     10  H   UNL     1       0.966  -9.323  21.198  0.00  0.00    +0.000 HD
ATOM     11  H   UNL     1       0.420  -8.885  19.580  0.00  0.00    +0.000 HD
ATOM     12  H   UNL     1      -0.731  -6.586  19.229  0.00  0.00    +0.000 HD
ATOM     13  H   UNL     1      -0.939  -5.518  20.616  0.00  0.00    +0.000 HD
ATOM     14  H   UNL     1      -1.359  -9.528  21.993  0.00  0.00    +0.000 HD
ATOM     15  H   UNL     1      -1.168 -10.477  20.506  0.00  0.00    +0.000 HD
ATOM     16  H   UNL     1      -3.057  -6.705  19.931  0.00  0.00    +0.000 HD
ATOM     17  H   UNL     1      -2.604  -7.039  21.614  0.00  0.00    +0.000 HD
ENDROOT
TORSDOF 0
ENDMDL
MODEL 7
REMARK VINA RESULT:    -3.350     25.828     26.355
REMARK INTER + INTRA:          -3.350
REMARK INTER:                  -3.350
REMARK INTRA:                   0.000
REMARK UNBOUND:                 0.000
REMARK  Name = 7967
REMARK  0 active torsions:
REMARK  status: ('A' for Active; 'I' for Inactive)
REMARK                            x       y       z     vdW  Elec       q    Type
REMARK                         _______ _______ _______ _____ _____    ______ ____
ROOT
ATOM      1  O   UNL     1     -16.970  -9.312  -0.194  0.00  0.00    +0.000 OA
ATOM      2  C   UNL     1     -18.208 -10.416   3.556  0.00  0.00    +0.000 C 
ATOM      3  C   UNL     1     -17.611  -9.039   3.277  0.00  0.00    +0.000 C 
ATOM      4  C   UNL     1     -18.833 -11.006   2.293  0.00  0.00    +0.000 C 
ATOM      5  C   UNL     1     -16.576  -9.088   2.161  0.00  0.00    +0.000 C 
ATOM      6  C   UNL     1     -17.825 -11.100   1.157  0.00  0.00    +0.000 C 
ATOM      7  C   UNL     1     -17.145  -9.767   0.936  0.00  0.00    +0.000 C 
ATOM      8  H   UNL     1     -17.428 -11.089   3.934  0.00  0.00    +0.000 HD
ATOM      9  H   UNL     1     -18.970 -10.334   4.339  0.00  0.00    +0.000 HD
ATOM     10  H   UNL     1     -17.151  -8.643   4.189  0.00  0.00    +0.000 HD
ATOM     11  H   UNL     1     -18.417  -8.348   2.998  0.00  0.00    +0.000 HD
ATOM     12  H   UNL     1     -19.676 -10.378   1.984  0.00  0.00    +0.000 HD
ATOM     13  H   UNL     1     -19.237 -12.002   2.511  0.00  0.00    +0.000 HD
ATOM     14  H   UNL     1     -15.687  -9.645   2.476  0.00  0.00    +0.000 HD
ATOM     15  H   UNL     1     -16.266  -8.071   1.897  0.00  0.00    +0.000 HD
ATOM     16  H   UNL     1     -18.332 -11.401   0.234  0.00  0.00    +0.000 HD
ATOM     17  H   UNL     1     -17.052 -11.842   1.380  0.00  0.00    +0.000 HD
ENDROOT
TORSDOF 0
ENDMDL
MODEL 8
REMARK VINA RESULT:    -3.313     25.492     25.982
REMARK INTER + INTRA:          -3.313
REMARK INTER:                  -3.313
REMARK INTRA:                   0.000
REMARK UNBOUND:                 0.000
REMARK  Name = 7967
REMARK  0 active torsions:
REMARK  status: ('A' for Active; 'I' for Inactive)
REMARK                            x       y       z     vdW  Elec       q    Type
REMARK                         _______ _______ _______ _____ _____    ______ ____
ROOT
ATOM      1  O   UNL     1     -18.416 -11.967   1.113  0.00  0.00    +0.000 OA
ATOM      2  C   UNL     1     -16.351  -8.442   1.460  0.00  0.00    +0.000 C 
ATOM      3  C   UNL     1     -16.711  -9.288   2.678  0.00  0.00    +0.000 C 
ATOM      4  C   UNL     1     -16.271  -9.304   0.201  0.00  0.00    +0.000 C 
ATOM      5  C   UNL     1     -18.023 -10.035   2.478  0.00  0.00    +0.000 C 
ATOM      6  C   UNL     1     -17.573 -10.049  -0.055  0.00  0.00    +0.000 C 
ATOM      7  C   UNL     1     -18.003 -10.810   1.180  0.00  0.00    +0.000 C 
ATOM      8  H   UNL     1     -17.098  -7.651   1.322  0.00  0.00    +0.000 HD
ATOM      9  H   UNL     1     -15.387  -7.949   1.628  0.00  0.00    +0.000 HD
ATOM     10  H   UNL     1     -16.783  -8.649   3.565  0.00  0.00    +0.000 HD
ATOM     11  H   UNL     1     -15.906 -10.009   2.866  0.00  0.00    +0.000 HD
ATOM     12  H   UNL     1     -15.453 -10.025   0.311  0.00  0.00    +0.000 HD
ATOM     13  H   UNL     1     -16.031  -8.674  -0.664  0.00  0.00    +0.000 HD
ATOM     14  H   UNL     1     -18.868  -9.339   2.444  0.00  0.00    +0.000 HD
ATOM     15  H   UNL     1     -18.186 -10.730   3.309  0.00  0.00    +0.000 HD
ATOM     16  H   UNL     1     -17.442 -10.754  -0.882  0.00  0.00    +0.000 HD
ATOM     17  H   UNL     1     -18.376  -9.354  -0.321  0.00  0.00    +0.000 HD
ENDROOT
TORSDOF 0
ENDMDL
MODEL 9
REMARK VINA RESULT:    -3.274     21.279     22.045
REMARK INTER + INTRA:          -3.274
REMARK INTER:                  -3.274
REMARK INTRA:                   0.000
REMARK UNBOUND:                 0.000
REMARK  Name = 7967
REMARK  0 active torsions:
REMARK  status: ('A' for Active; 'I' for Inactive)
REMARK                            x       y       z     vdW  Elec       q    Type
REMARK                         _______ _______ _______ _____ _____    ______ ____
ROOT
ATOM      1  O   UNL     1      21.967  15.376 -11.185  0.00  0.00    +0.000 OA
ATOM      2  C   UNL     1      18.132  13.968 -10.829  0.00  0.00    +0.000 C 
ATOM      3  C   UNL     1      19.022  13.594 -12.012  0.00  0.00    +0.000 C 
ATOM      4  C   UNL     1      18.973  14.337  -9.609  0.00  0.00    +0.000 C 
ATOM      5  C   UNL     1      19.988  14.715 -12.368  0.00  0.00    +0.000 C 
ATOM      6  C   UNL     1      19.937  15.475  -9.912  0.00  0.00    +0.000 C 
ATOM      7  C   UNL     1      20.755  15.167 -11.146  0.00  0.00    +0.000 C 
ATOM      8  H   UNL     1      17.486  14.811 -11.104  0.00  0.00    +0.000 HD
ATOM      9  H   UNL     1      17.476  13.126 -10.582  0.00  0.00    +0.000 HD
ATOM     10  H   UNL     1      18.401  13.353 -12.881  0.00  0.00    +0.000 HD
ATOM     11  H   UNL     1      19.589  12.688 -11.762  0.00  0.00    +0.000 HD
ATOM     12  H   UNL     1      19.538  13.456  -9.283  0.00  0.00    +0.000 HD
ATOM     13  H   UNL     1      18.315  14.622  -8.779  0.00  0.00    +0.000 HD
ATOM     14  H   UNL     1      19.452  15.580 -12.772  0.00  0.00    +0.000 HD
ATOM     15  H   UNL     1      20.697  14.368 -13.128  0.00  0.00    +0.000 HD
ATOM     16  H   UNL     1      20.612  15.627  -9.063  0.00  0.00    +0.000 HD
ATOM     17  H   UNL     1      19.395  16.410 -10.089  0.00  0.00    +0.000 HD
ENDROOT
TORSDOF 0
ENDMDL
MODEL 10
REMARK VINA RESULT:    -3.209     16.103     16.876
REMARK INTER + INTRA:          -3.209
REMARK INTER:                  -3.209
REMARK INTRA:                   0.000
REMARK UNBOUND:                 0.000
REMARK  Name = 7967
REMARK  0 active torsions:
REMARK  status: ('A' for Active; 'I' for Inactive)
REMARK                            x       y       z     vdW  Elec       q    Type
REMARK                         _______ _______ _______ _____ _____    ______ ____
ROOT
ATOM      1  O   UNL     1       4.315  12.883 -14.030  0.00  0.00    +0.000 OA
ATOM      2  C   UNL     1       3.686  13.305 -10.000  0.00  0.00    +0.000 C 
ATOM      3  C   UNL     1       4.226  14.448 -10.856  0.00  0.00    +0.000 C 
ATOM      4  C   UNL     1       2.872  12.327 -10.846  0.00  0.00    +0.000 C 
ATOM      5  C   UNL     1       5.073  13.935 -12.012  0.00  0.00    +0.000 C 
ATOM      6  C   UNL     1       3.690  11.767 -12.002  0.00  0.00    +0.000 C 
ATOM      7  C   UNL     1       4.321  12.885 -12.800  0.00  0.00    +0.000 C 
ATOM      8  H   UNL     1       4.518  12.776  -9.518  0.00  0.00    +0.000 HD
ATOM      9  H   UNL     1       3.056  13.711  -9.201  0.00  0.00    +0.000 HD
ATOM     10  H   UNL     1       4.823  15.125 -10.235  0.00  0.00    +0.000 HD
ATOM     11  H   UNL     1       3.384  15.031 -11.250  0.00  0.00    +0.000 HD
ATOM     12  H   UNL     1       1.989  12.843 -11.240  0.00  0.00    +0.000 HD
ATOM     13  H   UNL     1       2.512  11.505 -10.217  0.00  0.00    +0.000 HD
ATOM     14  H   UNL     1       6.003  13.485 -11.648  0.00  0.00    +0.000 HD
ATOM     15  H   UNL     1       5.334  14.765 -12.679  0.00  0.00    +0.000 HD
ATOM     16  H   UNL     1       3.045  11.176 -12.661  0.00  0.00    +0.000 HD
ATOM     17  H   UNL     1       4.491  11.117 -11.635  0.00  0.00    +0.000 HD
ENDROOT
TORSDOF 0
ENDMDL
