MODEL 1
REMARK VINA RESULT:    -1.989      0.000      0.000
REMARK INTER + INTRA:          -2.221
REMARK INTER:                  -2.221
REMARK INTRA:                   0.000
REMARK UNBOUND:                 0.000
REMARK  Name = 12232
REMARK  3 active torsions:
REMARK  status: ('A' for Active; 'I' for Inactive)
REMARK    1  A    between atoms: S_1  and  S_2
REMARK    2  A    between atoms: S_1  and  C_3
REMARK    3  A    between atoms: S_2  and  C_4
REMARK                            x       y       z     vdW  Elec       q    Type
REMARK                         _______ _______ _______ _____ _____    ______ ____
ROOT
ATOM      1  S   UNL     1       9.681   7.769  -2.167  0.00  0.00    +0.000 S 
ENDROOT
BRANCH   1   2
ATOM      2  C   UNL     1      11.235   8.049  -1.285  0.00  0.00    +0.000 C 
ATOM      3  H   UNL     1      12.012   8.395  -1.972  0.00  0.00    +0.000 HD
ATOM      4  H   UNL     1      11.567   7.108  -0.839  0.00  0.00    +0.000 HD
ATOM      5  H   UNL     1      11.096   8.779  -0.482  0.00  0.00    +0.000 HD
ENDBRANCH   1   2
BRANCH   1   6
ATOM      6  S   UNL     1      10.338   7.494  -4.096  0.00  0.00    +0.000 S 
BRANCH   6   7
ATOM      7  C   UNL     1       9.686   8.965  -4.921  0.00  0.00    +0.000 C 
ATOM      8  H   UNL     1      10.443   9.411  -5.571  0.00  0.00    +0.000 HD
ATOM      9  H   UNL     1       9.407   9.704  -4.164  0.00  0.00    +0.000 HD
ATOM     10  H   UNL     1       8.794   8.717  -5.503  0.00  0.00    +0.000 HD
ENDBRANCH   6   7
ENDBRANCH   1   6
TORSDOF 3
ENDMDL
MODEL 2
REMARK VINA RESULT:    -1.976      9.620      9.881
REMARK INTER + INTRA:          -2.207
REMARK INTER:                  -2.207
REMARK INTRA:                   0.000
REMARK UNBOUND:                 0.000
REMARK  Name = 12232
REMARK  3 active torsions:
REMARK  status: ('A' for Active; 'I' for Inactive)
REMARK    1  A    between atoms: S_1  and  S_2
REMARK    2  A    between atoms: S_1  and  C_3
REMARK    3  A    between atoms: S_2  and  C_4
REMARK                            x       y       z     vdW  Elec       q    Type
REMARK                         _______ _______ _______ _____ _____    ______ ____
ROOT
ATOM      1  S   UNL     1       6.326   0.749  -2.952  0.00  0.00    +0.000 S 
ENDROOT
BRANCH   1   2
ATOM      2  C   UNL     1       5.099   0.551  -4.265  0.00  0.00    +0.000 C 
ATOM      3  H   UNL     1       4.563   1.488  -4.437  0.00  0.00    +0.000 HD
ATOM      4  H   UNL     1       4.372  -0.208  -3.962  0.00  0.00    +0.000 HD
ATOM      5  H   UNL     1       5.576   0.219  -5.191  0.00  0.00    +0.000 HD
ENDBRANCH   1   2
BRANCH   1   6
ATOM      6  S   UNL     1       7.339  -1.037  -3.051  0.00  0.00    +0.000 S 
BRANCH   6   7
ATOM      7  C   UNL     1       6.054  -2.216  -2.570  0.00  0.00    +0.000 C 
ATOM      8  H   UNL     1       6.444  -3.237  -2.579  0.00  0.00    +0.000 HD
ATOM      9  H   UNL     1       5.231  -2.158  -3.288  0.00  0.00    +0.000 HD
ATOM     10  H   UNL     1       5.662  -1.976  -1.578  0.00  0.00    +0.000 HD
ENDBRANCH   6   7
ENDBRANCH   1   6
TORSDOF 3
ENDMDL
MODEL 3
REMARK VINA RESULT:    -1.971      2.372      3.308
REMARK INTER + INTRA:          -2.201
REMARK INTER:                  -2.201
REMARK INTRA:                   0.000
REMARK UNBOUND:                 0.000
REMARK  Name = 12232
REMARK  3 active torsions:
REMARK  status: ('A' for Active; 'I' for Inactive)
REMARK    1  A    between atoms: S_1  and  S_2
REMARK    2  A    between atoms: S_1  and  C_3
REMARK    3  A    between atoms: S_2  and  C_4
REMARK                            x       y       z     vdW  Elec       q    Type
REMARK                         _______ _______ _______ _____ _____    ______ ____
ROOT
ATOM      1  S   UNL     1      10.540   7.355  -4.456  0.00  0.00    +0.000 S 
ENDROOT
BRANCH   1   2
ATOM      2  C   UNL     1       9.800   8.934  -4.934  0.00  0.00    +0.000 C 
ATOM      3  H   UNL     1      10.495   9.517  -5.545  0.00  0.00    +0.000 HD
ATOM      4  H   UNL     1       9.572   9.509  -4.031  0.00  0.00    +0.000 HD
ATOM      5  H   UNL     1       8.868   8.773  -5.482  0.00  0.00    +0.000 HD
ENDBRANCH   1   2
BRANCH   1   6
ATOM      6  S   UNL     1      12.273   7.965  -3.535  0.00  0.00    +0.000 S 
BRANCH   6   7
ATOM      7  C   UNL     1      13.529   7.426  -4.720  0.00  0.00    +0.000 C 
ATOM      8  H   UNL     1      14.098   6.581  -4.323  0.00  0.00    +0.000 HD
ATOM      9  H   UNL     1      14.225   8.250  -4.902  0.00  0.00    +0.000 HD
ATOM     10  H   UNL     1      13.068   7.150  -5.672  0.00  0.00    +0.000 HD
ENDBRANCH   6   7
ENDBRANCH   1   6
TORSDOF 3
ENDMDL
MODEL 4
REMARK VINA RESULT:    -1.959      9.546      9.583
REMARK INTER + INTRA:          -2.188
REMARK INTER:                  -2.188
REMARK INTRA:                   0.000
REMARK UNBOUND:                 0.000
REMARK  Name = 12232
REMARK  3 active torsions:
REMARK  status: ('A' for Active; 'I' for Inactive)
REMARK    1  A    between atoms: S_1  and  S_2
REMARK    2  A    between atoms: S_1  and  C_3
REMARK    3  A    between atoms: S_2  and  C_4
REMARK                            x       y       z     vdW  Elec       q    Type
REMARK                         _______ _______ _______ _____ _____    ______ ____
ROOT
ATOM      1  S   UNL     1       6.636  -0.710  -1.586  0.00  0.00    +0.000 S 
ENDROOT
BRANCH   1   2
ATOM      2  C   UNL     1       6.064  -2.012  -2.703  0.00  0.00    +0.000 C 
ATOM      3  H   UNL     1       5.500  -1.585  -3.537  0.00  0.00    +0.000 HD
ATOM      4  H   UNL     1       5.404  -2.689  -2.154  0.00  0.00    +0.000 HD
ATOM      5  H   UNL     1       6.910  -2.592  -3.084  0.00  0.00    +0.000 HD
ENDBRANCH   1   2
BRANCH   1   6
ATOM      6  S   UNL     1       6.300   0.981  -2.707  0.00  0.00    +0.000 S 
BRANCH   6   7
ATOM      7  C   UNL     1       5.189   0.357  -3.990  0.00  0.00    +0.000 C 
ATOM      8  H   UNL     1       5.113   1.070  -4.816  0.00  0.00    +0.000 HD
ATOM      9  H   UNL     1       4.191   0.221  -3.564  0.00  0.00    +0.000 HD
ATOM     10  H   UNL     1       5.536  -0.610  -4.364  0.00  0.00    +0.000 HD
ENDBRANCH   6   7
ENDBRANCH   1   6
TORSDOF 3
ENDMDL
MODEL 5
REMARK VINA RESULT:    -1.944     10.173     10.320
REMARK INTER + INTRA:          -2.171
REMARK INTER:                  -2.171
REMARK INTRA:                   0.000
REMARK UNBOUND:                 0.000
REMARK  Name = 12232
REMARK  3 active torsions:
REMARK  status: ('A' for Active; 'I' for Inactive)
REMARK    1  A    between atoms: S_1  and  S_2
REMARK    2  A    between atoms: S_1  and  C_3
REMARK    3  A    between atoms: S_2  and  C_4
REMARK                            x       y       z     vdW  Elec       q    Type
REMARK                         _______ _______ _______ _____ _____    ______ ____
ROOT
ATOM      1  S   UNL     1       7.783  -1.893  -2.109  0.00  0.00    +0.000 S 
ENDROOT
BRANCH   1   2
ATOM      2  C   UNL     1       6.138  -2.453  -2.609  0.00  0.00    +0.000 C 
ATOM      3  H   UNL     1       5.431  -2.364  -1.779  0.00  0.00    +0.000 HD
ATOM      4  H   UNL     1       6.192  -3.505  -2.901  0.00  0.00    +0.000 HD
ATOM      5  H   UNL     1       5.779  -1.877  -3.466  0.00  0.00    +0.000 HD
ENDBRANCH   1   2
BRANCH   1   6
ATOM      6  S   UNL     1       8.487  -1.056  -3.850  0.00  0.00    +0.000 S 
BRANCH   6   7
ATOM      7  C   UNL     1      10.187  -1.672  -3.894  0.00  0.00    +0.000 C 
ATOM      8  H   UNL     1      10.202  -2.764  -3.933  0.00  0.00    +0.000 HD
ATOM      9  H   UNL     1      10.705  -1.356  -2.985  0.00  0.00    +0.000 HD
ATOM     10  H   UNL     1      10.723  -1.262  -4.754  0.00  0.00    +0.000 HD
ENDBRANCH   6   7
ENDBRANCH   1   6
TORSDOF 3
ENDMDL
MODEL 6
REMARK VINA RESULT:    -1.942     10.205     10.362
REMARK INTER + INTRA:          -2.169
REMARK INTER:                  -2.169
REMARK INTRA:                   0.000
REMARK UNBOUND:                 0.000
REMARK  Name = 12232
REMARK  3 active torsions:
REMARK  status: ('A' for Active; 'I' for Inactive)
REMARK    1  A    between atoms: S_1  and  S_2
REMARK    2  A    between atoms: S_1  and  C_3
REMARK    3  A    between atoms: S_2  and  C_4
REMARK                            x       y       z     vdW  Elec       q    Type
REMARK                         _______ _______ _______ _____ _____    ______ ____
ROOT
ATOM      1  S   UNL     1       9.193  -1.731  -2.624  0.00  0.00    +0.000 S 
ENDROOT
BRANCH   1   2
ATOM      2  C   UNL     1      10.282  -1.750  -4.068  0.00  0.00    +0.000 C 
ATOM      3  H   UNL     1      10.434  -0.737  -4.451  0.00  0.00    +0.000 HD
ATOM      4  H   UNL     1       9.817  -2.348  -4.857  0.00  0.00    +0.000 HD
ATOM      5  H   UNL     1      11.246  -2.201  -3.818  0.00  0.00    +0.000 HD
ENDBRANCH   1   2
BRANCH   1   6
ATOM      6  S   UNL     1       7.370  -1.314  -3.479  0.00  0.00    +0.000 S 
BRANCH   6   7
ATOM      7  C   UNL     1       6.279  -2.451  -2.592  0.00  0.00    +0.000 C 
ATOM      8  H   UNL     1       5.238  -2.126  -2.668  0.00  0.00    +0.000 HD
ATOM      9  H   UNL     1       6.558  -2.462  -1.535  0.00  0.00    +0.000 HD
ATOM     10  H   UNL     1       6.380  -3.467  -2.984  0.00  0.00    +0.000 HD
ENDBRANCH   6   7
ENDBRANCH   1   6
TORSDOF 3
ENDMDL
MODEL 7
REMARK VINA RESULT:    -1.767     14.024     14.047
REMARK INTER + INTRA:          -1.974
REMARK INTER:                  -1.974
REMARK INTRA:                   0.000
REMARK UNBOUND:                 0.000
REMARK  Name = 12232
REMARK  3 active torsions:
REMARK  status: ('A' for Active; 'I' for Inactive)
REMARK    1  A    between atoms: S_1  and  S_2
REMARK    2  A    between atoms: S_1  and  C_3
REMARK    3  A    between atoms: S_2  and  C_4
REMARK                            x       y       z     vdW  Elec       q    Type
REMARK                         _______ _______ _______ _____ _____    ______ ____
ROOT
ATOM      1  S   UNL     1      -3.346   6.143  -4.128  0.00  0.00    +0.000 S 
ENDROOT
BRANCH   1   2
ATOM      2  C   UNL     1      -4.153   7.407  -3.117  0.00  0.00    +0.000 C 
ATOM      3  H   UNL     1      -3.666   8.377  -3.250  0.00  0.00    +0.000 HD
ATOM      4  H   UNL     1      -4.075   7.125  -2.063  0.00  0.00    +0.000 HD
ATOM      5  H   UNL     1      -5.214   7.485  -3.373  0.00  0.00    +0.000 HD
ENDBRANCH   1   2
BRANCH   1   6
ATOM      6  S   UNL     1      -2.955   7.178  -5.860  0.00  0.00    +0.000 S 
BRANCH   6   7
ATOM      7  C   UNL     1      -3.717   6.112  -7.107  0.00  0.00    +0.000 C 
ATOM      8  H   UNL     1      -4.776   6.356  -7.229  0.00  0.00    +0.000 HD
ATOM      9  H   UNL     1      -3.641   5.071  -6.780  0.00  0.00    +0.000 HD
ATOM     10  H   UNL     1      -3.199   6.209  -8.065  0.00  0.00    +0.000 HD
ENDBRANCH   6   7
ENDBRANCH   1   6
TORSDOF 3
ENDMDL
MODEL 8
REMARK VINA RESULT:    -1.725      9.163      9.559
REMARK INTER + INTRA:          -1.927
REMARK INTER:                  -1.927
REMARK INTRA:                   0.000
REMARK UNBOUND:                 0.000
REMARK  Name = 12232
REMARK  3 active torsions:
REMARK  status: ('A' for Active; 'I' for Inactive)
REMARK    1  A    between atoms: S_1  and  S_2
REMARK    2  A    between atoms: S_1  and  C_3
REMARK    3  A    between atoms: S_2  and  C_4
REMARK                            x       y       z     vdW  Elec       q    Type
REMARK                         _______ _______ _______ _____ _____    ______ ____
ROOT
ATOM      1  S   UNL     1       7.888  -0.670  -4.542  0.00  0.00    +0.000 S 
ENDROOT
BRANCH   1   2
ATOM      2  C   UNL     1       7.178   0.281  -3.177  0.00  0.00    +0.000 C 
ATOM      3  H   UNL     1       7.504   1.324  -3.222  0.00  0.00    +0.000 HD
ATOM      4  H   UNL     1       7.520  -0.145  -2.229  0.00  0.00    +0.000 HD
ATOM      5  H   UNL     1       6.086   0.231  -3.200  0.00  0.00    +0.000 HD
ENDBRANCH   1   2
BRANCH   1   6
ATOM      6  S   UNL     1       9.607  -1.408  -3.688  0.00  0.00    +0.000 S 
BRANCH   6   7
ATOM      7  C   UNL     1       9.043  -1.817  -2.019  0.00  0.00    +0.000 C 
ATOM      8  H   UNL     1       9.136  -0.952  -1.356  0.00  0.00    +0.000 HD
ATOM      9  H   UNL     1       9.666  -2.622  -1.619  0.00  0.00    +0.000 HD
ATOM     10  H   UNL     1       8.006  -2.162  -2.036  0.00  0.00    +0.000 HD
ENDBRANCH   6   7
ENDBRANCH   1   6
TORSDOF 3
ENDMDL
MODEL 9
REMARK VINA RESULT:    -1.707     29.122     30.069
REMARK INTER + INTRA:          -1.906
REMARK INTER:                  -1.906
REMARK INTRA:                   0.000
REMARK UNBOUND:                 0.000
REMARK  Name = 12232
REMARK  3 active torsions:
REMARK  status: ('A' for Active; 'I' for Inactive)
REMARK    1  A    between atoms: S_1  and  S_2
REMARK    2  A    between atoms: S_1  and  C_3
REMARK    3  A    between atoms: S_2  and  C_4
REMARK                            x       y       z     vdW  Elec       q    Type
REMARK                         _______ _______ _______ _____ _____    ______ ____
ROOT
ATOM      1  S   UNL     1       4.772 -10.776 -24.705  0.00  0.00    +0.000 S 
ENDROOT
BRANCH   1   2
ATOM      2  C   UNL     1       6.147  -9.602 -24.766  0.00  0.00    +0.000 C 
ATOM      3  H   UNL     1       5.880  -8.667 -24.265  0.00  0.00    +0.000 HD
ATOM      4  H   UNL     1       6.378  -9.377 -25.811  0.00  0.00    +0.000 HD
ATOM      5  H   UNL     1       7.040 -10.030 -24.302  0.00  0.00    +0.000 HD
ENDBRANCH   1   2
BRANCH   1   6
ATOM      6  S   UNL     1       5.334 -12.153 -26.123  0.00  0.00    +0.000 S 
BRANCH   6   7
ATOM      7  C   UNL     1       4.806 -13.705 -25.360  0.00  0.00    +0.000 C 
ATOM      8  H   UNL     1       4.483 -13.539 -24.329  0.00  0.00    +0.000 HD
ATOM      9  H   UNL     1       5.650 -14.401 -25.345  0.00  0.00    +0.000 HD
ATOM     10  H   UNL     1       3.996 -14.162 -25.934  0.00  0.00    +0.000 HD
ENDBRANCH   6   7
ENDBRANCH   1   6
TORSDOF 3
ENDMDL
MODEL 10
REMARK VINA RESULT:    -1.701     32.833     33.122
REMARK INTER + INTRA:          -1.900
REMARK INTER:                  -1.900
REMARK INTRA:                   0.000
REMARK UNBOUND:                 0.000
REMARK  Name = 12232
REMARK  3 active torsions:
REMARK  status: ('A' for Active; 'I' for Inactive)
REMARK    1  A    between atoms: S_1  and  S_2
REMARK    2  A    between atoms: S_1  and  C_3
REMARK    3  A    between atoms: S_2  and  C_4
REMARK                            x       y       z     vdW  Elec       q    Type
REMARK                         _______ _______ _______ _____ _____    ______ ____
ROOT
ATOM      1  S   UNL     1     -16.161  -9.905   1.952  0.00  0.00    +0.000 S 
ENDROOT
BRANCH   1   2
ATOM      2  C   UNL     1     -16.223  -8.482   0.838  0.00  0.00    +0.000 C 
ATOM      3  H   UNL     1     -17.255  -8.261   0.551  0.00  0.00    +0.000 HD
ATOM      4  H   UNL     1     -15.658  -8.715  -0.070  0.00  0.00    +0.000 HD
ATOM      5  H   UNL     1     -15.771  -7.604   1.307  0.00  0.00    +0.000 HD
ENDBRANCH   1   2
BRANCH   1   6
ATOM      6  S   UNL     1     -17.631  -9.438   3.311  0.00  0.00    +0.000 S 
BRANCH   6   7
ATOM      7  C   UNL     1     -17.772 -10.979   4.247  0.00  0.00    +0.000 C 
ATOM      8  H   UNL     1     -18.389 -11.703   3.709  0.00  0.00    +0.000 HD
ATOM      9  H   UNL     1     -18.249 -10.770   5.208  0.00  0.00    +0.000 HD
ATOM     10  H   UNL     1     -16.783 -11.404   4.440  0.00  0.00    +0.000 HD
ENDBRANCH   6   7
ENDBRANCH   1   6
TORSDOF 3
ENDMDL
