MODEL 1
REMARK VINA RESULT:    -4.985      0.000      0.000
REMARK INTER + INTRA:          -9.005
REMARK INTER:                  -8.322
REMARK INTRA:                  -0.683
REMARK UNBOUND:                -0.960
REMARK  Name = 8194
REMARK  11 active torsions:
REMARK  status: ('A' for Active; 'I' for Inactive)
REMARK    1  A    between atoms: C_2  and  C_3
REMARK    2  A    between atoms: C_2  and  C_4
REMARK    3  A    between atoms: C_3  and  C_5
REMARK    4  A    between atoms: C_4  and  C_6
REMARK    5  A    between atoms: C_5  and  C_7
REMARK    6  A    between atoms: C_6  and  C_8
REMARK    7  A    between atoms: C_7  and  C_9
REMARK    8  A    between atoms: C_8  and  C_10
REMARK    9  A    between atoms: C_9  and  C_11
REMARK   10  A    between atoms: C_10  and  C_12
REMARK   11  A    between atoms: C_11  and  C_13
REMARK                            x       y       z     vdW  Elec       q    Type
REMARK                         _______ _______ _______ _____ _____    ______ ____
ROOT
ATOM      1  C   UNL     1      11.587   6.378  -2.133  0.00  0.00    +0.000 C 
ATOM      2  H   UNL     1      12.501   6.565  -1.556  0.00  0.00    +0.000 HD
ATOM      3  H   UNL     1      10.989   5.671  -1.543  0.00  0.00    +0.000 HD
ENDROOT
BRANCH   1   4
ATOM      4  C   UNL     1      11.969   5.704  -3.454  0.00  0.00    +0.000 C 
ATOM      5  H   UNL     1      12.699   6.336  -3.977  0.00  0.00    +0.000 HD
ATOM      6  H   UNL     1      11.080   5.653  -4.095  0.00  0.00    +0.000 HD
BRANCH   4   7
ATOM      7  C   UNL     1      12.545   4.298  -3.278  0.00  0.00    +0.000 C 
ATOM      8  H   UNL     1      13.350   4.322  -2.535  0.00  0.00    +0.000 HD
ATOM      9  H   UNL     1      11.766   3.631  -2.890  0.00  0.00    +0.000 HD
BRANCH   7  10
ATOM     10  C   UNL     1      13.081   3.749  -4.603  0.00  0.00    +0.000 C 
ATOM     11  H   UNL     1      12.666   2.751  -4.787  0.00  0.00    +0.000 HD
ATOM     12  H   UNL     1      12.753   4.394  -5.427  0.00  0.00    +0.000 HD
BRANCH  10  13
ATOM     13  C   UNL     1      14.611   3.669  -4.592  0.00  0.00    +0.000 C 
ATOM     14  H   UNL     1      14.919   2.616  -4.599  0.00  0.00    +0.000 HD
ATOM     15  H   UNL     1      14.985   4.096  -3.653  0.00  0.00    +0.000 HD
BRANCH  13  16
ATOM     16  C   UNL     1      15.250   4.395  -5.771  0.00  0.00    +0.000 C 
ATOM     17  H   UNL     1      16.262   4.020  -5.954  0.00  0.00    +0.000 HD
ATOM     18  H   UNL     1      14.657   4.246  -6.679  0.00  0.00    +0.000 HD
BRANCH  16  20
ATOM     19  O   UNL     1      14.477   6.676  -5.879  0.00  0.00    +0.000 OA
ATOM     20  C   UNL     1      15.343   5.880  -5.528  0.00  0.00    +0.000 C 
ATOM     21  H   UNL     1      16.247   6.220  -4.996  0.00  0.00    +0.000 HD
ENDBRANCH  16  20
ENDBRANCH  13  16
ENDBRANCH  10  13
ENDBRANCH   7  10
ENDBRANCH   4   7
ENDBRANCH   1   4
BRANCH   1  22
ATOM     22  C   UNL     1      10.804   7.690  -2.255  0.00  0.00    +0.000 C 
ATOM     23  H   UNL     1      11.510   8.518  -2.385  0.00  0.00    +0.000 HD
ATOM     24  H   UNL     1      10.269   7.875  -1.315  0.00  0.00    +0.000 HD
BRANCH  22  25
ATOM     25  C   UNL     1       9.807   7.693  -3.416  0.00  0.00    +0.000 C 
ATOM     26  H   UNL     1       9.792   6.700  -3.883  0.00  0.00    +0.000 HD
ATOM     27  H   UNL     1       8.799   7.875  -3.023  0.00  0.00    +0.000 HD
BRANCH  25  28
ATOM     28  C   UNL     1      10.125   8.744  -4.486  0.00  0.00    +0.000 C 
ATOM     29  H   UNL     1      11.204   8.939  -4.484  0.00  0.00    +0.000 HD
ATOM     30  H   UNL     1       9.633   9.686  -4.217  0.00  0.00    +0.000 HD
BRANCH  28  31
ATOM     31  C   UNL     1       9.688   8.330  -5.891  0.00  0.00    +0.000 C 
ATOM     32  H   UNL     1      10.569   8.179  -6.525  0.00  0.00    +0.000 HD
ATOM     33  H   UNL     1       9.093   9.132  -6.345  0.00  0.00    +0.000 HD
BRANCH  31  34
ATOM     34  C   UNL     1       8.867   7.049  -5.861  0.00  0.00    +0.000 C 
ATOM     35  H   UNL     1       9.289   6.297  -6.533  0.00  0.00    +0.000 HD
ATOM     36  H   UNL     1       7.833   7.239  -6.163  0.00  0.00    +0.000 HD
ATOM     37  H   UNL     1       8.853   6.632  -4.849  0.00  0.00    +0.000 HD
ENDBRANCH  31  34
ENDBRANCH  28  31
ENDBRANCH  25  28
ENDBRANCH  22  25
ENDBRANCH   1  22
TORSDOF 11
ENDMDL
MODEL 2
REMARK VINA RESULT:    -4.779      7.419      8.651
REMARK INTER + INTRA:          -8.672
REMARK INTER:                  -7.976
REMARK INTRA:                  -0.697
REMARK UNBOUND:                -0.960
REMARK  Name = 8194
REMARK  11 active torsions:
REMARK  status: ('A' for Active; 'I' for Inactive)
REMARK    1  A    between atoms: C_2  and  C_3
REMARK    2  A    between atoms: C_2  and  C_4
REMARK    3  A    between atoms: C_3  and  C_5
REMARK    4  A    between atoms: C_4  and  C_6
REMARK    5  A    between atoms: C_5  and  C_7
REMARK    6  A    between atoms: C_6  and  C_8
REMARK    7  A    between atoms: C_7  and  C_9
REMARK    8  A    between atoms: C_8  and  C_10
REMARK    9  A    between atoms: C_9  and  C_11
REMARK   10  A    between atoms: C_10  and  C_12
REMARK   11  A    between atoms: C_11  and  C_13
REMARK                            x       y       z     vdW  Elec       q    Type
REMARK                         _______ _______ _______ _____ _____    ______ ____
ROOT
ATOM      1  C   UNL     1       8.660  -1.298  -1.222  0.00  0.00    +0.000 C 
ATOM      2  H   UNL     1       9.575  -1.607  -0.702  0.00  0.00    +0.000 HD
ATOM      3  H   UNL     1       7.822  -1.649  -0.607  0.00  0.00    +0.000 HD
ENDROOT
BRANCH   1   4
ATOM      4  C   UNL     1       8.598  -2.012  -2.576  0.00  0.00    +0.000 C 
ATOM      5  H   UNL     1       7.546  -2.180  -2.841  0.00  0.00    +0.000 HD
ATOM      6  H   UNL     1       9.060  -3.002  -2.477  0.00  0.00    +0.000 HD
BRANCH   4   7
ATOM      7  C   UNL     1       9.291  -1.243  -3.703  0.00  0.00    +0.000 C 
ATOM      8  H   UNL     1       9.722  -0.317  -3.304  0.00  0.00    +0.000 HD
ATOM      9  H   UNL     1      10.120  -1.843  -4.097  0.00  0.00    +0.000 HD
BRANCH   7  10
ATOM     10  C   UNL     1       8.311  -0.913  -4.832  0.00  0.00    +0.000 C 
ATOM     11  H   UNL     1       8.449   0.127  -5.152  0.00  0.00    +0.000 HD
ATOM     12  H   UNL     1       8.521  -1.550  -5.698  0.00  0.00    +0.000 HD
BRANCH  10  13
ATOM     13  C   UNL     1       6.860  -1.117  -4.383  0.00  0.00    +0.000 C 
ATOM     14  H   UNL     1       6.799  -1.014  -3.292  0.00  0.00    +0.000 HD
ATOM     15  H   UNL     1       6.555  -2.146  -4.616  0.00  0.00    +0.000 HD
BRANCH  13  16
ATOM     16  C   UNL     1       5.894  -0.139  -5.043  0.00  0.00    +0.000 C 
ATOM     17  H   UNL     1       6.431   0.551  -5.702  0.00  0.00    +0.000 HD
ATOM     18  H   UNL     1       5.152  -0.679  -5.639  0.00  0.00    +0.000 HD
BRANCH  16  20
ATOM     19  O   UNL     1       5.705   1.352  -3.158  0.00  0.00    +0.000 OA
ATOM     20  C   UNL     1       5.147   0.681  -4.021  0.00  0.00    +0.000 C 
ATOM     21  H   UNL     1       4.047   0.654  -4.100  0.00  0.00    +0.000 HD
ENDBRANCH  16  20
ENDBRANCH  13  16
ENDBRANCH  10  13
ENDBRANCH   7  10
ENDBRANCH   4   7
ENDBRANCH   1   4
BRANCH   1  22
ATOM     22  C   UNL     1       8.615   0.233  -1.273  0.00  0.00    +0.000 C 
ATOM     23  H   UNL     1       7.569   0.561  -1.277  0.00  0.00    +0.000 HD
ATOM     24  H   UNL     1       9.056   0.571  -2.220  0.00  0.00    +0.000 HD
BRANCH  22  25
ATOM     25  C   UNL     1       9.347   0.899  -0.106  0.00  0.00    +0.000 C 
ATOM     26  H   UNL     1       9.365   0.211   0.749  0.00  0.00    +0.000 HD
ATOM     27  H   UNL     1      10.391   1.078  -0.391  0.00  0.00    +0.000 HD
BRANCH  25  28
ATOM     28  C   UNL     1       8.711   2.224   0.331  0.00  0.00    +0.000 C 
ATOM     29  H   UNL     1       9.366   3.050   0.030  0.00  0.00    +0.000 HD
ATOM     30  H   UNL     1       8.656   2.248   1.426  0.00  0.00    +0.000 HD
BRANCH  28  31
ATOM     31  C   UNL     1       7.315   2.446  -0.249  0.00  0.00    +0.000 C 
ATOM     32  H   UNL     1       6.634   1.666   0.112  0.00  0.00    +0.000 HD
ATOM     33  H   UNL     1       7.350   2.366  -1.343  0.00  0.00    +0.000 HD
BRANCH  31  34
ATOM     34  C   UNL     1       6.765   3.811   0.138  0.00  0.00    +0.000 C 
ATOM     35  H   UNL     1       5.875   4.056  -0.450  0.00  0.00    +0.000 HD
ATOM     36  H   UNL     1       7.511   4.594  -0.023  0.00  0.00    +0.000 HD
ATOM     37  H   UNL     1       6.486   3.820   1.197  0.00  0.00    +0.000 HD
ENDBRANCH  31  34
ENDBRANCH  28  31
ENDBRANCH  25  28
ENDBRANCH  22  25
ENDBRANCH   1  22
TORSDOF 11
ENDMDL
MODEL 3
REMARK VINA RESULT:    -4.181      5.903      8.091
REMARK INTER + INTRA:          -7.707
REMARK INTER:                  -7.172
REMARK INTRA:                  -0.534
REMARK UNBOUND:                -0.960
REMARK  Name = 8194
REMARK  11 active torsions:
REMARK  status: ('A' for Active; 'I' for Inactive)
REMARK    1  A    between atoms: C_2  and  C_3
REMARK    2  A    between atoms: C_2  and  C_4
REMARK    3  A    between atoms: C_3  and  C_5
REMARK    4  A    between atoms: C_4  and  C_6
REMARK    5  A    between atoms: C_5  and  C_7
REMARK    6  A    between atoms: C_6  and  C_8
REMARK    7  A    between atoms: C_7  and  C_9
REMARK    8  A    between atoms: C_8  and  C_10
REMARK    9  A    between atoms: C_9  and  C_11
REMARK   10  A    between atoms: C_10  and  C_12
REMARK   11  A    between atoms: C_11  and  C_13
REMARK                            x       y       z     vdW  Elec       q    Type
REMARK                         _______ _______ _______ _____ _____    ______ ____
ROOT
ATOM      1  C   UNL     1       9.230   0.661  -0.695  0.00  0.00    +0.000 C 
ATOM      2  H   UNL     1       9.886   0.916   0.147  0.00  0.00    +0.000 HD
ATOM      3  H   UNL     1       9.840   0.758  -1.603  0.00  0.00    +0.000 HD
ENDROOT
BRANCH   1   4
ATOM      4  C   UNL     1       8.094   1.685  -0.763  0.00  0.00    +0.000 C 
ATOM      5  H   UNL     1       7.141   1.152  -0.876  0.00  0.00    +0.000 HD
ATOM      6  H   UNL     1       8.222   2.298  -1.664  0.00  0.00    +0.000 HD
BRANCH   4   7
ATOM      7  C   UNL     1       8.024   2.600   0.462  0.00  0.00    +0.000 C 
ATOM      8  H   UNL     1       7.367   2.153   1.217  0.00  0.00    +0.000 HD
ATOM      9  H   UNL     1       9.021   2.686   0.910  0.00  0.00    +0.000 HD
BRANCH   7  10
ATOM     10  C   UNL     1       7.506   3.991   0.085  0.00  0.00    +0.000 C 
ATOM     11  H   UNL     1       7.426   4.074  -1.005  0.00  0.00    +0.000 HD
ATOM     12  H   UNL     1       6.501   4.133   0.497  0.00  0.00    +0.000 HD
BRANCH  10  13
ATOM     13  C   UNL     1       8.435   5.089   0.612  0.00  0.00    +0.000 C 
ATOM     14  H   UNL     1       9.287   4.628   1.129  0.00  0.00    +0.000 HD
ATOM     15  H   UNL     1       7.900   5.682   1.364  0.00  0.00    +0.000 HD
BRANCH  13  16
ATOM     16  C   UNL     1       8.947   6.010  -0.491  0.00  0.00    +0.000 C 
ATOM     17  H   UNL     1       9.754   5.529  -1.053  0.00  0.00    +0.000 HD
ATOM     18  H   UNL     1       8.140   6.256  -1.188  0.00  0.00    +0.000 HD
BRANCH  16  20
ATOM     19  O   UNL     1       8.993   8.402  -0.197  0.00  0.00    +0.000 OA
ATOM     20  C   UNL     1       9.478   7.306   0.066  0.00  0.00    +0.000 C 
ATOM     21  H   UNL     1      10.341   7.214   0.748  0.00  0.00    +0.000 HD
ENDBRANCH  16  20
ENDBRANCH  13  16
ENDBRANCH  10  13
ENDBRANCH   7  10
ENDBRANCH   4   7
ENDBRANCH   1   4
BRANCH   1  22
ATOM     22  C   UNL     1       8.800  -0.804  -0.556  0.00  0.00    +0.000 C 
ATOM     23  H   UNL     1       7.746  -0.841  -0.257  0.00  0.00    +0.000 HD
ATOM     24  H   UNL     1       9.375  -1.270   0.254  0.00  0.00    +0.000 HD
BRANCH  22  25
ATOM     25  C   UNL     1       8.985  -1.613  -1.842  0.00  0.00    +0.000 C 
ATOM     26  H   UNL     1       9.761  -2.373  -1.682  0.00  0.00    +0.000 HD
ATOM     27  H   UNL     1       8.055  -2.151  -2.065  0.00  0.00    +0.000 HD
BRANCH  25  28
ATOM     28  C   UNL     1       9.368  -0.753  -3.050  0.00  0.00    +0.000 C 
ATOM     29  H   UNL     1      10.406  -0.971  -3.330  0.00  0.00    +0.000 HD
ATOM     30  H   UNL     1       9.335   0.305  -2.759  0.00  0.00    +0.000 HD
BRANCH  28  31
ATOM     31  C   UNL     1       8.461  -0.970  -4.261  0.00  0.00    +0.000 C 
ATOM     32  H   UNL     1       8.267  -2.040  -4.393  0.00  0.00    +0.000 HD
ATOM     33  H   UNL     1       8.964  -0.616  -5.170  0.00  0.00    +0.000 HD
BRANCH  31  34
ATOM     34  C   UNL     1       7.138  -0.236  -4.101  0.00  0.00    +0.000 C 
ATOM     35  H   UNL     1       6.362  -0.686  -4.727  0.00  0.00    +0.000 HD
ATOM     36  H   UNL     1       7.237   0.817  -4.380  0.00  0.00    +0.000 HD
ATOM     37  H   UNL     1       6.804  -0.281  -3.060  0.00  0.00    +0.000 HD
ENDBRANCH  31  34
ENDBRANCH  28  31
ENDBRANCH  25  28
ENDBRANCH  22  25
ENDBRANCH   1  22
TORSDOF 11
ENDMDL
MODEL 4
REMARK VINA RESULT:    -4.151     24.384     25.935
REMARK INTER + INTRA:          -7.658
REMARK INTER:                  -7.072
REMARK INTRA:                  -0.586
REMARK UNBOUND:                -0.960
REMARK  Name = 8194
REMARK  11 active torsions:
REMARK  status: ('A' for Active; 'I' for Inactive)
REMARK    1  A    between atoms: C_2  and  C_3
REMARK    2  A    between atoms: C_2  and  C_4
REMARK    3  A    between atoms: C_3  and  C_5
REMARK    4  A    between atoms: C_4  and  C_6
REMARK    5  A    between atoms: C_5  and  C_7
REMARK    6  A    between atoms: C_6  and  C_8
REMARK    7  A    between atoms: C_7  and  C_9
REMARK    8  A    between atoms: C_8  and  C_10
REMARK    9  A    between atoms: C_9  and  C_11
REMARK   10  A    between atoms: C_10  and  C_12
REMARK   11  A    between atoms: C_11  and  C_13
REMARK                            x       y       z     vdW  Elec       q    Type
REMARK                         _______ _______ _______ _____ _____    ______ ____
ROOT
ATOM      1  C   UNL     1      -1.392 -13.936 -11.738  0.00  0.00    +0.000 C 
ATOM      2  H   UNL     1      -1.987 -13.273 -12.379  0.00  0.00    +0.000 HD
ATOM      3  H   UNL     1      -1.989 -14.111 -10.835  0.00  0.00    +0.000 HD
ENDROOT
BRANCH   1   4
ATOM      4  C   UNL     1      -0.107 -13.206 -11.335  0.00  0.00    +0.000 C 
ATOM      5  H   UNL     1       0.143 -12.471 -12.111  0.00  0.00    +0.000 HD
ATOM      6  H   UNL     1       0.718 -13.929 -11.308  0.00  0.00    +0.000 HD
BRANCH   4   7
ATOM      7  C   UNL     1      -0.205 -12.503  -9.979  0.00  0.00    +0.000 C 
ATOM      8  H   UNL     1       0.666 -12.763  -9.367  0.00  0.00    +0.000 HD
ATOM      9  H   UNL     1      -0.183 -11.417 -10.130  0.00  0.00    +0.000 HD
BRANCH   7  10
ATOM     10  C   UNL     1      -1.489 -12.896  -9.244  0.00  0.00    +0.000 C 
ATOM     11  H   UNL     1      -1.936 -12.010  -8.778  0.00  0.00    +0.000 HD
ATOM     12  H   UNL     1      -2.218 -13.288  -9.962  0.00  0.00    +0.000 HD
BRANCH  10  13
ATOM     13  C   UNL     1      -1.211 -13.950  -8.168  0.00  0.00    +0.000 C 
ATOM     14  H   UNL     1      -0.150 -14.230  -8.199  0.00  0.00    +0.000 HD
ATOM     15  H   UNL     1      -1.780 -14.859  -8.401  0.00  0.00    +0.000 HD
BRANCH  13  16
ATOM     16  C   UNL     1      -1.570 -13.472  -6.764  0.00  0.00    +0.000 C 
ATOM     17  H   UNL     1      -2.547 -12.977  -6.763  0.00  0.00    +0.000 HD
ATOM     18  H   UNL     1      -1.610 -14.318  -6.071  0.00  0.00    +0.000 HD
BRANCH  16  20
ATOM     19  O   UNL     1       0.040 -12.652  -5.168  0.00  0.00    +0.000 OA
ATOM     20  C   UNL     1      -0.553 -12.495  -6.231  0.00  0.00    +0.000 C 
ATOM     21  H   UNL     1      -0.359 -11.615  -6.867  0.00  0.00    +0.000 HD
ENDBRANCH  16  20
ENDBRANCH  13  16
ENDBRANCH  10  13
ENDBRANCH   7  10
ENDBRANCH   4   7
ENDBRANCH   1   4
BRANCH   1  22
ATOM     22  C   UNL     1      -1.199 -15.275 -12.458  0.00  0.00    +0.000 C 
ATOM     23  H   UNL     1      -0.286 -15.229 -13.063  0.00  0.00    +0.000 HD
ATOM     24  H   UNL     1      -2.033 -15.428 -13.155  0.00  0.00    +0.000 HD
BRANCH  22  25
ATOM     25  C   UNL     1      -1.110 -16.468 -11.504  0.00  0.00    +0.000 C 
ATOM     26  H   UNL     1      -0.056 -16.662 -11.266  0.00  0.00    +0.000 HD
ATOM     27  H   UNL     1      -1.607 -16.211 -10.560  0.00  0.00    +0.000 HD
BRANCH  25  28
ATOM     28  C   UNL     1      -1.738 -17.746 -12.070  0.00  0.00    +0.000 C 
ATOM     29  H   UNL     1      -2.764 -17.837 -11.693  0.00  0.00    +0.000 HD
ATOM     30  H   UNL     1      -1.184 -18.613 -11.691  0.00  0.00    +0.000 HD
BRANCH  28  31
ATOM     31  C   UNL     1      -1.756 -17.787 -13.598  0.00  0.00    +0.000 C 
ATOM     32  H   UNL     1      -1.382 -16.838 -13.999  0.00  0.00    +0.000 HD
ATOM     33  H   UNL     1      -2.786 -17.908 -13.954  0.00  0.00    +0.000 HD
BRANCH  31  34
ATOM     34  C   UNL     1      -0.902 -18.928 -14.131  0.00  0.00    +0.000 C 
ATOM     35  H   UNL     1       0.154 -18.643 -14.169  0.00  0.00    +0.000 HD
ATOM     36  H   UNL     1      -1.217 -19.216 -15.139  0.00  0.00    +0.000 HD
ATOM     37  H   UNL     1      -0.994 -19.805 -13.483  0.00  0.00    +0.000 HD
ENDBRANCH  31  34
ENDBRANCH  28  31
ENDBRANCH  25  28
ENDBRANCH  22  25
ENDBRANCH   1  22
TORSDOF 11
ENDMDL
MODEL 5
REMARK VINA RESULT:    -4.129     24.266     25.832
REMARK INTER + INTRA:          -7.624
REMARK INTER:                  -6.921
REMARK INTRA:                  -0.703
REMARK UNBOUND:                -0.960
REMARK  Name = 8194
REMARK  11 active torsions:
REMARK  status: ('A' for Active; 'I' for Inactive)
REMARK    1  A    between atoms: C_2  and  C_3
REMARK    2  A    between atoms: C_2  and  C_4
REMARK    3  A    between atoms: C_3  and  C_5
REMARK    4  A    between atoms: C_4  and  C_6
REMARK    5  A    between atoms: C_5  and  C_7
REMARK    6  A    between atoms: C_6  and  C_8
REMARK    7  A    between atoms: C_7  and  C_9
REMARK    8  A    between atoms: C_8  and  C_10
REMARK    9  A    between atoms: C_9  and  C_11
REMARK   10  A    between atoms: C_10  and  C_12
REMARK   11  A    between atoms: C_11  and  C_13
REMARK                            x       y       z     vdW  Elec       q    Type
REMARK                         _______ _______ _______ _____ _____    ______ ____
ROOT
ATOM      1  C   UNL     1      -0.164 -13.652 -12.737  0.00  0.00    +0.000 C 
ATOM      2  H   UNL     1       0.567 -14.451 -12.909  0.00  0.00    +0.000 HD
ATOM      3  H   UNL     1      -0.114 -12.992 -13.612  0.00  0.00    +0.000 HD
ENDROOT
BRANCH   1   4
ATOM      4  C   UNL     1       0.263 -12.851 -11.502  0.00  0.00    +0.000 C 
ATOM      5  H   UNL     1       0.281 -11.785 -11.760  0.00  0.00    +0.000 HD
ATOM      6  H   UNL     1       1.290 -13.130 -11.237  0.00  0.00    +0.000 HD
BRANCH   4   7
ATOM      7  C   UNL     1      -0.647 -13.068 -10.291  0.00  0.00    +0.000 C 
ATOM      8  H   UNL     1      -1.686 -12.855 -10.569  0.00  0.00    +0.000 HD
ATOM      9  H   UNL     1      -0.601 -14.120  -9.985  0.00  0.00    +0.000 HD
BRANCH   7  10
ATOM     10  C   UNL     1      -0.232 -12.172  -9.121  0.00  0.00    +0.000 C 
ATOM     11  H   UNL     1       0.846 -12.266  -8.945  0.00  0.00    +0.000 HD
ATOM     12  H   UNL     1      -0.430 -11.124  -9.372  0.00  0.00    +0.000 HD
BRANCH  10  13
ATOM     13  C   UNL     1      -0.990 -12.544  -7.842  0.00  0.00    +0.000 C 
ATOM     14  H   UNL     1      -1.847 -11.870  -7.719  0.00  0.00    +0.000 HD
ATOM     15  H   UNL     1      -0.336 -12.377  -6.976  0.00  0.00    +0.000 HD
BRANCH  13  16
ATOM     16  C   UNL     1      -1.475 -13.990  -7.841  0.00  0.00    +0.000 C 
ATOM     17  H   UNL     1      -1.973 -14.231  -8.786  0.00  0.00    +0.000 HD
ATOM     18  H   UNL     1      -0.632 -14.676  -7.711  0.00  0.00    +0.000 HD
BRANCH  16  20
ATOM     19  O   UNL     1      -2.169 -14.902  -5.721  0.00  0.00    +0.000 OA
ATOM     20  C   UNL     1      -2.451 -14.251  -6.722  0.00  0.00    +0.000 C 
ATOM     21  H   UNL     1      -3.451 -13.805  -6.850  0.00  0.00    +0.000 HD
ENDBRANCH  16  20
ENDBRANCH  13  16
ENDBRANCH  10  13
ENDBRANCH   7  10
ENDBRANCH   4   7
ENDBRANCH   1   4
BRANCH   1  22
ATOM     22  C   UNL     1      -1.565 -14.270 -12.678  0.00  0.00    +0.000 C 
ATOM     23  H   UNL     1      -2.196 -13.802 -13.442  0.00  0.00    +0.000 HD
ATOM     24  H   UNL     1      -2.018 -14.035 -11.706  0.00  0.00    +0.000 HD
BRANCH  22  25
ATOM     25  C   UNL     1      -1.566 -15.787 -12.885  0.00  0.00    +0.000 C 
ATOM     26  H   UNL     1      -2.512 -16.201 -12.513  0.00  0.00    +0.000 HD
ATOM     27  H   UNL     1      -1.527 -16.002 -13.960  0.00  0.00    +0.000 HD
BRANCH  25  28
ATOM     28  C   UNL     1      -0.400 -16.495 -12.188  0.00  0.00    +0.000 C 
ATOM     29  H   UNL     1       0.035 -15.818 -11.442  0.00  0.00    +0.000 HD
ATOM     30  H   UNL     1       0.386 -16.699 -12.926  0.00  0.00    +0.000 HD
BRANCH  28  31
ATOM     31  C   UNL     1      -0.804 -17.803 -11.509  0.00  0.00    +0.000 C 
ATOM     32  H   UNL     1       0.023 -18.172 -10.890  0.00  0.00    +0.000 HD
ATOM     33  H   UNL     1      -1.009 -18.568 -12.268  0.00  0.00    +0.000 HD
BRANCH  31  34
ATOM     34  C   UNL     1      -2.037 -17.617 -10.637  0.00  0.00    +0.000 C 
ATOM     35  H   UNL     1      -2.412 -18.580 -10.278  0.00  0.00    +0.000 HD
ATOM     36  H   UNL     1      -2.839 -17.121 -11.193  0.00  0.00    +0.000 HD
ATOM     37  H   UNL     1      -1.796 -17.000  -9.766  0.00  0.00    +0.000 HD
ENDBRANCH  31  34
ENDBRANCH  28  31
ENDBRANCH  25  28
ENDBRANCH  22  25
ENDBRANCH   1  22
TORSDOF 11
ENDMDL
MODEL 6
REMARK VINA RESULT:    -4.050      6.590      9.139
REMARK INTER + INTRA:          -7.495
REMARK INTER:                  -6.989
REMARK INTRA:                  -0.506
REMARK UNBOUND:                -0.960
REMARK  Name = 8194
REMARK  11 active torsions:
REMARK  status: ('A' for Active; 'I' for Inactive)
REMARK    1  A    between atoms: C_2  and  C_3
REMARK    2  A    between atoms: C_2  and  C_4
REMARK    3  A    between atoms: C_3  and  C_5
REMARK    4  A    between atoms: C_4  and  C_6
REMARK    5  A    between atoms: C_5  and  C_7
REMARK    6  A    between atoms: C_6  and  C_8
REMARK    7  A    between atoms: C_7  and  C_9
REMARK    8  A    between atoms: C_8  and  C_10
REMARK    9  A    between atoms: C_9  and  C_11
REMARK   10  A    between atoms: C_10  and  C_12
REMARK   11  A    between atoms: C_11  and  C_13
REMARK                            x       y       z     vdW  Elec       q    Type
REMARK                         _______ _______ _______ _____ _____    ______ ____
ROOT
ATOM      1  C   UNL     1       8.759   0.594  -0.656  0.00  0.00    +0.000 C 
ATOM      2  H   UNL     1       9.702   0.767  -0.123  0.00  0.00    +0.000 HD
ATOM      3  H   UNL     1       9.030   0.348  -1.691  0.00  0.00    +0.000 HD
ENDROOT
BRANCH   1   4
ATOM      4  C   UNL     1       7.951   1.895  -0.663  0.00  0.00    +0.000 C 
ATOM      5  H   UNL     1       6.889   1.654  -0.526  0.00  0.00    +0.000 HD
ATOM      6  H   UNL     1       8.043   2.365  -1.650  0.00  0.00    +0.000 HD
BRANCH   4   7
ATOM      7  C   UNL     1       8.390   2.891   0.413  0.00  0.00    +0.000 C 
ATOM      8  H   UNL     1       8.281   2.434   1.403  0.00  0.00    +0.000 HD
ATOM      9  H   UNL     1       9.452   3.127   0.279  0.00  0.00    +0.000 HD
BRANCH   7  10
ATOM     10  C   UNL     1       7.564   4.178   0.345  0.00  0.00    +0.000 C 
ATOM     11  H   UNL     1       7.177   4.318  -0.672  0.00  0.00    +0.000 HD
ATOM     12  H   UNL     1       6.699   4.095   1.013  0.00  0.00    +0.000 HD
BRANCH  10  13
ATOM     13  C   UNL     1       8.403   5.397   0.741  0.00  0.00    +0.000 C 
ATOM     14  H   UNL     1       9.173   5.089   1.460  0.00  0.00    +0.000 HD
ATOM     15  H   UNL     1       7.762   6.119   1.263  0.00  0.00    +0.000 HD
BRANCH  13  16
ATOM     16  C   UNL     1       9.063   6.075  -0.455  0.00  0.00    +0.000 C 
ATOM     17  H   UNL     1       9.964   5.531  -0.759  0.00  0.00    +0.000 HD
ATOM     18  H   UNL     1       8.375   6.106  -1.305  0.00  0.00    +0.000 HD
BRANCH  16  20
ATOM     19  O   UNL     1       8.963   8.472  -0.690  0.00  0.00    +0.000 OA
ATOM     20  C   UNL     1       9.462   7.495  -0.141  0.00  0.00    +0.000 C 
ATOM     21  H   UNL     1      10.238   7.611   0.635  0.00  0.00    +0.000 HD
ENDBRANCH  16  20
ENDBRANCH  13  16
ENDBRANCH  10  13
ENDBRANCH   7  10
ENDBRANCH   4   7
ENDBRANCH   1   4
BRANCH   1  22
ATOM     22  C   UNL     1       8.060  -0.622  -0.038  0.00  0.00    +0.000 C 
ATOM     23  H   UNL     1       8.341  -1.521  -0.599  0.00  0.00    +0.000 HD
ATOM     24  H   UNL     1       6.975  -0.505  -0.150  0.00  0.00    +0.000 HD
BRANCH  22  25
ATOM     25  C   UNL     1       8.398  -0.827   1.441  0.00  0.00    +0.000 C 
ATOM     26  H   UNL     1       7.745  -0.191   2.052  0.00  0.00    +0.000 HD
ATOM     27  H   UNL     1       8.179  -1.866   1.718  0.00  0.00    +0.000 HD
BRANCH  25  28
ATOM     28  C   UNL     1       9.860  -0.515   1.778  0.00  0.00    +0.000 C 
ATOM     29  H   UNL     1       9.939   0.534   2.087  0.00  0.00    +0.000 HD
ATOM     30  H   UNL     1      10.465  -0.623   0.869  0.00  0.00    +0.000 HD
BRANCH  28  31
ATOM     31  C   UNL     1      10.433  -1.411   2.875  0.00  0.00    +0.000 C 
ATOM     32  H   UNL     1      10.111  -1.048   3.858  0.00  0.00    +0.000 HD
ATOM     33  H   UNL     1      11.529  -1.367   2.855  0.00  0.00    +0.000 HD
BRANCH  31  34
ATOM     34  C   UNL     1       9.984  -2.855   2.702  0.00  0.00    +0.000 C 
ATOM     35  H   UNL     1      10.041  -3.399   3.650  0.00  0.00    +0.000 HD
ATOM     36  H   UNL     1      10.608  -3.374   1.969  0.00  0.00    +0.000 HD
ATOM     37  H   UNL     1       8.948  -2.889   2.352  0.00  0.00    +0.000 HD
ENDBRANCH  31  34
ENDBRANCH  28  31
ENDBRANCH  25  28
ENDBRANCH  22  25
ENDBRANCH   1  22
TORSDOF 11
ENDMDL
MODEL 7
REMARK VINA RESULT:    -3.933     32.739     34.572
REMARK INTER + INTRA:          -7.307
REMARK INTER:                  -6.406
REMARK INTRA:                  -0.902
REMARK UNBOUND:                -0.960
REMARK  Name = 8194
REMARK  11 active torsions:
REMARK  status: ('A' for Active; 'I' for Inactive)
REMARK    1  A    between atoms: C_2  and  C_3
REMARK    2  A    between atoms: C_2  and  C_4
REMARK    3  A    between atoms: C_3  and  C_5
REMARK    4  A    between atoms: C_4  and  C_6
REMARK    5  A    between atoms: C_5  and  C_7
REMARK    6  A    between atoms: C_6  and  C_8
REMARK    7  A    between atoms: C_7  and  C_9
REMARK    8  A    between atoms: C_8  and  C_10
REMARK    9  A    between atoms: C_9  and  C_11
REMARK   10  A    between atoms: C_10  and  C_12
REMARK   11  A    between atoms: C_11  and  C_13
REMARK                            x       y       z     vdW  Elec       q    Type
REMARK                         _______ _______ _______ _____ _____    ______ ____
ROOT
ATOM      1  C   UNL     1     -15.705 -11.000   0.058  0.00  0.00    +0.000 C 
ATOM      2  H   UNL     1     -16.778 -11.059   0.278  0.00  0.00    +0.000 HD
ATOM      3  H   UNL     1     -15.257 -11.921   0.453  0.00  0.00    +0.000 HD
ENDROOT
BRANCH   1   4
ATOM      4  C   UNL     1     -15.111  -9.810   0.816  0.00  0.00    +0.000 C 
ATOM      5  H   UNL     1     -14.467  -9.240   0.134  0.00  0.00    +0.000 HD
ATOM      6  H   UNL     1     -14.465 -10.187   1.619  0.00  0.00    +0.000 HD
BRANCH   4   7
ATOM      7  C   UNL     1     -16.168  -8.879   1.415  0.00  0.00    +0.000 C 
ATOM      8  H   UNL     1     -15.735  -8.325   2.256  0.00  0.00    +0.000 HD
ATOM      9  H   UNL     1     -16.472  -8.142   0.663  0.00  0.00    +0.000 HD
BRANCH   7  10
ATOM     10  C   UNL     1     -17.392  -9.666   1.889  0.00  0.00    +0.000 C 
ATOM     11  H   UNL     1     -18.293  -9.286   1.394  0.00  0.00    +0.000 HD
ATOM     12  H   UNL     1     -17.285 -10.719   1.605  0.00  0.00    +0.000 HD
BRANCH  10  13
ATOM     13  C   UNL     1     -17.565  -9.560   3.408  0.00  0.00    +0.000 C 
ATOM     14  H   UNL     1     -18.598  -9.265   3.637  0.00  0.00    +0.000 HD
ATOM     15  H   UNL     1     -16.921  -8.756   3.787  0.00  0.00    +0.000 HD
BRANCH  13  16
ATOM     16  C   UNL     1     -17.235 -10.861   4.133  0.00  0.00    +0.000 C 
ATOM     17  H   UNL     1     -16.628 -11.514   3.498  0.00  0.00    +0.000 HD
ATOM     18  H   UNL     1     -16.674 -10.654   5.051  0.00  0.00    +0.000 HD
BRANCH  16  20
ATOM     19  O   UNL     1     -18.774 -11.881   5.683  0.00  0.00    +0.000 OA
ATOM     20  C   UNL     1     -18.481 -11.615   4.521  0.00  0.00    +0.000 C 
ATOM     21  H   UNL     1     -19.136 -11.914   3.685  0.00  0.00    +0.000 HD
ENDBRANCH  16  20
ENDBRANCH  13  16
ENDBRANCH  10  13
ENDBRANCH   7  10
ENDBRANCH   4   7
ENDBRANCH   1   4
BRANCH   1  22
ATOM     22  C   UNL     1     -15.515 -10.984  -1.463  0.00  0.00    +0.000 C 
ATOM     23  H   UNL     1     -14.948 -11.872  -1.763  0.00  0.00    +0.000 HD
ATOM     24  H   UNL     1     -14.906 -10.113  -1.737  0.00  0.00    +0.000 HD
BRANCH  22  25
ATOM     25  C   UNL     1     -16.834 -10.944  -2.237  0.00  0.00    +0.000 C 
ATOM     26  H   UNL     1     -16.624 -11.011  -3.312  0.00  0.00    +0.000 HD
ATOM     27  H   UNL     1     -17.431 -11.826  -1.975  0.00  0.00    +0.000 HD
BRANCH  25  28
ATOM     28  C   UNL     1     -17.659  -9.681  -1.966  0.00  0.00    +0.000 C 
ATOM     29  H   UNL     1     -17.709  -9.083  -2.883  0.00  0.00    +0.000 HD
ATOM     30  H   UNL     1     -17.139  -9.070  -1.218  0.00  0.00    +0.000 HD
BRANCH  28  31
ATOM     31  C   UNL     1     -19.077  -9.977  -1.477  0.00  0.00    +0.000 C 
ATOM     32  H   UNL     1     -19.273  -9.424  -0.551  0.00  0.00    +0.000 HD
ATOM     33  H   UNL     1     -19.174 -11.045  -1.246  0.00  0.00    +0.000 HD
BRANCH  31  34
ATOM     34  C   UNL     1     -20.115  -9.591  -2.521  0.00  0.00    +0.000 C 
ATOM     35  H   UNL     1     -19.929 -10.108  -3.467  0.00  0.00    +0.000 HD
ATOM     36  H   UNL     1     -20.101  -8.514  -2.708  0.00  0.00    +0.000 HD
ATOM     37  H   UNL     1     -21.117  -9.863  -2.176  0.00  0.00    +0.000 HD
ENDBRANCH  31  34
ENDBRANCH  28  31
ENDBRANCH  25  28
ENDBRANCH  22  25
ENDBRANCH   1  22
TORSDOF 11
ENDMDL
MODEL 8
REMARK VINA RESULT:    -3.921     34.981     36.596
REMARK INTER + INTRA:          -7.288
REMARK INTER:                  -6.671
REMARK INTRA:                  -0.617
REMARK UNBOUND:                -0.960
REMARK  Name = 8194
REMARK  11 active torsions:
REMARK  status: ('A' for Active; 'I' for Inactive)
REMARK    1  A    between atoms: C_2  and  C_3
REMARK    2  A    between atoms: C_2  and  C_4
REMARK    3  A    between atoms: C_3  and  C_5
REMARK    4  A    between atoms: C_4  and  C_6
REMARK    5  A    between atoms: C_5  and  C_7
REMARK    6  A    between atoms: C_6  and  C_8
REMARK    7  A    between atoms: C_7  and  C_9
REMARK    8  A    between atoms: C_8  and  C_10
REMARK    9  A    between atoms: C_9  and  C_11
REMARK   10  A    between atoms: C_10  and  C_12
REMARK   11  A    between atoms: C_11  and  C_13
REMARK                            x       y       z     vdW  Elec       q    Type
REMARK                         _______ _______ _______ _____ _____    ______ ____
ROOT
ATOM      1  C   UNL     1     -19.508 -12.988   3.822  0.00  0.00    +0.000 C 
ATOM      2  H   UNL     1     -19.564 -13.864   3.165  0.00  0.00    +0.000 HD
ATOM      3  H   UNL     1     -20.430 -12.416   3.655  0.00  0.00    +0.000 HD
ENDROOT
BRANCH   1   4
ATOM      4  C   UNL     1     -18.319 -12.124   3.393  0.00  0.00    +0.000 C 
ATOM      5  H   UNL     1     -17.717 -12.684   2.666  0.00  0.00    +0.000 HD
ATOM      6  H   UNL     1     -17.677 -11.945   4.264  0.00  0.00    +0.000 HD
BRANCH   4   7
ATOM      7  C   UNL     1     -18.729 -10.780   2.785  0.00  0.00    +0.000 C 
ATOM      8  H   UNL     1     -18.490 -10.773   1.716  0.00  0.00    +0.000 HD
ATOM      9  H   UNL     1     -19.814 -10.655   2.877  0.00  0.00    +0.000 HD
BRANCH   7  10
ATOM     10  C   UNL     1     -18.016  -9.618   3.482  0.00  0.00    +0.000 C 
ATOM     11  H   UNL     1     -18.561  -8.685   3.300  0.00  0.00    +0.000 HD
ATOM     12  H   UNL     1     -18.013  -9.785   4.565  0.00  0.00    +0.000 HD
BRANCH  10  13
ATOM     13  C   UNL     1     -16.576  -9.471   2.982  0.00  0.00    +0.000 C 
ATOM     14  H   UNL     1     -16.158 -10.466   2.779  0.00  0.00    +0.000 HD
ATOM     15  H   UNL     1     -15.962  -9.033   3.779  0.00  0.00    +0.000 HD
BRANCH  13  16
ATOM     16  C   UNL     1     -16.470  -8.609   1.728  0.00  0.00    +0.000 C 
ATOM     17  H   UNL     1     -17.460  -8.269   1.408  0.00  0.00    +0.000 HD
ATOM     18  H   UNL     1     -15.847  -7.730   1.920  0.00  0.00    +0.000 HD
BRANCH  16  20
ATOM     19  O   UNL     1     -14.693  -9.783   0.598  0.00  0.00    +0.000 OA
ATOM     20  C   UNL     1     -15.847  -9.366   0.582  0.00  0.00    +0.000 C 
ATOM     21  H   UNL     1     -16.503  -9.537  -0.288  0.00  0.00    +0.000 HD
ENDBRANCH  16  20
ENDBRANCH  13  16
ENDBRANCH  10  13
ENDBRANCH   7  10
ENDBRANCH   4   7
ENDBRANCH   1   4
BRANCH   1  22
ATOM     22  C   UNL     1     -19.493 -13.465   5.279  0.00  0.00    +0.000 C 
ATOM     23  H   UNL     1     -18.684 -14.194   5.409  0.00  0.00    +0.000 HD
ATOM     24  H   UNL     1     -20.431 -13.993   5.491  0.00  0.00    +0.000 HD
BRANCH  22  25
ATOM     25  C   UNL     1     -19.311 -12.328   6.287  0.00  0.00    +0.000 C 
ATOM     26  H   UNL     1     -18.498 -12.584   6.978  0.00  0.00    +0.000 HD
ATOM     27  H   UNL     1     -19.000 -11.421   5.753  0.00  0.00    +0.000 HD
BRANCH  25  28
ATOM     28  C   UNL     1     -20.578 -12.025   7.094  0.00  0.00    +0.000 C 
ATOM     29  H   UNL     1     -21.072 -11.144   6.668  0.00  0.00    +0.000 HD
ATOM     30  H   UNL     1     -20.292 -11.762   8.120  0.00  0.00    +0.000 HD
BRANCH  28  31
ATOM     31  C   UNL     1     -21.567 -13.191   7.130  0.00  0.00    +0.000 C 
ATOM     32  H   UNL     1     -21.390 -13.800   8.024  0.00  0.00    +0.000 HD
ATOM     33  H   UNL     1     -21.409 -13.838   6.258  0.00  0.00    +0.000 HD
BRANCH  31  34
ATOM     34  C   UNL     1     -23.006 -12.697   7.136  0.00  0.00    +0.000 C 
ATOM     35  H   UNL     1     -23.702 -13.517   6.936  0.00  0.00    +0.000 HD
ATOM     36  H   UNL     1     -23.158 -11.923   6.378  0.00  0.00    +0.000 HD
ATOM     37  H   UNL     1     -23.255 -12.269   8.112  0.00  0.00    +0.000 HD
ENDBRANCH  31  34
ENDBRANCH  28  31
ENDBRANCH  25  28
ENDBRANCH  22  25
ENDBRANCH   1  22
TORSDOF 11
ENDMDL
MODEL 9
REMARK VINA RESULT:    -3.901     24.685     25.947
REMARK INTER + INTRA:          -7.255
REMARK INTER:                  -6.295
REMARK INTRA:                  -0.960
REMARK UNBOUND:                -0.960
REMARK  Name = 8194
REMARK  11 active torsions:
REMARK  status: ('A' for Active; 'I' for Inactive)
REMARK    1  A    between atoms: C_2  and  C_3
REMARK    2  A    between atoms: C_2  and  C_4
REMARK    3  A    between atoms: C_3  and  C_5
REMARK    4  A    between atoms: C_4  and  C_6
REMARK    5  A    between atoms: C_5  and  C_7
REMARK    6  A    between atoms: C_6  and  C_8
REMARK    7  A    between atoms: C_7  and  C_9
REMARK    8  A    between atoms: C_8  and  C_10
REMARK    9  A    between atoms: C_9  and  C_11
REMARK   10  A    between atoms: C_10  and  C_12
REMARK   11  A    between atoms: C_11  and  C_13
REMARK                            x       y       z     vdW  Elec       q    Type
REMARK                         _______ _______ _______ _____ _____    ______ ____
ROOT
ATOM      1  C   UNL     1      -1.706 -12.943  -7.835  0.00  0.00    +0.000 C 
ATOM      2  H   UNL     1      -2.524 -12.219  -7.729  0.00  0.00    +0.000 HD
ATOM      3  H   UNL     1      -1.977 -13.596  -8.674  0.00  0.00    +0.000 HD
ENDROOT
BRANCH   1   4
ATOM      4  C   UNL     1      -1.635 -13.794  -6.563  0.00  0.00    +0.000 C 
ATOM      5  H   UNL     1      -2.217 -13.302  -5.774  0.00  0.00    +0.000 HD
ATOM      6  H   UNL     1      -0.595 -13.827  -6.216  0.00  0.00    +0.000 HD
BRANCH   4   7
ATOM      7  C   UNL     1      -2.146 -15.224  -6.757  0.00  0.00    +0.000 C 
ATOM      8  H   UNL     1      -1.405 -15.934  -6.374  0.00  0.00    +0.000 HD
ATOM      9  H   UNL     1      -3.063 -15.365  -6.172  0.00  0.00    +0.000 HD
BRANCH   7  10
ATOM     10  C   UNL     1      -2.427 -15.515  -8.233  0.00  0.00    +0.000 C 
ATOM     11  H   UNL     1      -3.422 -15.963  -8.341  0.00  0.00    +0.000 HD
ATOM     12  H   UNL     1      -2.430 -14.577  -8.799  0.00  0.00    +0.000 HD
BRANCH  10  13
ATOM     13  C   UNL     1      -1.377 -16.465  -8.820  0.00  0.00    +0.000 C 
ATOM     14  H   UNL     1      -0.999 -17.123  -8.027  0.00  0.00    +0.000 HD
ATOM     15  H   UNL     1      -0.519 -15.877  -9.171  0.00  0.00    +0.000 HD
BRANCH  13  16
ATOM     16  C   UNL     1      -1.919 -17.310  -9.968  0.00  0.00    +0.000 C 
ATOM     17  H   UNL     1      -2.309 -16.671 -10.768  0.00  0.00    +0.000 HD
ATOM     18  H   UNL     1      -1.127 -17.940 -10.385  0.00  0.00    +0.000 HD
BRANCH  16  20
ATOM     19  O   UNL     1      -3.860 -18.704 -10.280  0.00  0.00    +0.000 OA
ATOM     20  C   UNL     1      -3.033 -18.218  -9.515  0.00  0.00    +0.000 C 
ATOM     21  H   UNL     1      -3.060 -18.436  -8.434  0.00  0.00    +0.000 HD
ENDBRANCH  16  20
ENDBRANCH  13  16
ENDBRANCH  10  13
ENDBRANCH   7  10
ENDBRANCH   4   7
ENDBRANCH   1   4
BRANCH   1  22
ATOM     22  C   UNL     1      -0.424 -12.188  -8.204  0.00  0.00    +0.000 C 
ATOM     23  H   UNL     1       0.412 -12.597  -7.625  0.00  0.00    +0.000 HD
ATOM     24  H   UNL     1      -0.531 -11.137  -7.906  0.00  0.00    +0.000 HD
BRANCH  22  25
ATOM     25  C   UNL     1      -0.087 -12.262  -9.695  0.00  0.00    +0.000 C 
ATOM     26  H   UNL     1      -0.184 -11.262 -10.137  0.00  0.00    +0.000 HD
ATOM     27  H   UNL     1       0.963 -12.559  -9.811  0.00  0.00    +0.000 HD
BRANCH  25  28
ATOM     28  C   UNL     1      -0.974 -13.241 -10.470  0.00  0.00    +0.000 C 
ATOM     29  H   UNL     1      -1.978 -12.811 -10.572  0.00  0.00    +0.000 HD
ATOM     30  H   UNL     1      -1.083 -14.163  -9.884  0.00  0.00    +0.000 HD
BRANCH  28  31
ATOM     31  C   UNL     1      -0.429 -13.587 -11.855  0.00  0.00    +0.000 C 
ATOM     32  H   UNL     1       0.490 -14.176 -11.756  0.00  0.00    +0.000 HD
ATOM     33  H   UNL     1      -0.170 -12.666 -12.392  0.00  0.00    +0.000 HD
BRANCH  31  34
ATOM     34  C   UNL     1      -1.444 -14.376 -12.669  0.00  0.00    +0.000 C 
ATOM     35  H   UNL     1      -2.262 -14.733 -12.036  0.00  0.00    +0.000 HD
ATOM     36  H   UNL     1      -0.976 -15.241 -13.147  0.00  0.00    +0.000 HD
ATOM     37  H   UNL     1      -1.872 -13.745 -13.454  0.00  0.00    +0.000 HD
ENDBRANCH  31  34
ENDBRANCH  28  31
ENDBRANCH  25  28
ENDBRANCH  22  25
ENDBRANCH   1  22
TORSDOF 11
ENDMDL
MODEL 10
REMARK VINA RESULT:    -3.880      8.776     10.724
REMARK INTER + INTRA:          -7.222
REMARK INTER:                  -6.660
REMARK INTRA:                  -0.562
REMARK UNBOUND:                -0.960
REMARK  Name = 8194
REMARK  11 active torsions:
REMARK  status: ('A' for Active; 'I' for Inactive)
REMARK    1  A    between atoms: C_2  and  C_3
REMARK    2  A    between atoms: C_2  and  C_4
REMARK    3  A    between atoms: C_3  and  C_5
REMARK    4  A    between atoms: C_4  and  C_6
REMARK    5  A    between atoms: C_5  and  C_7
REMARK    6  A    between atoms: C_6  and  C_8
REMARK    7  A    between atoms: C_7  and  C_9
REMARK    8  A    between atoms: C_8  and  C_10
REMARK    9  A    between atoms: C_9  and  C_11
REMARK   10  A    between atoms: C_10  and  C_12
REMARK   11  A    between atoms: C_11  and  C_13
REMARK                            x       y       z     vdW  Elec       q    Type
REMARK                         _______ _______ _______ _____ _____    ______ ____
ROOT
ATOM      1  C   UNL     1       9.357  -1.706   1.251  0.00  0.00    +0.000 C 
ATOM      2  H   UNL     1      10.093  -2.458   0.942  0.00  0.00    +0.000 HD
ATOM      3  H   UNL     1       8.540  -2.255   1.737  0.00  0.00    +0.000 HD
ENDROOT
BRANCH   1   4
ATOM      4  C   UNL     1       8.800  -1.019   0.000  0.00  0.00    +0.000 C 
ATOM      5  H   UNL     1       8.064  -1.681  -0.472  0.00  0.00    +0.000 HD
ATOM      6  H   UNL     1       9.614  -0.885  -0.723  0.00  0.00    +0.000 HD
BRANCH   4   7
ATOM      7  C   UNL     1       8.154   0.339   0.287  0.00  0.00    +0.000 C 
ATOM      8  H   UNL     1       7.104   0.193   0.566  0.00  0.00    +0.000 HD
ATOM      9  H   UNL     1       8.655   0.807   1.143  0.00  0.00    +0.000 HD
BRANCH   7  10
ATOM     10  C   UNL     1       8.243   1.262  -0.931  0.00  0.00    +0.000 C 
ATOM     11  H   UNL     1       8.379   2.299  -0.602  0.00  0.00    +0.000 HD
ATOM     12  H   UNL     1       9.119   0.994  -1.532  0.00  0.00    +0.000 HD
BRANCH  10  13
ATOM     13  C   UNL     1       6.981   1.164  -1.794  0.00  0.00    +0.000 C 
ATOM     14  H   UNL     1       6.615   2.175  -2.019  0.00  0.00    +0.000 HD
ATOM     15  H   UNL     1       6.189   0.669  -1.216  0.00  0.00    +0.000 HD
BRANCH  13  16
ATOM     16  C   UNL     1       7.211   0.404  -3.096  0.00  0.00    +0.000 C 
ATOM     17  H   UNL     1       7.952   0.917  -3.717  0.00  0.00    +0.000 HD
ATOM     18  H   UNL     1       7.576  -0.607  -2.888  0.00  0.00    +0.000 HD
BRANCH  16  20
ATOM     19  O   UNL     1       5.037   1.103  -3.868  0.00  0.00    +0.000 OA
ATOM     20  C   UNL     1       5.942   0.274  -3.898  0.00  0.00    +0.000 C 
ATOM     21  H   UNL     1       5.872  -0.622  -4.538  0.00  0.00    +0.000 HD
ENDBRANCH  16  20
ENDBRANCH  13  16
ENDBRANCH  10  13
ENDBRANCH   7  10
ENDBRANCH   4   7
ENDBRANCH   1   4
BRANCH   1  22
ATOM     22  C   UNL     1      10.003  -0.781   2.288  0.00  0.00    +0.000 C 
ATOM     23  H   UNL     1       9.882   0.260   1.964  0.00  0.00    +0.000 HD
ATOM     24  H   UNL     1      11.082  -0.979   2.320  0.00  0.00    +0.000 HD
BRANCH  22  25
ATOM     25  C   UNL     1       9.415  -0.942   3.692  0.00  0.00    +0.000 C 
ATOM     26  H   UNL     1      10.070  -1.592   4.285  0.00  0.00    +0.000 HD
ATOM     27  H   UNL     1       9.403   0.036   4.190  0.00  0.00    +0.000 HD
BRANCH  25  28
ATOM     28  C   UNL     1       7.998  -1.524   3.693  0.00  0.00    +0.000 C 
ATOM     29  H   UNL     1       7.888  -2.199   2.836  0.00  0.00    +0.000 HD
ATOM     30  H   UNL     1       7.278  -0.708   3.547  0.00  0.00    +0.000 HD
BRANCH  28  31
ATOM     31  C   UNL     1       7.652  -2.276   4.978  0.00  0.00    +0.000 C 
ATOM     32  H   UNL     1       8.199  -3.226   5.011  0.00  0.00    +0.000 HD
ATOM     33  H   UNL     1       6.582  -2.515   4.991  0.00  0.00    +0.000 HD
BRANCH  31  34
ATOM     34  C   UNL     1       7.999  -1.455   6.211  0.00  0.00    +0.000 C 
ATOM     35  H   UNL     1       8.298  -2.102   7.041  0.00  0.00    +0.000 HD
ATOM     36  H   UNL     1       7.145  -0.852   6.534  0.00  0.00    +0.000 HD
ATOM     37  H   UNL     1       8.830  -0.777   5.992  0.00  0.00    +0.000 HD
ENDBRANCH  31  34
ENDBRANCH  28  31
ENDBRANCH  25  28
ENDBRANCH  22  25
ENDBRANCH   1  22
TORSDOF 11
ENDMDL
