MODEL 1
REMARK VINA RESULT:    -3.342      0.000      0.000
REMARK INTER + INTRA:          -4.336
REMARK INTER:                  -4.248
REMARK INTRA:                  -0.088
REMARK UNBOUND:                -0.213
REMARK  Name = 429065
REMARK  5 active torsions:
REMARK  status: ('A' for Active; 'I' for Inactive)
REMARK    1  A    between atoms: O_1  and  C_3
REMARK    2  A    between atoms: O_1  and  C_5
REMARK    3  A    between atoms: C_3  and  C_4
REMARK    4  A    between atoms: C_5  and  C_6
REMARK    5  A    between atoms: C_7  and  C_8
REMARK                            x       y       z     vdW  Elec       q    Type
REMARK                         _______ _______ _______ _____ _____    ______ ____
ROOT
ATOM      1  O   UNL     1       0.475 -12.625 -12.090  0.00  0.00    +0.000 OA
ATOM      2  C   UNL     1      -0.396 -13.366 -11.660  0.00  0.00    +0.000 C 
ENDROOT
BRANCH   2   3
ATOM      3  C   UNL     1      -1.037 -14.463 -12.416  0.00  0.00    +0.000 C 
ATOM      4  C   UNL     1      -0.907 -15.729 -11.997  0.00  0.00    +0.000 C 
ATOM      5  H   UNL     1      -1.607 -14.217 -13.305  0.00  0.00    +0.000 HD
ATOM      6  H   UNL     1      -0.332 -15.960 -11.105  0.00  0.00    +0.000 HD
BRANCH   4   7
ATOM      7  C   UNL     1      -1.521 -16.894 -12.702  0.00  0.00    +0.000 C 
ATOM      8  H   UNL     1      -2.610 -16.858 -12.602  0.00  0.00    +0.000 HD
ATOM      9  H   UNL     1      -1.172 -17.852 -12.303  0.00  0.00    +0.000 HD
ATOM     10  H   UNL     1      -1.272 -16.857 -13.767  0.00  0.00    +0.000 HD
ENDBRANCH   4   7
ENDBRANCH   2   3
BRANCH   2  11
ATOM     11  O   UNL     1      -0.953 -13.339 -10.419  0.00  0.00    +0.000 OA
BRANCH  11  12
ATOM     12  C   UNL     1      -0.354 -12.423  -9.496  0.00  0.00    +0.000 C 
ATOM     13  H   UNL     1       0.723 -12.608  -9.445  0.00  0.00    +0.000 HD
ATOM     14  H   UNL     1      -0.532 -11.396  -9.834  0.00  0.00    +0.000 HD
BRANCH  12  15
ATOM     15  C   UNL     1      -0.974 -12.626  -8.129  0.00  0.00    +0.000 C 
ATOM     16  H   UNL     1      -0.202 -12.764  -7.367  0.00  0.00    +0.000 HD
ATOM     17  H   UNL     1      -1.592 -11.764  -7.854  0.00  0.00    +0.000 HD
ATOM     18  H   UNL     1      -1.632 -13.500  -8.130  0.00  0.00    +0.000 HD
ENDBRANCH  12  15
ENDBRANCH  11  12
ENDBRANCH   2  11
TORSDOF 5
ENDMDL
MODEL 2
REMARK VINA RESULT:    -3.284     22.511     24.292
REMARK INTER + INTRA:          -4.265
REMARK INTER:                  -4.197
REMARK INTRA:                  -0.068
REMARK UNBOUND:                -0.213
REMARK  Name = 429065
REMARK  5 active torsions:
REMARK  status: ('A' for Active; 'I' for Inactive)
REMARK    1  A    between atoms: O_1  and  C_3
REMARK    2  A    between atoms: O_1  and  C_5
REMARK    3  A    between atoms: C_3  and  C_4
REMARK    4  A    between atoms: C_5  and  C_6
REMARK    5  A    between atoms: C_7  and  C_8
REMARK                            x       y       z     vdW  Elec       q    Type
REMARK                         _______ _______ _______ _____ _____    ______ ____
ROOT
ATOM      1  O   UNL     1      14.932   3.294  -2.240  0.00  0.00    +0.000 OA
ATOM      2  C   UNL     1      14.551   3.207  -3.397  0.00  0.00    +0.000 C 
ENDROOT
BRANCH   2   3
ATOM      3  C   UNL     1      15.163   3.893  -4.555  0.00  0.00    +0.000 C 
ATOM      4  C   UNL     1      16.315   4.561  -4.405  0.00  0.00    +0.000 C 
ATOM      5  H   UNL     1      14.660   3.841  -5.515  0.00  0.00    +0.000 HD
ATOM      6  H   UNL     1      16.806   4.605  -3.438  0.00  0.00    +0.000 HD
BRANCH   4   7
ATOM      7  C   UNL     1      16.997   5.281  -5.522  0.00  0.00    +0.000 C 
ATOM      8  H   UNL     1      16.328   5.352  -6.384  0.00  0.00    +0.000 HD
ATOM      9  H   UNL     1      17.914   4.776  -5.842  0.00  0.00    +0.000 HD
ATOM     10  H   UNL     1      17.259   6.295  -5.205  0.00  0.00    +0.000 HD
ENDBRANCH   4   7
ENDBRANCH   2   3
BRANCH   2  11
ATOM     11  O   UNL     1      13.501   2.475  -3.859  0.00  0.00    +0.000 OA
BRANCH  11  12
ATOM     12  C   UNL     1      13.177   1.312  -3.091  0.00  0.00    +0.000 C 
ATOM     13  H   UNL     1      14.084   0.923  -2.617  0.00  0.00    +0.000 HD
ATOM     14  H   UNL     1      12.447   1.577  -2.318  0.00  0.00    +0.000 HD
BRANCH  12  15
ATOM     15  C   UNL     1      12.590   0.262  -4.011  0.00  0.00    +0.000 C 
ATOM     16  H   UNL     1      12.347   0.690  -4.988  0.00  0.00    +0.000 HD
ATOM     17  H   UNL     1      13.296  -0.564  -4.152  0.00  0.00    +0.000 HD
ATOM     18  H   UNL     1      11.682  -0.167  -3.576  0.00  0.00    +0.000 HD
ENDBRANCH  12  15
ENDBRANCH  11  12
ENDBRANCH   2  11
TORSDOF 5
ENDMDL
MODEL 3
REMARK VINA RESULT:    -3.234      2.309      2.895
REMARK INTER + INTRA:          -4.204
REMARK INTER:                  -4.131
REMARK INTRA:                  -0.073
REMARK UNBOUND:                -0.213
REMARK  Name = 429065
REMARK  5 active torsions:
REMARK  status: ('A' for Active; 'I' for Inactive)
REMARK    1  A    between atoms: O_1  and  C_3
REMARK    2  A    between atoms: O_1  and  C_5
REMARK    3  A    between atoms: C_3  and  C_4
REMARK    4  A    between atoms: C_5  and  C_6
REMARK    5  A    between atoms: C_7  and  C_8
REMARK                            x       y       z     vdW  Elec       q    Type
REMARK                         _______ _______ _______ _____ _____    ______ ____
ROOT
ATOM      1  O   UNL     1      -1.286 -15.272  -8.516  0.00  0.00    +0.000 OA
ATOM      2  C   UNL     1      -1.304 -14.108  -8.885  0.00  0.00    +0.000 C 
ENDROOT
BRANCH   2   3
ATOM      3  C   UNL     1      -1.350 -13.655 -10.292  0.00  0.00    +0.000 C 
ATOM      4  C   UNL     1      -1.293 -14.552 -11.285  0.00  0.00    +0.000 C 
ATOM      5  H   UNL     1      -1.430 -12.592 -10.493  0.00  0.00    +0.000 HD
ATOM      6  H   UNL     1      -1.212 -15.613 -11.069  0.00  0.00    +0.000 HD
BRANCH   4   7
ATOM      7  C   UNL     1      -1.332 -14.179 -12.731  0.00  0.00    +0.000 C 
ATOM      8  H   UNL     1      -1.634 -15.042 -13.330  0.00  0.00    +0.000 HD
ATOM      9  H   UNL     1      -0.361 -13.831 -13.097  0.00  0.00    +0.000 HD
ATOM     10  H   UNL     1      -2.063 -13.379 -12.888  0.00  0.00    +0.000 HD
ENDBRANCH   4   7
ENDBRANCH   2   3
BRANCH   2  11
ATOM     11  O   UNL     1      -1.284 -13.000  -8.095  0.00  0.00    +0.000 OA
BRANCH  11  12
ATOM     12  C   UNL     1      -1.403 -13.244  -6.690  0.00  0.00    +0.000 C 
ATOM     13  H   UNL     1      -2.419 -13.003  -6.363  0.00  0.00    +0.000 HD
ATOM     14  H   UNL     1      -1.194 -14.299  -6.484  0.00  0.00    +0.000 HD
BRANCH  12  15
ATOM     15  C   UNL     1      -0.408 -12.372  -5.953  0.00  0.00    +0.000 C 
ATOM     16  H   UNL     1       0.399 -12.974  -5.526  0.00  0.00    +0.000 HD
ATOM     17  H   UNL     1       0.026 -11.627  -6.629  0.00  0.00    +0.000 HD
ATOM     18  H   UNL     1      -0.902 -11.820  -5.147  0.00  0.00    +0.000 HD
ENDBRANCH  12  15
ENDBRANCH  11  12
ENDBRANCH   2  11
TORSDOF 5
ENDMDL
MODEL 4
REMARK VINA RESULT:    -3.171     22.058     23.923
REMARK INTER + INTRA:          -4.125
REMARK INTER:                  -3.979
REMARK INTRA:                  -0.146
REMARK UNBOUND:                -0.213
REMARK  Name = 429065
REMARK  5 active torsions:
REMARK  status: ('A' for Active; 'I' for Inactive)
REMARK    1  A    between atoms: O_1  and  C_3
REMARK    2  A    between atoms: O_1  and  C_5
REMARK    3  A    between atoms: C_3  and  C_4
REMARK    4  A    between atoms: C_5  and  C_6
REMARK    5  A    between atoms: C_7  and  C_8
REMARK                            x       y       z     vdW  Elec       q    Type
REMARK                         _______ _______ _______ _____ _____    ______ ____
ROOT
ATOM      1  O   UNL     1      15.011   3.484  -2.080  0.00  0.00    +0.000 OA
ATOM      2  C   UNL     1      14.390   3.367  -3.125  0.00  0.00    +0.000 C 
ENDROOT
BRANCH   2   3
ATOM      3  C   UNL     1      13.576   4.426  -3.761  0.00  0.00    +0.000 C 
ATOM      4  C   UNL     1      12.537   4.957  -3.103  0.00  0.00    +0.000 C 
ATOM      5  H   UNL     1      13.840   4.753  -4.761  0.00  0.00    +0.000 HD
ATOM      6  H   UNL     1      12.284   4.618  -2.103  0.00  0.00    +0.000 HD
BRANCH   4   7
ATOM      7  C   UNL     1      11.665   6.027  -3.673  0.00  0.00    +0.000 C 
ATOM      8  H   UNL     1      12.003   6.286  -4.681  0.00  0.00    +0.000 HD
ATOM      9  H   UNL     1      11.674   6.938  -3.066  0.00  0.00    +0.000 HD
ATOM     10  H   UNL     1      10.632   5.670  -3.737  0.00  0.00    +0.000 HD
ENDBRANCH   4   7
ENDBRANCH   2   3
BRANCH   2  11
ATOM     11  O   UNL     1      14.314   2.260  -3.912  0.00  0.00    +0.000 OA
BRANCH  11  12
ATOM     12  C   UNL     1      13.972   1.046  -3.235  0.00  0.00    +0.000 C 
ATOM     13  H   UNL     1      14.768   0.310  -3.382  0.00  0.00    +0.000 HD
ATOM     14  H   UNL     1      13.855   1.247  -2.164  0.00  0.00    +0.000 HD
BRANCH  12  15
ATOM     15  C   UNL     1      12.672   0.515  -3.801  0.00  0.00    +0.000 C 
ATOM     16  H   UNL     1      11.906   0.446  -3.023  0.00  0.00    +0.000 HD
ATOM     17  H   UNL     1      12.306   1.168  -4.601  0.00  0.00    +0.000 HD
ATOM     18  H   UNL     1      12.820  -0.475  -4.242  0.00  0.00    +0.000 HD
ENDBRANCH  12  15
ENDBRANCH  11  12
ENDBRANCH   2  11
TORSDOF 5
ENDMDL
MODEL 5
REMARK VINA RESULT:    -3.072     26.071     27.146
REMARK INTER + INTRA:          -4.003
REMARK INTER:                  -3.844
REMARK INTRA:                  -0.159
REMARK UNBOUND:                -0.213
REMARK  Name = 429065
REMARK  5 active torsions:
REMARK  status: ('A' for Active; 'I' for Inactive)
REMARK    1  A    between atoms: O_1  and  C_3
REMARK    2  A    between atoms: O_1  and  C_5
REMARK    3  A    between atoms: C_3  and  C_4
REMARK    4  A    between atoms: C_5  and  C_6
REMARK    5  A    between atoms: C_7  and  C_8
REMARK                            x       y       z     vdW  Elec       q    Type
REMARK                         _______ _______ _______ _____ _____    ______ ____
ROOT
ATOM      1  O   UNL     1       1.800  11.770 -12.003  0.00  0.00    +0.000 OA
ATOM      2  C   UNL     1       2.991  11.836 -11.744  0.00  0.00    +0.000 C 
ENDROOT
BRANCH   2   3
ATOM      3  C   UNL     1       3.571  12.443 -10.526  0.00  0.00    +0.000 C 
ATOM      4  C   UNL     1       3.174  13.660 -10.131  0.00  0.00    +0.000 C 
ATOM      5  H   UNL     1       4.316  11.883  -9.971  0.00  0.00    +0.000 HD
ATOM      6  H   UNL     1       2.428  14.209 -10.698  0.00  0.00    +0.000 HD
BRANCH   4   7
ATOM      7  C   UNL     1       3.709  14.344  -8.915  0.00  0.00    +0.000 C 
ATOM      8  H   UNL     1       4.411  13.685  -8.396  0.00  0.00    +0.000 HD
ATOM      9  H   UNL     1       2.917  14.621  -8.213  0.00  0.00    +0.000 HD
ATOM     10  H   UNL     1       4.242  15.254  -9.206  0.00  0.00    +0.000 HD
ENDBRANCH   4   7
ENDBRANCH   2   3
BRANCH   2  11
ATOM     11  O   UNL     1       4.021  11.376 -12.505  0.00  0.00    +0.000 OA
BRANCH  11  12
ATOM     12  C   UNL     1       4.243  12.082 -13.730  0.00  0.00    +0.000 C 
ATOM     13  H   UNL     1       4.310  11.367 -14.556  0.00  0.00    +0.000 HD
ATOM     14  H   UNL     1       3.410  12.771 -13.910  0.00  0.00    +0.000 HD
BRANCH  12  15
ATOM     15  C   UNL     1       5.537  12.861 -13.622  0.00  0.00    +0.000 C 
ATOM     16  H   UNL     1       5.625  13.589 -14.434  0.00  0.00    +0.000 HD
ATOM     17  H   UNL     1       5.588  13.392 -12.664  0.00  0.00    +0.000 HD
ATOM     18  H   UNL     1       6.398  12.186 -13.657  0.00  0.00    +0.000 HD
ENDBRANCH  12  15
ENDBRANCH  11  12
ENDBRANCH   2  11
TORSDOF 5
ENDMDL
MODEL 6
REMARK VINA RESULT:    -3.057     31.975     32.703
REMARK INTER + INTRA:          -3.985
REMARK INTER:                  -3.905
REMARK INTRA:                  -0.080
REMARK UNBOUND:                -0.213
REMARK  Name = 429065
REMARK  5 active torsions:
REMARK  status: ('A' for Active; 'I' for Inactive)
REMARK    1  A    between atoms: O_1  and  C_3
REMARK    2  A    between atoms: O_1  and  C_5
REMARK    3  A    between atoms: C_3  and  C_4
REMARK    4  A    between atoms: C_5  and  C_6
REMARK    5  A    between atoms: C_7  and  C_8
REMARK                            x       y       z     vdW  Elec       q    Type
REMARK                         _______ _______ _______ _____ _____    ______ ____
ROOT
ATOM      1  O   UNL     1       0.690  -8.529  20.060  0.00  0.00    +0.000 OA
ATOM      2  C   UNL     1       0.582  -7.335  20.296  0.00  0.00    +0.000 C 
ENDROOT
BRANCH   2   3
ATOM      3  C   UNL     1       1.507  -6.282  19.824  0.00  0.00    +0.000 C 
ATOM      4  C   UNL     1       2.342  -5.690  20.688  0.00  0.00    +0.000 C 
ATOM      5  H   UNL     1       1.489  -6.007  18.775  0.00  0.00    +0.000 HD
ATOM      6  H   UNL     1       2.348  -5.975  21.736  0.00  0.00    +0.000 HD
BRANCH   4   7
ATOM      7  C   UNL     1       3.306  -4.618  20.294  0.00  0.00    +0.000 C 
ATOM      8  H   UNL     1       2.997  -3.662  20.726  0.00  0.00    +0.000 HD
ATOM      9  H   UNL     1       3.371  -4.497  19.208  0.00  0.00    +0.000 HD
ATOM     10  H   UNL     1       4.304  -4.860  20.671  0.00  0.00    +0.000 HD
ENDBRANCH   4   7
ENDBRANCH   2   3
BRANCH   2  11
ATOM     11  O   UNL     1      -0.392  -6.731  21.028  0.00  0.00    +0.000 OA
BRANCH  11  12
ATOM     12  C   UNL     1      -1.725  -7.192  20.780  0.00  0.00    +0.000 C 
ATOM     13  H   UNL     1      -1.879  -7.296  19.701  0.00  0.00    +0.000 HD
ATOM     14  H   UNL     1      -1.870  -8.164  21.264  0.00  0.00    +0.000 HD
BRANCH  12  15
ATOM     15  C   UNL     1      -2.707  -6.186  21.343  0.00  0.00    +0.000 C 
ATOM     16  H   UNL     1      -2.810  -6.305  22.425  0.00  0.00    +0.000 HD
ATOM     17  H   UNL     1      -2.376  -5.164  21.129  0.00  0.00    +0.000 HD
ATOM     18  H   UNL     1      -3.690  -6.306  20.878  0.00  0.00    +0.000 HD
ENDBRANCH  12  15
ENDBRANCH  11  12
ENDBRANCH   2  11
TORSDOF 5
ENDMDL
MODEL 7
REMARK VINA RESULT:    -3.004      1.976      4.594
REMARK INTER + INTRA:          -3.920
REMARK INTER:                  -3.794
REMARK INTRA:                  -0.125
REMARK UNBOUND:                -0.213
REMARK  Name = 429065
REMARK  5 active torsions:
REMARK  status: ('A' for Active; 'I' for Inactive)
REMARK    1  A    between atoms: O_1  and  C_3
REMARK    2  A    between atoms: O_1  and  C_5
REMARK    3  A    between atoms: C_3  and  C_4
REMARK    4  A    between atoms: C_5  and  C_6
REMARK    5  A    between atoms: C_7  and  C_8
REMARK                            x       y       z     vdW  Elec       q    Type
REMARK                         _______ _______ _______ _____ _____    ______ ____
ROOT
ATOM      1  O   UNL     1      -2.183 -15.838  -8.474  0.00  0.00    +0.000 OA
ATOM      2  C   UNL     1      -1.678 -15.048  -9.256  0.00  0.00    +0.000 C 
ENDROOT
BRANCH   2   3
ATOM      3  C   UNL     1      -1.146 -13.714  -8.903  0.00  0.00    +0.000 C 
ATOM      4  C   UNL     1      -1.015 -13.366  -7.616  0.00  0.00    +0.000 C 
ATOM      5  H   UNL     1      -0.870 -13.037  -9.704  0.00  0.00    +0.000 HD
ATOM      6  H   UNL     1      -1.297 -14.055  -6.825  0.00  0.00    +0.000 HD
BRANCH   4   7
ATOM      7  C   UNL     1      -0.487 -12.040  -7.174  0.00  0.00    +0.000 C 
ATOM      8  H   UNL     1      -0.411 -11.365  -8.032  0.00  0.00    +0.000 HD
ATOM      9  H   UNL     1       0.502 -12.120  -6.713  0.00  0.00    +0.000 HD
ATOM     10  H   UNL     1      -1.169 -11.593  -6.444  0.00  0.00    +0.000 HD
ENDBRANCH   4   7
ENDBRANCH   2   3
BRANCH   2  11
ATOM     11  O   UNL     1      -1.503 -15.221 -10.594  0.00  0.00    +0.000 OA
BRANCH  11  12
ATOM     12  C   UNL     1      -1.128 -14.046 -11.322  0.00  0.00    +0.000 C 
ATOM     13  H   UNL     1      -1.754 -13.206 -11.005  0.00  0.00    +0.000 HD
ATOM     14  H   UNL     1      -0.077 -13.813 -11.123  0.00  0.00    +0.000 HD
BRANCH  12  15
ATOM     15  C   UNL     1      -1.324 -14.300 -12.802  0.00  0.00    +0.000 C 
ATOM     16  H   UNL     1      -0.447 -14.789 -13.234  0.00  0.00    +0.000 HD
ATOM     17  H   UNL     1      -2.202 -14.935 -12.971  0.00  0.00    +0.000 HD
ATOM     18  H   UNL     1      -1.504 -13.361 -13.334  0.00  0.00    +0.000 HD
ENDBRANCH  12  15
ENDBRANCH  11  12
ENDBRANCH   2  11
TORSDOF 5
ENDMDL
MODEL 8
REMARK VINA RESULT:    -2.989     33.953     35.320
REMARK INTER + INTRA:          -3.901
REMARK INTER:                  -3.685
REMARK INTRA:                  -0.216
REMARK UNBOUND:                -0.213
REMARK  Name = 429065
REMARK  5 active torsions:
REMARK  status: ('A' for Active; 'I' for Inactive)
REMARK    1  A    between atoms: O_1  and  C_3
REMARK    2  A    between atoms: O_1  and  C_5
REMARK    3  A    between atoms: C_3  and  C_4
REMARK    4  A    between atoms: C_5  and  C_6
REMARK    5  A    between atoms: C_7  and  C_8
REMARK                            x       y       z     vdW  Elec       q    Type
REMARK                         _______ _______ _______ _____ _____    ______ ____
ROOT
ATOM      1  O   UNL     1      17.899  13.317 -11.454  0.00  0.00    +0.000 OA
ATOM      2  C   UNL     1      18.367  14.401 -11.140  0.00  0.00    +0.000 C 
ENDROOT
BRANCH   2   3
ATOM      3  C   UNL     1      18.482  14.916  -9.759  0.00  0.00    +0.000 C 
ATOM      4  C   UNL     1      18.585  16.234  -9.543  0.00  0.00    +0.000 C 
ATOM      5  H   UNL     1      18.481  14.206  -8.938  0.00  0.00    +0.000 HD
ATOM      6  H   UNL     1      18.585  16.932 -10.375  0.00  0.00    +0.000 HD
BRANCH   4   7
ATOM      7  C   UNL     1      18.705  16.836  -8.181  0.00  0.00    +0.000 C 
ATOM      8  H   UNL     1      17.891  16.479  -7.543  0.00  0.00    +0.000 HD
ATOM      9  H   UNL     1      18.667  17.929  -8.206  0.00  0.00    +0.000 HD
ATOM     10  H   UNL     1      19.655  16.538  -7.726  0.00  0.00    +0.000 HD
ENDBRANCH   4   7
ENDBRANCH   2   3
BRANCH   2  11
ATOM     11  O   UNL     1      18.872  15.347 -11.977  0.00  0.00    +0.000 OA
BRANCH  11  12
ATOM     12  C   UNL     1      19.889  14.894 -12.877  0.00  0.00    +0.000 C 
ATOM     13  H   UNL     1      19.662  13.872 -13.198  0.00  0.00    +0.000 HD
ATOM     14  H   UNL     1      19.921  15.552 -13.752  0.00  0.00    +0.000 HD
BRANCH  12  15
ATOM     15  C   UNL     1      21.225  14.922 -12.165  0.00  0.00    +0.000 C 
ATOM     16  H   UNL     1      21.600  13.909 -11.997  0.00  0.00    +0.000 HD
ATOM     17  H   UNL     1      21.963  15.480 -12.752  0.00  0.00    +0.000 HD
ATOM     18  H   UNL     1      21.136  15.431 -11.200  0.00  0.00    +0.000 HD
ENDBRANCH  12  15
ENDBRANCH  11  12
ENDBRANCH   2  11
TORSDOF 5
ENDMDL
MODEL 9
REMARK VINA RESULT:    -2.981     21.767     23.681
REMARK INTER + INTRA:          -3.891
REMARK INTER:                  -3.763
REMARK INTRA:                  -0.128
REMARK UNBOUND:                -0.213
REMARK  Name = 429065
REMARK  5 active torsions:
REMARK  status: ('A' for Active; 'I' for Inactive)
REMARK    1  A    between atoms: O_1  and  C_3
REMARK    2  A    between atoms: O_1  and  C_5
REMARK    3  A    between atoms: C_3  and  C_4
REMARK    4  A    between atoms: C_5  and  C_6
REMARK    5  A    between atoms: C_7  and  C_8
REMARK                            x       y       z     vdW  Elec       q    Type
REMARK                         _______ _______ _______ _____ _____    ______ ____
ROOT
ATOM      1  O   UNL     1     -17.888 -12.817   3.397  0.00  0.00    +0.000 OA
ATOM      2  C   UNL     1     -17.771 -11.895   4.189  0.00  0.00    +0.000 C 
ENDROOT
BRANCH   2   3
ATOM      3  C   UNL     1     -18.752 -11.533   5.235  0.00  0.00    +0.000 C 
ATOM      4  C   UNL     1     -19.278 -12.485   6.018  0.00  0.00    +0.000 C 
ATOM      5  H   UNL     1     -19.031 -10.491   5.346  0.00  0.00    +0.000 HD
ATOM      6  H   UNL     1     -18.990 -13.525   5.893  0.00  0.00    +0.000 HD
BRANCH   4   7
ATOM      7  C   UNL     1     -20.274 -12.204   7.094  0.00  0.00    +0.000 C 
ATOM      8  H   UNL     1     -21.269 -12.080   6.658  0.00  0.00    +0.000 HD
ATOM      9  H   UNL     1     -20.033 -11.297   7.657  0.00  0.00    +0.000 HD
ATOM     10  H   UNL     1     -20.308 -13.043   7.797  0.00  0.00    +0.000 HD
ENDBRANCH   4   7
ENDBRANCH   2   3
BRANCH   2  11
ATOM     11  O   UNL     1     -16.732 -11.020   4.278  0.00  0.00    +0.000 OA
BRANCH  11  12
ATOM     12  C   UNL     1     -16.337 -10.408   3.046  0.00  0.00    +0.000 C 
ATOM     13  H   UNL     1     -15.286 -10.109   3.108  0.00  0.00    +0.000 HD
ATOM     14  H   UNL     1     -16.465 -11.123   2.226  0.00  0.00    +0.000 HD
BRANCH  12  15
ATOM     15  C   UNL     1     -17.203  -9.189   2.802  0.00  0.00    +0.000 C 
ATOM     16  H   UNL     1     -17.310  -8.597   3.715  0.00  0.00    +0.000 HD
ATOM     17  H   UNL     1     -16.767  -8.558   2.020  0.00  0.00    +0.000 HD
ATOM     18  H   UNL     1     -18.197  -9.487   2.453  0.00  0.00    +0.000 HD
ENDBRANCH  12  15
ENDBRANCH  11  12
ENDBRANCH   2  11
TORSDOF 5
ENDMDL
MODEL 10
REMARK VINA RESULT:    -2.876     18.553     20.514
REMARK INTER + INTRA:          -3.761
REMARK INTER:                  -3.548
REMARK INTRA:                  -0.213
REMARK UNBOUND:                -0.213
REMARK  Name = 429065
REMARK  5 active torsions:
REMARK  status: ('A' for Active; 'I' for Inactive)
REMARK    1  A    between atoms: O_1  and  C_3
REMARK    2  A    between atoms: O_1  and  C_5
REMARK    3  A    between atoms: C_3  and  C_4
REMARK    4  A    between atoms: C_5  and  C_6
REMARK    5  A    between atoms: C_7  and  C_8
REMARK                            x       y       z     vdW  Elec       q    Type
REMARK                         _______ _______ _______ _____ _____    ______ ____
ROOT
ATOM      1  O   UNL     1     -16.853  -8.804  -0.333  0.00  0.00    +0.000 OA
ATOM      2  C   UNL     1     -16.199  -9.255   0.594  0.00  0.00    +0.000 C 
ENDROOT
BRANCH   2   3
ATOM      3  C   UNL     1     -16.592  -9.216   2.019  0.00  0.00    +0.000 C 
ATOM      4  C   UNL     1     -17.609  -9.973   2.453  0.00  0.00    +0.000 C 
ATOM      5  H   UNL     1     -16.042  -8.567   2.692  0.00  0.00    +0.000 HD
ATOM      6  H   UNL     1     -18.151 -10.617   1.767  0.00  0.00    +0.000 HD
BRANCH   4   7
ATOM      7  C   UNL     1     -18.070  -9.992   3.873  0.00  0.00    +0.000 C 
ATOM      8  H   UNL     1     -17.932 -10.991   4.296  0.00  0.00    +0.000 HD
ATOM      9  H   UNL     1     -19.126  -9.722   3.971  0.00  0.00    +0.000 HD
ATOM     10  H   UNL     1     -17.481  -9.284   4.465  0.00  0.00    +0.000 HD
ENDBRANCH   4   7
ENDBRANCH   2   3
BRANCH   2  11
ATOM     11  O   UNL     1     -14.990  -9.875   0.517  0.00  0.00    +0.000 OA
BRANCH  11  12
ATOM     12  C   UNL     1     -14.878 -10.879  -0.498  0.00  0.00    +0.000 C 
ATOM     13  H   UNL     1     -15.360 -10.526  -1.415  0.00  0.00    +0.000 HD
ATOM     14  H   UNL     1     -13.819 -11.079  -0.696  0.00  0.00    +0.000 HD
BRANCH  12  15
ATOM     15  C   UNL     1     -15.557 -12.144  -0.016  0.00  0.00    +0.000 C 
ATOM     16  H   UNL     1     -16.123 -11.958   0.901  0.00  0.00    +0.000 HD
ATOM     17  H   UNL     1     -16.239 -12.530  -0.781  0.00  0.00    +0.000 HD
ATOM     18  H   UNL     1     -14.818 -12.928   0.177  0.00  0.00    +0.000 HD
ENDBRANCH  12  15
ENDBRANCH  11  12
ENDBRANCH   2  11
TORSDOF 5
ENDMDL
