MODEL 1
REMARK VINA RESULT:    -4.303      0.000      0.000
REMARK INTER + INTRA:          -6.885
REMARK INTER:                  -6.386
REMARK INTRA:                  -0.499
REMARK UNBOUND:                -0.570
REMARK  Name = 7797
REMARK  9 active torsions:
REMARK  status: ('A' for Active; 'I' for Inactive)
REMARK    1  A    between atoms: O_1  and  C_9
REMARK    2  A    between atoms: O_1  and  C_10
REMARK    3  A    between atoms: C_3  and  C_4
REMARK    4  A    between atoms: C_3  and  C_5
REMARK    5  A    between atoms: C_4  and  C_6
REMARK    6  A    between atoms: C_5  and  C_7
REMARK    7  A    between atoms: C_6  and  C_8
REMARK    8  A    between atoms: C_7  and  C_9
REMARK    9  A    between atoms: C_10  and  C_11
REMARK                            x       y       z     vdW  Elec       q    Type
REMARK                         _______ _______ _______ _____ _____    ______ ____
ROOT
ATOM      1  C   UNL     1       7.208   0.789  -1.155  0.00  0.00    +0.000 C 
ATOM      2  H   UNL     1       7.369  -0.252  -1.463  0.00  0.00    +0.000 HD
ATOM      3  H   UNL     1       6.670   0.751  -0.200  0.00  0.00    +0.000 HD
ENDROOT
BRANCH   1   4
ATOM      4  C   UNL     1       8.560   1.480  -0.954  0.00  0.00    +0.000 C 
ATOM      5  H   UNL     1       9.363   0.734  -0.989  0.00  0.00    +0.000 HD
ATOM      6  H   UNL     1       8.736   2.185  -1.775  0.00  0.00    +0.000 HD
BRANCH   4   7
ATOM      7  C   UNL     1       8.608   2.227   0.381  0.00  0.00    +0.000 C 
ATOM      8  H   UNL     1       7.879   1.790   1.075  0.00  0.00    +0.000 HD
ATOM      9  H   UNL     1       9.600   2.102   0.835  0.00  0.00    +0.000 HD
BRANCH   7  10
ATOM     10  C   UNL     1       8.311   3.714   0.197  0.00  0.00    +0.000 C 
ATOM     11  H   UNL     1       8.526   4.012  -0.835  0.00  0.00    +0.000 HD
ATOM     12  H   UNL     1       8.962   4.307   0.849  0.00  0.00    +0.000 HD
BRANCH  10  13
ATOM     13  C   UNL     1       6.860   4.035   0.518  0.00  0.00    +0.000 C 
ATOM     14  H   UNL     1       6.683   5.115   0.497  0.00  0.00    +0.000 HD
ATOM     15  H   UNL     1       6.602   3.668   1.517  0.00  0.00    +0.000 HD
ATOM     16  H   UNL     1       6.184   3.563  -0.202  0.00  0.00    +0.000 HD
ENDBRANCH  10  13
ENDBRANCH   7  10
ENDBRANCH   4   7
ENDBRANCH   1   4
BRANCH   1  17
ATOM     17  C   UNL     1       6.340   1.497  -2.196  0.00  0.00    +0.000 C 
ATOM     18  H   UNL     1       5.407   1.832  -1.728  0.00  0.00    +0.000 HD
ATOM     19  H   UNL     1       6.878   2.373  -2.579  0.00  0.00    +0.000 HD
BRANCH  17  21
ATOM     20  O   UNL     1       4.980   0.738  -4.063  0.00  0.00    +0.000 OA
ATOM     21  C   UNL     1       5.981   0.616  -3.371  0.00  0.00    +0.000 C 
BRANCH  21  22
ATOM     22  O   UNL     1       6.937  -0.351  -3.510  0.00  0.00    +0.000 OA
BRANCH  22  23
ATOM     23  C   UNL     1       6.451  -1.654  -3.846  0.00  0.00    +0.000 C 
ATOM     24  H   UNL     1       5.576  -1.556  -4.499  0.00  0.00    +0.000 HD
ATOM     25  H   UNL     1       7.234  -2.206  -4.378  0.00  0.00    +0.000 HD
BRANCH  23  26
ATOM     26  C   UNL     1       6.074  -2.381  -2.600  0.00  0.00    +0.000 C 
ATOM     27  H   UNL     1       6.870  -2.322  -1.851  0.00  0.00    +0.000 HD
ATOM     28  H   UNL     1       5.157  -1.965  -2.169  0.00  0.00    +0.000 HD
ATOM     29  H   UNL     1       5.871  -3.436  -2.811  0.00  0.00    +0.000 HD
ENDBRANCH  23  26
ENDBRANCH  22  23
ENDBRANCH  21  22
ENDBRANCH  17  21
ENDBRANCH   1  17
TORSDOF 9
ENDMDL
MODEL 2
REMARK VINA RESULT:    -4.124     16.903     18.655
REMARK INTER + INTRA:          -6.623
REMARK INTER:                  -6.238
REMARK INTRA:                  -0.385
REMARK UNBOUND:                -0.570
REMARK  Name = 7797
REMARK  9 active torsions:
REMARK  status: ('A' for Active; 'I' for Inactive)
REMARK    1  A    between atoms: O_1  and  C_9
REMARK    2  A    between atoms: O_1  and  C_10
REMARK    3  A    between atoms: C_3  and  C_4
REMARK    4  A    between atoms: C_3  and  C_5
REMARK    5  A    between atoms: C_4  and  C_6
REMARK    6  A    between atoms: C_5  and  C_7
REMARK    7  A    between atoms: C_6  and  C_8
REMARK    8  A    between atoms: C_7  and  C_9
REMARK    9  A    between atoms: C_10  and  C_11
REMARK                            x       y       z     vdW  Elec       q    Type
REMARK                         _______ _______ _______ _____ _____    ______ ____
ROOT
ATOM      1  C   UNL     1      -1.321 -13.696  -9.303  0.00  0.00    +0.000 C 
ATOM      2  H   UNL     1      -0.738 -14.554  -8.942  0.00  0.00    +0.000 HD
ATOM      3  H   UNL     1      -2.166 -13.581  -8.614  0.00  0.00    +0.000 HD
ENDROOT
BRANCH   1   4
ATOM      4  C   UNL     1      -0.453 -12.434  -9.265  0.00  0.00    +0.000 C 
ATOM      5  H   UNL     1       0.533 -12.653  -9.690  0.00  0.00    +0.000 HD
ATOM      6  H   UNL     1      -0.911 -11.658  -9.891  0.00  0.00    +0.000 HD
BRANCH   4   7
ATOM      7  C   UNL     1      -0.296 -11.913  -7.835  0.00  0.00    +0.000 C 
ATOM      8  H   UNL     1       0.770 -11.815  -7.593  0.00  0.00    +0.000 HD
ATOM      9  H   UNL     1      -0.737 -10.910  -7.760  0.00  0.00    +0.000 HD
BRANCH   7  10
ATOM     10  C   UNL     1      -0.965 -12.845  -6.827  0.00  0.00    +0.000 C 
ATOM     11  H   UNL     1      -0.803 -13.889  -7.120  0.00  0.00    +0.000 HD
ATOM     12  H   UNL     1      -2.048 -12.674  -6.822  0.00  0.00    +0.000 HD
BRANCH  10  13
ATOM     13  C   UNL     1      -0.423 -12.629  -5.423  0.00  0.00    +0.000 C 
ATOM     14  H   UNL     1       0.654 -12.821  -5.385  0.00  0.00    +0.000 HD
ATOM     15  H   UNL     1      -0.914 -13.308  -4.718  0.00  0.00    +0.000 HD
ATOM     16  H   UNL     1      -0.600 -11.603  -5.087  0.00  0.00    +0.000 HD
ENDBRANCH  10  13
ENDBRANCH   7  10
ENDBRANCH   4   7
ENDBRANCH   1   4
BRANCH   1  17
ATOM     17  C   UNL     1      -1.850 -13.998 -10.706  0.00  0.00    +0.000 C 
ATOM     18  H   UNL     1      -2.943 -14.078 -10.676  0.00  0.00    +0.000 HD
ATOM     19  H   UNL     1      -1.573 -13.179 -11.380  0.00  0.00    +0.000 HD
BRANCH  17  21
ATOM     20  O   UNL     1      -1.227 -16.349 -10.683  0.00  0.00    +0.000 OA
ATOM     21  C   UNL     1      -1.306 -15.286 -11.283  0.00  0.00    +0.000 C 
BRANCH  21  22
ATOM     22  O   UNL     1      -0.894 -15.058 -12.566  0.00  0.00    +0.000 OA
BRANCH  22  23
ATOM     23  C   UNL     1      -0.513 -13.711 -12.861  0.00  0.00    +0.000 C 
ATOM     24  H   UNL     1      -0.866 -13.447 -13.864  0.00  0.00    +0.000 HD
ATOM     25  H   UNL     1      -0.975 -13.037 -12.130  0.00  0.00    +0.000 HD
BRANCH  23  26
ATOM     26  C   UNL     1       0.971 -13.588 -12.796  0.00  0.00    +0.000 C 
ATOM     27  H   UNL     1       1.274 -12.810 -12.089  0.00  0.00    +0.000 HD
ATOM     28  H   UNL     1       1.427 -14.535 -12.490  0.00  0.00    +0.000 HD
ATOM     29  H   UNL     1       1.385 -13.345 -13.781  0.00  0.00    +0.000 HD
ENDBRANCH  23  26
ENDBRANCH  22  23
ENDBRANCH  21  22
ENDBRANCH  17  21
ENDBRANCH   1  17
TORSDOF 9
ENDMDL
MODEL 3
REMARK VINA RESULT:    -4.022     16.937     19.057
REMARK INTER + INTRA:          -6.473
REMARK INTER:                  -6.094
REMARK INTRA:                  -0.379
REMARK UNBOUND:                -0.570
REMARK  Name = 7797
REMARK  9 active torsions:
REMARK  status: ('A' for Active; 'I' for Inactive)
REMARK    1  A    between atoms: O_1  and  C_9
REMARK    2  A    between atoms: O_1  and  C_10
REMARK    3  A    between atoms: C_3  and  C_4
REMARK    4  A    between atoms: C_3  and  C_5
REMARK    5  A    between atoms: C_4  and  C_6
REMARK    6  A    between atoms: C_5  and  C_7
REMARK    7  A    between atoms: C_6  and  C_8
REMARK    8  A    between atoms: C_7  and  C_9
REMARK    9  A    between atoms: C_10  and  C_11
REMARK                            x       y       z     vdW  Elec       q    Type
REMARK                         _______ _______ _______ _____ _____    ______ ____
ROOT
ATOM      1  C   UNL     1      -1.108 -13.753  -9.778  0.00  0.00    +0.000 C 
ATOM      2  H   UNL     1      -0.379 -14.574  -9.752  0.00  0.00    +0.000 HD
ATOM      3  H   UNL     1      -1.814 -13.938  -8.960  0.00  0.00    +0.000 HD
ENDROOT
BRANCH   1   4
ATOM      4  C   UNL     1      -0.389 -12.421  -9.543  0.00  0.00    +0.000 C 
ATOM      5  H   UNL     1       0.645 -12.494  -9.902  0.00  0.00    +0.000 HD
ATOM      6  H   UNL     1      -0.880 -11.633 -10.126  0.00  0.00    +0.000 HD
BRANCH   4   7
ATOM      7  C   UNL     1      -0.395 -12.042  -8.061  0.00  0.00    +0.000 C 
ATOM      8  H   UNL     1       0.636 -11.988  -7.689  0.00  0.00    +0.000 HD
ATOM      9  H   UNL     1      -0.835 -11.043  -7.941  0.00  0.00    +0.000 HD
BRANCH   7  10
ATOM     10  C   UNL     1      -1.185 -13.053  -7.232  0.00  0.00    +0.000 C 
ATOM     11  H   UNL     1      -0.987 -14.068  -7.596  0.00  0.00    +0.000 HD
ATOM     12  H   UNL     1      -2.260 -12.871  -7.346  0.00  0.00    +0.000 HD
BRANCH  10  13
ATOM     13  C   UNL     1      -0.822 -12.970  -5.758  0.00  0.00    +0.000 C 
ATOM     14  H   UNL     1       0.242 -13.177  -5.604  0.00  0.00    +0.000 HD
ATOM     15  H   UNL     1      -1.397 -13.703  -5.184  0.00  0.00    +0.000 HD
ATOM     16  H   UNL     1      -1.040 -11.976  -5.355  0.00  0.00    +0.000 HD
ENDBRANCH  10  13
ENDBRANCH   7  10
ENDBRANCH   4   7
ENDBRANCH   1   4
BRANCH   1  17
ATOM     17  C   UNL     1      -1.858 -13.785 -11.110  0.00  0.00    +0.000 C 
ATOM     18  H   UNL     1      -2.703 -14.480 -11.039  0.00  0.00    +0.000 HD
ATOM     19  H   UNL     1      -2.244 -12.782 -11.331  0.00  0.00    +0.000 HD
BRANCH  17  21
ATOM     20  O   UNL     1      -0.092 -13.559 -12.766  0.00  0.00    +0.000 OA
ATOM     21  C   UNL     1      -0.994 -14.221 -12.271  0.00  0.00    +0.000 C 
BRANCH  21  22
ATOM     22  O   UNL     1      -1.404 -15.455 -12.692  0.00  0.00    +0.000 OA
BRANCH  22  23
ATOM     23  C   UNL     1      -0.606 -16.555 -12.244  0.00  0.00    +0.000 C 
ATOM     24  H   UNL     1      -0.169 -17.061 -13.112  0.00  0.00    +0.000 HD
ATOM     25  H   UNL     1       0.201 -16.180 -11.605  0.00  0.00    +0.000 HD
BRANCH  23  26
ATOM     26  C   UNL     1      -1.458 -17.509 -11.478  0.00  0.00    +0.000 C 
ATOM     27  H   UNL     1      -0.853 -18.150 -10.831  0.00  0.00    +0.000 HD
ATOM     28  H   UNL     1      -2.183 -16.971 -10.857  0.00  0.00    +0.000 HD
ATOM     29  H   UNL     1      -2.037 -18.145 -12.156  0.00  0.00    +0.000 HD
ENDBRANCH  23  26
ENDBRANCH  22  23
ENDBRANCH  21  22
ENDBRANCH  17  21
ENDBRANCH   1  17
TORSDOF 9
ENDMDL
MODEL 4
REMARK VINA RESULT:    -4.007      1.774      2.683
REMARK INTER + INTRA:          -6.451
REMARK INTER:                  -5.994
REMARK INTRA:                  -0.457
REMARK UNBOUND:                -0.570
REMARK  Name = 7797
REMARK  9 active torsions:
REMARK  status: ('A' for Active; 'I' for Inactive)
REMARK    1  A    between atoms: O_1  and  C_9
REMARK    2  A    between atoms: O_1  and  C_10
REMARK    3  A    between atoms: C_3  and  C_4
REMARK    4  A    between atoms: C_3  and  C_5
REMARK    5  A    between atoms: C_4  and  C_6
REMARK    6  A    between atoms: C_5  and  C_7
REMARK    7  A    between atoms: C_6  and  C_8
REMARK    8  A    between atoms: C_7  and  C_9
REMARK    9  A    between atoms: C_10  and  C_11
REMARK                            x       y       z     vdW  Elec       q    Type
REMARK                         _______ _______ _______ _____ _____    ______ ____
ROOT
ATOM      1  C   UNL     1       8.865   0.867   0.495  0.00  0.00    +0.000 C 
ATOM      2  H   UNL     1       9.785   0.416   0.101  0.00  0.00    +0.000 HD
ATOM      3  H   UNL     1       9.060   1.099   1.550  0.00  0.00    +0.000 HD
ENDROOT
BRANCH   1   4
ATOM      4  C   UNL     1       8.563   2.162  -0.265  0.00  0.00    +0.000 C 
ATOM      5  H   UNL     1       9.086   3.000   0.212  0.00  0.00    +0.000 HD
ATOM      6  H   UNL     1       8.946   2.082  -1.290  0.00  0.00    +0.000 HD
BRANCH   4   7
ATOM      7  C   UNL     1       7.059   2.445  -0.302  0.00  0.00    +0.000 C 
ATOM      8  H   UNL     1       6.683   2.307  -1.323  0.00  0.00    +0.000 HD
ATOM      9  H   UNL     1       6.535   1.722   0.336  0.00  0.00    +0.000 HD
BRANCH   7  10
ATOM     10  C   UNL     1       6.749   3.865   0.169  0.00  0.00    +0.000 C 
ATOM     11  H   UNL     1       5.924   3.846   0.890  0.00  0.00    +0.000 HD
ATOM     12  H   UNL     1       6.424   4.477  -0.680  0.00  0.00    +0.000 HD
BRANCH  10  13
ATOM     13  C   UNL     1       7.963   4.516   0.814  0.00  0.00    +0.000 C 
ATOM     14  H   UNL     1       8.590   3.769   1.311  0.00  0.00    +0.000 HD
ATOM     15  H   UNL     1       7.647   5.248   1.564  0.00  0.00    +0.000 HD
ATOM     16  H   UNL     1       8.573   5.035   0.068  0.00  0.00    +0.000 HD
ENDBRANCH  10  13
ENDBRANCH   7  10
ENDBRANCH   4   7
ENDBRANCH   1   4
BRANCH   1  17
ATOM     17  C   UNL     1       7.723  -0.145   0.402  0.00  0.00    +0.000 C 
ATOM     18  H   UNL     1       7.671  -0.725   1.331  0.00  0.00    +0.000 HD
ATOM     19  H   UNL     1       6.776   0.391   0.266  0.00  0.00    +0.000 HD
BRANCH  17  21
ATOM     20  O   UNL     1       8.928  -1.660  -1.069  0.00  0.00    +0.000 OA
ATOM     21  C   UNL     1       7.881  -1.117  -0.744  0.00  0.00    +0.000 C 
BRANCH  21  22
ATOM     22  O   UNL     1       6.675  -1.264  -1.372  0.00  0.00    +0.000 OA
BRANCH  22  23
ATOM     23  C   UNL     1       6.517  -0.521  -2.584  0.00  0.00    +0.000 C 
ATOM     24  H   UNL     1       5.579   0.043  -2.543  0.00  0.00    +0.000 HD
ATOM     25  H   UNL     1       7.353   0.181  -2.689  0.00  0.00    +0.000 HD
BRANCH  23  26
ATOM     26  C   UNL     1       6.494  -1.459  -3.742  0.00  0.00    +0.000 C 
ATOM     27  H   UNL     1       5.842  -2.315  -3.546  0.00  0.00    +0.000 HD
ATOM     28  H   UNL     1       6.141  -0.952  -4.648  0.00  0.00    +0.000 HD
ATOM     29  H   UNL     1       7.500  -1.831  -3.964  0.00  0.00    +0.000 HD
ENDBRANCH  23  26
ENDBRANCH  22  23
ENDBRANCH  21  22
ENDBRANCH  17  21
ENDBRANCH   1  17
TORSDOF 9
ENDMDL
MODEL 5
REMARK VINA RESULT:    -3.934     16.427     18.563
REMARK INTER + INTRA:          -6.344
REMARK INTER:                  -6.016
REMARK INTRA:                  -0.328
REMARK UNBOUND:                -0.570
REMARK  Name = 7797
REMARK  9 active torsions:
REMARK  status: ('A' for Active; 'I' for Inactive)
REMARK    1  A    between atoms: O_1  and  C_9
REMARK    2  A    between atoms: O_1  and  C_10
REMARK    3  A    between atoms: C_3  and  C_4
REMARK    4  A    between atoms: C_3  and  C_5
REMARK    5  A    between atoms: C_4  and  C_6
REMARK    6  A    between atoms: C_5  and  C_7
REMARK    7  A    between atoms: C_6  and  C_8
REMARK    8  A    between atoms: C_7  and  C_9
REMARK    9  A    between atoms: C_10  and  C_11
REMARK                            x       y       z     vdW  Elec       q    Type
REMARK                         _______ _______ _______ _____ _____    ______ ____
ROOT
ATOM      1  C   UNL     1      -0.704 -12.793  -9.737  0.00  0.00    +0.000 C 
ATOM      2  H   UNL     1      -1.710 -12.574 -10.118  0.00  0.00    +0.000 HD
ATOM      3  H   UNL     1      -0.713 -13.844  -9.422  0.00  0.00    +0.000 HD
ENDROOT
BRANCH   1   4
ATOM      4  C   UNL     1       0.322 -12.605 -10.859  0.00  0.00    +0.000 C 
ATOM      5  H   UNL     1       0.447 -11.535 -11.066  0.00  0.00    +0.000 HD
ATOM      6  H   UNL     1       1.296 -12.988 -10.531  0.00  0.00    +0.000 HD
BRANCH   4   7
ATOM      7  C   UNL     1      -0.111 -13.330 -12.134  0.00  0.00    +0.000 C 
ATOM      8  H   UNL     1      -0.308 -12.598 -12.927  0.00  0.00    +0.000 HD
ATOM      9  H   UNL     1       0.706 -13.974 -12.485  0.00  0.00    +0.000 HD
BRANCH   7  10
ATOM     10  C   UNL     1      -1.363 -14.173 -11.896  0.00  0.00    +0.000 C 
ATOM     11  H   UNL     1      -2.211 -13.744 -12.444  0.00  0.00    +0.000 HD
ATOM     12  H   UNL     1      -1.624 -14.160 -10.832  0.00  0.00    +0.000 HD
BRANCH  10  13
ATOM     13  C   UNL     1      -1.159 -15.613 -12.340  0.00  0.00    +0.000 C 
ATOM     14  H   UNL     1      -0.647 -15.657 -13.307  0.00  0.00    +0.000 HD
ATOM     15  H   UNL     1      -2.124 -16.119 -12.443  0.00  0.00    +0.000 HD
ATOM     16  H   UNL     1      -0.561 -16.167 -11.610  0.00  0.00    +0.000 HD
ENDBRANCH  10  13
ENDBRANCH   7  10
ENDBRANCH   4   7
ENDBRANCH   1   4
BRANCH   1  17
ATOM     17  C   UNL     1      -0.415 -11.905  -8.526  0.00  0.00    +0.000 C 
ATOM     18  H   UNL     1       0.652 -11.655  -8.502  0.00  0.00    +0.000 HD
ATOM     19  H   UNL     1      -0.994 -10.978  -8.613  0.00  0.00    +0.000 HD
BRANCH  17  21
ATOM     20  O   UNL     1      -0.384 -12.184  -6.111  0.00  0.00    +0.000 OA
ATOM     21  C   UNL     1      -0.770 -12.558  -7.210  0.00  0.00    +0.000 C 
BRANCH  21  22
ATOM     22  O   UNL     1      -1.562 -13.645  -7.452  0.00  0.00    +0.000 OA
BRANCH  22  23
ATOM     23  C   UNL     1      -1.886 -14.439  -6.306  0.00  0.00    +0.000 C 
ATOM     24  H   UNL     1      -1.380 -15.408  -6.383  0.00  0.00    +0.000 HD
ATOM     25  H   UNL     1      -1.541 -13.926  -5.402  0.00  0.00    +0.000 HD
BRANCH  23  26
ATOM     26  C   UNL     1      -3.361 -14.642  -6.243  0.00  0.00    +0.000 C 
ATOM     27  H   UNL     1      -3.671 -15.492  -6.859  0.00  0.00    +0.000 HD
ATOM     28  H   UNL     1      -3.686 -14.821  -5.212  0.00  0.00    +0.000 HD
ATOM     29  H   UNL     1      -3.893 -13.749  -6.589  0.00  0.00    +0.000 HD
ENDBRANCH  23  26
ENDBRANCH  22  23
ENDBRANCH  21  22
ENDBRANCH  17  21
ENDBRANCH   1  17
TORSDOF 9
ENDMDL
MODEL 6
REMARK VINA RESULT:    -3.782     17.948     20.773
REMARK INTER + INTRA:          -6.121
REMARK INTER:                  -5.818
REMARK INTRA:                  -0.303
REMARK UNBOUND:                -0.570
REMARK  Name = 7797
REMARK  9 active torsions:
REMARK  status: ('A' for Active; 'I' for Inactive)
REMARK    1  A    between atoms: O_1  and  C_9
REMARK    2  A    between atoms: O_1  and  C_10
REMARK    3  A    between atoms: C_3  and  C_4
REMARK    4  A    between atoms: C_3  and  C_5
REMARK    5  A    between atoms: C_4  and  C_6
REMARK    6  A    between atoms: C_5  and  C_7
REMARK    7  A    between atoms: C_6  and  C_8
REMARK    8  A    between atoms: C_7  and  C_9
REMARK    9  A    between atoms: C_10  and  C_11
REMARK                            x       y       z     vdW  Elec       q    Type
REMARK                         _______ _______ _______ _____ _____    ______ ____
ROOT
ATOM      1  C   UNL     1      -1.318 -14.174 -12.156  0.00  0.00    +0.000 C 
ATOM      2  H   UNL     1      -2.329 -14.374 -12.533  0.00  0.00    +0.000 HD
ATOM      3  H   UNL     1      -0.908 -13.367 -12.775  0.00  0.00    +0.000 HD
ENDROOT
BRANCH   1   4
ATOM      4  C   UNL     1      -1.397 -13.710 -10.698  0.00  0.00    +0.000 C 
ATOM      5  H   UNL     1      -2.379 -13.260 -10.508  0.00  0.00    +0.000 HD
ATOM      6  H   UNL     1      -1.303 -14.577 -10.033  0.00  0.00    +0.000 HD
BRANCH   4   7
ATOM      7  C   UNL     1      -0.295 -12.697 -10.378  0.00  0.00    +0.000 C 
ATOM      8  H   UNL     1       0.688 -13.160 -10.534  0.00  0.00    +0.000 HD
ATOM      9  H   UNL     1      -0.366 -11.848 -11.070  0.00  0.00    +0.000 HD
BRANCH   7  10
ATOM     10  C   UNL     1      -0.401 -12.196  -8.938  0.00  0.00    +0.000 C 
ATOM     11  H   UNL     1      -0.870 -11.206  -8.922  0.00  0.00    +0.000 HD
ATOM     12  H   UNL     1       0.600 -12.088  -8.507  0.00  0.00    +0.000 HD
BRANCH  10  13
ATOM     13  C   UNL     1      -1.214 -13.149  -8.076  0.00  0.00    +0.000 C 
ATOM     14  H   UNL     1      -1.769 -12.605  -7.305  0.00  0.00    +0.000 HD
ATOM     15  H   UNL     1      -0.553 -13.865  -7.576  0.00  0.00    +0.000 HD
ATOM     16  H   UNL     1      -1.930 -13.713  -8.681  0.00  0.00    +0.000 HD
ENDBRANCH  10  13
ENDBRANCH   7  10
ENDBRANCH   4   7
ENDBRANCH   1   4
BRANCH   1  17
ATOM     17  C   UNL     1      -0.457 -15.426 -12.323  0.00  0.00    +0.000 C 
ATOM     18  H   UNL     1       0.012 -15.418 -13.315  0.00  0.00    +0.000 HD
ATOM     19  H   UNL     1       0.330 -15.428 -11.560  0.00  0.00    +0.000 HD
BRANCH  17  21
ATOM     20  O   UNL     1      -1.362 -17.362 -11.162  0.00  0.00    +0.000 OA
ATOM     21  C   UNL     1      -1.242 -16.711 -12.191  0.00  0.00    +0.000 C 
BRANCH  21  22
ATOM     22  O   UNL     1      -1.767 -17.039 -13.410  0.00  0.00    +0.000 OA
BRANCH  22  23
ATOM     23  C   UNL     1      -1.925 -18.439 -13.656  0.00  0.00    +0.000 C 
ATOM     24  H   UNL     1      -2.190 -18.943 -12.720  0.00  0.00    +0.000 HD
ATOM     25  H   UNL     1      -2.730 -18.590 -14.385  0.00  0.00    +0.000 HD
BRANCH  23  26
ATOM     26  C   UNL     1      -0.649 -18.998 -14.188  0.00  0.00    +0.000 C 
ATOM     27  H   UNL     1      -0.822 -19.924 -14.743  0.00  0.00    +0.000 HD
ATOM     28  H   UNL     1      -0.156 -18.280 -14.852  0.00  0.00    +0.000 HD
ATOM     29  H   UNL     1       0.055 -19.206 -13.374  0.00  0.00    +0.000 HD
ENDBRANCH  23  26
ENDBRANCH  22  23
ENDBRANCH  21  22
ENDBRANCH  17  21
ENDBRANCH   1  17
TORSDOF 9
ENDMDL
MODEL 7
REMARK VINA RESULT:    -3.685     22.904     23.790
REMARK INTER + INTRA:          -5.978
REMARK INTER:                  -5.676
REMARK INTRA:                  -0.302
REMARK UNBOUND:                -0.570
REMARK  Name = 7797
REMARK  9 active torsions:
REMARK  status: ('A' for Active; 'I' for Inactive)
REMARK    1  A    between atoms: O_1  and  C_9
REMARK    2  A    between atoms: O_1  and  C_10
REMARK    3  A    between atoms: C_3  and  C_4
REMARK    4  A    between atoms: C_3  and  C_5
REMARK    5  A    between atoms: C_4  and  C_6
REMARK    6  A    between atoms: C_5  and  C_7
REMARK    7  A    between atoms: C_6  and  C_8
REMARK    8  A    between atoms: C_7  and  C_9
REMARK    9  A    between atoms: C_10  and  C_11
REMARK                            x       y       z     vdW  Elec       q    Type
REMARK                         _______ _______ _______ _____ _____    ______ ____
ROOT
ATOM      1  C   UNL     1       1.486  -7.538  19.863  0.00  0.00    +0.000 C 
ATOM      2  H   UNL     1       2.258  -8.309  19.992  0.00  0.00    +0.000 HD
ATOM      3  H   UNL     1       1.446  -7.315  18.790  0.00  0.00    +0.000 HD
ENDROOT
BRANCH   1   4
ATOM      4  C   UNL     1       0.131  -8.086  20.322  0.00  0.00    +0.000 C 
ATOM      5  H   UNL     1      -0.426  -8.461  19.455  0.00  0.00    +0.000 HD
ATOM      6  H   UNL     1       0.291  -8.935  20.997  0.00  0.00    +0.000 HD
BRANCH   4   7
ATOM      7  C   UNL     1      -0.688  -7.010  21.037  0.00  0.00    +0.000 C 
ATOM      8  H   UNL     1      -0.728  -7.230  22.112  0.00  0.00    +0.000 HD
ATOM      9  H   UNL     1      -0.192  -6.037  20.925  0.00  0.00    +0.000 HD
BRANCH   7  10
ATOM     10  C   UNL     1      -2.108  -6.930  20.480  0.00  0.00    +0.000 C 
ATOM     11  H   UNL     1      -2.498  -7.939  20.308  0.00  0.00    +0.000 HD
ATOM     12  H   UNL     1      -2.099  -6.416  19.512  0.00  0.00    +0.000 HD
BRANCH  10  13
ATOM     13  C   UNL     1      -3.037  -6.188  21.427  0.00  0.00    +0.000 C 
ATOM     14  H   UNL     1      -2.473  -5.533  22.098  0.00  0.00    +0.000 HD
ATOM     15  H   UNL     1      -3.600  -6.899  22.040  0.00  0.00    +0.000 HD
ATOM     16  H   UNL     1      -3.755  -5.575  20.873  0.00  0.00    +0.000 HD
ENDBRANCH  10  13
ENDBRANCH   7  10
ENDBRANCH   4   7
ENDBRANCH   1   4
BRANCH   1  17
ATOM     17  C   UNL     1       1.896  -6.279  20.626  0.00  0.00    +0.000 C 
ATOM     18  H   UNL     1       1.007  -5.813  21.068  0.00  0.00    +0.000 HD
ATOM     19  H   UNL     1       2.588  -6.553  21.432  0.00  0.00    +0.000 HD
BRANCH  17  21
ATOM     20  O   UNL     1       3.073  -4.204  20.154  0.00  0.00    +0.000 OA
ATOM     21  C   UNL     1       2.576  -5.248  19.754  0.00  0.00    +0.000 C 
BRANCH  21  22
ATOM     22  O   UNL     1       2.517  -5.659  18.452  0.00  0.00    +0.000 OA
BRANCH  22  23
ATOM     23  C   UNL     1       3.374  -4.957  17.546  0.00  0.00    +0.000 C 
ATOM     24  H   UNL     1       4.172  -4.464  18.111  0.00  0.00    +0.000 HD
ATOM     25  H   UNL     1       3.820  -5.671  16.844  0.00  0.00    +0.000 HD
BRANCH  23  26
ATOM     26  C   UNL     1       2.580  -3.941  16.798  0.00  0.00    +0.000 C 
ATOM     27  H   UNL     1       1.891  -3.409  17.461  0.00  0.00    +0.000 HD
ATOM     28  H   UNL     1       3.239  -3.208  16.319  0.00  0.00    +0.000 HD
ATOM     29  H   UNL     1       1.999  -4.411  15.997  0.00  0.00    +0.000 HD
ENDBRANCH  23  26
ENDBRANCH  22  23
ENDBRANCH  21  22
ENDBRANCH  17  21
ENDBRANCH   1  17
TORSDOF 9
ENDMDL
MODEL 8
REMARK VINA RESULT:    -3.645     25.320     26.790
REMARK INTER + INTRA:          -5.920
REMARK INTER:                  -5.487
REMARK INTRA:                  -0.433
REMARK UNBOUND:                -0.570
REMARK  Name = 7797
REMARK  9 active torsions:
REMARK  status: ('A' for Active; 'I' for Inactive)
REMARK    1  A    between atoms: O_1  and  C_9
REMARK    2  A    between atoms: O_1  and  C_10
REMARK    3  A    between atoms: C_3  and  C_4
REMARK    4  A    between atoms: C_3  and  C_5
REMARK    5  A    between atoms: C_4  and  C_6
REMARK    6  A    between atoms: C_5  and  C_7
REMARK    7  A    between atoms: C_6  and  C_8
REMARK    8  A    between atoms: C_7  and  C_9
REMARK    9  A    between atoms: C_10  and  C_11
REMARK                            x       y       z     vdW  Elec       q    Type
REMARK                         _______ _______ _______ _____ _____    ______ ____
ROOT
ATOM      1  C   UNL     1     -15.435  -9.596   0.932  0.00  0.00    +0.000 C 
ATOM      2  H   UNL     1     -15.100 -10.441   1.548  0.00  0.00    +0.000 HD
ATOM      3  H   UNL     1     -14.530  -9.078   0.593  0.00  0.00    +0.000 HD
ENDROOT
BRANCH   1   4
ATOM      4  C   UNL     1     -16.208 -10.122  -0.283  0.00  0.00    +0.000 C 
ATOM      5  H   UNL     1     -15.508 -10.332  -1.100  0.00  0.00    +0.000 HD
ATOM      6  H   UNL     1     -16.696 -11.068  -0.022  0.00  0.00    +0.000 HD
BRANCH   4   7
ATOM      7  C   UNL     1     -17.260  -9.113  -0.749  0.00  0.00    +0.000 C 
ATOM      8  H   UNL     1     -18.074  -9.062  -0.014  0.00  0.00    +0.000 HD
ATOM      9  H   UNL     1     -16.810  -8.114  -0.803  0.00  0.00    +0.000 HD
BRANCH   7  10
ATOM     10  C   UNL     1     -17.829  -9.495  -2.115  0.00  0.00    +0.000 C 
ATOM     11  H   UNL     1     -17.347 -10.411  -2.476  0.00  0.00    +0.000 HD
ATOM     12  H   UNL     1     -17.612  -8.706  -2.843  0.00  0.00    +0.000 HD
BRANCH  10  13
ATOM     13  C   UNL     1     -19.333  -9.712  -2.051  0.00  0.00    +0.000 C 
ATOM     14  H   UNL     1     -19.750  -9.861  -3.051  0.00  0.00    +0.000 HD
ATOM     15  H   UNL     1     -19.822  -8.842  -1.603  0.00  0.00    +0.000 HD
ATOM     16  H   UNL     1     -19.577 -10.589  -1.444  0.00  0.00    +0.000 HD
ENDBRANCH  10  13
ENDBRANCH   7  10
ENDBRANCH   4   7
ENDBRANCH   1   4
BRANCH   1  17
ATOM     17  C   UNL     1     -16.272  -8.645   1.789  0.00  0.00    +0.000 C 
ATOM     18  H   UNL     1     -15.632  -7.844   2.177  0.00  0.00    +0.000 HD
ATOM     19  H   UNL     1     -17.060  -8.200   1.170  0.00  0.00    +0.000 HD
BRANCH  17  21
ATOM     20  O   UNL     1     -18.007  -9.012   3.453  0.00  0.00    +0.000 OA
ATOM     21  C   UNL     1     -16.929  -9.327   2.967  0.00  0.00    +0.000 C 
BRANCH  21  22
ATOM     22  O   UNL     1     -16.111 -10.327   3.414  0.00  0.00    +0.000 OA
BRANCH  22  23
ATOM     23  C   UNL     1     -16.769 -11.545   3.776  0.00  0.00    +0.000 C 
ATOM     24  H   UNL     1     -16.741 -11.662   4.865  0.00  0.00    +0.000 HD
ATOM     25  H   UNL     1     -17.814 -11.503   3.448  0.00  0.00    +0.000 HD
BRANCH  23  26
ATOM     26  C   UNL     1     -16.079 -12.695   3.125  0.00  0.00    +0.000 C 
ATOM     27  H   UNL     1     -16.272 -12.715   2.048  0.00  0.00    +0.000 HD
ATOM     28  H   UNL     1     -14.996 -12.641   3.284  0.00  0.00    +0.000 HD
ATOM     29  H   UNL     1     -16.412 -13.645   3.557  0.00  0.00    +0.000 HD
ENDBRANCH  23  26
ENDBRANCH  22  23
ENDBRANCH  21  22
ENDBRANCH  17  21
ENDBRANCH   1  17
TORSDOF 9
ENDMDL
MODEL 9
REMARK VINA RESULT:    -3.508     17.484     18.909
REMARK INTER + INTRA:          -5.718
REMARK INTER:                  -5.148
REMARK INTRA:                  -0.570
REMARK UNBOUND:                -0.570
REMARK  Name = 7797
REMARK  9 active torsions:
REMARK  status: ('A' for Active; 'I' for Inactive)
REMARK    1  A    between atoms: O_1  and  C_9
REMARK    2  A    between atoms: O_1  and  C_10
REMARK    3  A    between atoms: C_3  and  C_4
REMARK    4  A    between atoms: C_3  and  C_5
REMARK    5  A    between atoms: C_4  and  C_6
REMARK    6  A    between atoms: C_5  and  C_7
REMARK    7  A    between atoms: C_6  and  C_8
REMARK    8  A    between atoms: C_7  and  C_9
REMARK    9  A    between atoms: C_10  and  C_11
REMARK                            x       y       z     vdW  Elec       q    Type
REMARK                         _______ _______ _______ _____ _____    ______ ____
ROOT
ATOM      1  C   UNL     1      -1.134 -12.819  -7.170  0.00  0.00    +0.000 C 
ATOM      2  H   UNL     1      -0.093 -12.520  -6.992  0.00  0.00    +0.000 HD
ATOM      3  H   UNL     1      -1.747 -12.249  -6.461  0.00  0.00    +0.000 HD
ENDROOT
BRANCH   1   4
ATOM      4  C   UNL     1      -1.535 -12.452  -8.603  0.00  0.00    +0.000 C 
ATOM      5  H   UNL     1      -2.265 -13.180  -8.977  0.00  0.00    +0.000 HD
ATOM      6  H   UNL     1      -2.025 -11.471  -8.605  0.00  0.00    +0.000 HD
BRANCH   4   7
ATOM      7  C   UNL     1      -0.317 -12.420  -9.528  0.00  0.00    +0.000 C 
ATOM      8  H   UNL     1      -0.072 -11.380  -9.779  0.00  0.00    +0.000 HD
ATOM      9  H   UNL     1       0.552 -12.839  -9.005  0.00  0.00    +0.000 HD
BRANCH   7  10
ATOM     10  C   UNL     1      -0.573 -13.208 -10.812  0.00  0.00    +0.000 C 
ATOM     11  H   UNL     1      -1.583 -12.997 -11.183  0.00  0.00    +0.000 HD
ATOM     12  H   UNL     1      -0.522 -14.283 -10.605  0.00  0.00    +0.000 HD
BRANCH  10  13
ATOM     13  C   UNL     1       0.440 -12.860 -11.891  0.00  0.00    +0.000 C 
ATOM     14  H   UNL     1       1.113 -13.702 -12.083  0.00  0.00    +0.000 HD
ATOM     15  H   UNL     1       1.048 -12.005 -11.578  0.00  0.00    +0.000 HD
ATOM     16  H   UNL     1      -0.059 -12.598 -12.828  0.00  0.00    +0.000 HD
ENDBRANCH  10  13
ENDBRANCH   7  10
ENDBRANCH   4   7
ENDBRANCH   1   4
BRANCH   1  17
ATOM     17  C   UNL     1      -1.288 -14.313  -6.885  0.00  0.00    +0.000 C 
ATOM     18  H   UNL     1      -0.685 -14.886  -7.600  0.00  0.00    +0.000 HD
ATOM     19  H   UNL     1      -0.930 -14.525  -5.870  0.00  0.00    +0.000 HD
BRANCH  17  21
ATOM     20  O   UNL     1      -3.644 -14.411  -6.290  0.00  0.00    +0.000 OA
ATOM     21  C   UNL     1      -2.717 -14.796  -6.989  0.00  0.00    +0.000 C 
BRANCH  21  22
ATOM     22  O   UNL     1      -2.793 -15.747  -7.968  0.00  0.00    +0.000 OA
BRANCH  22  23
ATOM     23  C   UNL     1      -1.538 -16.240  -8.447  0.00  0.00    +0.000 C 
ATOM     24  H   UNL     1      -0.765 -15.483  -8.278  0.00  0.00    +0.000 HD
ATOM     25  H   UNL     1      -1.274 -17.151  -7.898  0.00  0.00    +0.000 HD
BRANCH  23  26
ATOM     26  C   UNL     1      -1.646 -16.538  -9.904  0.00  0.00    +0.000 C 
ATOM     27  H   UNL     1      -1.580 -15.625 -10.502  0.00  0.00    +0.000 HD
ATOM     28  H   UNL     1      -0.850 -17.221 -10.221  0.00  0.00    +0.000 HD
ATOM     29  H   UNL     1      -2.595 -17.036 -10.131  0.00  0.00    +0.000 HD
ENDBRANCH  23  26
ENDBRANCH  22  23
ENDBRANCH  21  22
ENDBRANCH  17  21
ENDBRANCH   1  17
TORSDOF 9
ENDMDL
MODEL 10
REMARK VINA RESULT:    -3.504     15.123     16.294
REMARK INTER + INTRA:          -5.713
REMARK INTER:                  -5.352
REMARK INTRA:                  -0.361
REMARK UNBOUND:                -0.570
REMARK  Name = 7797
REMARK  9 active torsions:
REMARK  status: ('A' for Active; 'I' for Inactive)
REMARK    1  A    between atoms: O_1  and  C_9
REMARK    2  A    between atoms: O_1  and  C_10
REMARK    3  A    between atoms: C_3  and  C_4
REMARK    4  A    between atoms: C_3  and  C_5
REMARK    5  A    between atoms: C_4  and  C_6
REMARK    6  A    between atoms: C_5  and  C_7
REMARK    7  A    between atoms: C_6  and  C_8
REMARK    8  A    between atoms: C_7  and  C_9
REMARK    9  A    between atoms: C_10  and  C_11
REMARK                            x       y       z     vdW  Elec       q    Type
REMARK                         _______ _______ _______ _____ _____    ______ ____
ROOT
ATOM      1  C   UNL     1       2.484  13.673  -9.685  0.00  0.00    +0.000 C 
ATOM      2  H   UNL     1       2.126  14.632 -10.082  0.00  0.00    +0.000 HD
ATOM      3  H   UNL     1       1.910  13.481  -8.770  0.00  0.00    +0.000 HD
ENDROOT
BRANCH   1   4
ATOM      4  C   UNL     1       2.210  12.562 -10.703  0.00  0.00    +0.000 C 
ATOM      5  H   UNL     1       1.540  11.815 -10.261  0.00  0.00    +0.000 HD
ATOM      6  H   UNL     1       1.695  12.984 -11.574  0.00  0.00    +0.000 HD
BRANCH   4   7
ATOM      7  C   UNL     1       3.509  11.889 -11.152  0.00  0.00    +0.000 C 
ATOM      8  H   UNL     1       4.367  12.413 -10.712  0.00  0.00    +0.000 HD
ATOM      9  H   UNL     1       3.535  10.857 -10.780  0.00  0.00    +0.000 HD
BRANCH   7  10
ATOM     10  C   UNL     1       3.638  11.889 -12.675  0.00  0.00    +0.000 C 
ATOM     11  H   UNL     1       2.701  12.235 -13.127  0.00  0.00    +0.000 HD
ATOM     12  H   UNL     1       3.815  10.869 -13.033  0.00  0.00    +0.000 HD
BRANCH  10  13
ATOM     13  C   UNL     1       4.777  12.783 -13.137  0.00  0.00    +0.000 C 
ATOM     14  H   UNL     1       4.571  13.200 -14.128  0.00  0.00    +0.000 HD
ATOM     15  H   UNL     1       5.708  12.211 -13.197  0.00  0.00    +0.000 HD
ATOM     16  H   UNL     1       4.933  13.613 -12.441  0.00  0.00    +0.000 HD
ENDBRANCH  10  13
ENDBRANCH   7  10
ENDBRANCH   4   7
ENDBRANCH   1   4
BRANCH   1  17
ATOM     17  C   UNL     1       3.967  13.792  -9.335  0.00  0.00    +0.000 C 
ATOM     18  H   UNL     1       4.349  12.813  -9.021  0.00  0.00    +0.000 HD
ATOM     19  H   UNL     1       4.522  14.120 -10.222  0.00  0.00    +0.000 HD
BRANCH  17  21
ATOM     20  O   UNL     1       3.394  15.461  -7.662  0.00  0.00    +0.000 OA
ATOM     21  C   UNL     1       4.240  14.776  -8.220  0.00  0.00    +0.000 C 
BRANCH  21  22
ATOM     22  O   UNL     1       5.582  14.793  -7.961  0.00  0.00    +0.000 OA
BRANCH  22  23
ATOM     23  C   UNL     1       6.269  15.986  -8.353  0.00  0.00    +0.000 C 
ATOM     24  H   UNL     1       5.537  16.780  -8.540  0.00  0.00    +0.000 HD
ATOM     25  H   UNL     1       6.939  16.300  -7.544  0.00  0.00    +0.000 HD
BRANCH  23  26
ATOM     26  C   UNL     1       7.057  15.722  -9.591  0.00  0.00    +0.000 C 
ATOM     27  H   UNL     1       6.603  16.206 -10.460  0.00  0.00    +0.000 HD
ATOM     28  H   UNL     1       8.084  16.088  -9.484  0.00  0.00    +0.000 HD
ATOM     29  H   UNL     1       7.126  14.647  -9.787  0.00  0.00    +0.000 HD
ENDBRANCH  23  26
ENDBRANCH  22  23
ENDBRANCH  21  22
ENDBRANCH  17  21
ENDBRANCH   1  17
TORSDOF 9
ENDMDL
