MODEL 1
REMARK VINA RESULT:    -3.917      0.000      0.000
REMARK INTER + INTRA:          -5.127
REMARK INTER:                  -4.845
REMARK INTRA:                  -0.282
REMARK UNBOUND:                -0.180
REMARK  Name = 7342
REMARK  6 active torsions:
REMARK  status: ('A' for Active; 'I' for Inactive)
REMARK    1  A    between atoms: O_1  and  C_6
REMARK    2  A    between atoms: O_1  and  C_7
REMARK    3  A    between atoms: C_3  and  C_4
REMARK    4  A    between atoms: C_3  and  C_5
REMARK    5  A    between atoms: C_3  and  C_6
REMARK    6  A    between atoms: C_7  and  C_8
REMARK                            x       y       z     vdW  Elec       q    Type
REMARK                         _______ _______ _______ _____ _____    ______ ____
ROOT
ATOM      1  C   UNL     1       6.365  -1.072  -4.352  0.00  0.00    +0.000 C 
ATOM      2  H   UNL     1       6.111  -1.862  -5.070  0.00  0.00    +0.000 HD
ENDROOT
BRANCH   1   3
ATOM      3  C   UNL     1       5.571   0.187  -4.681  0.00  0.00    +0.000 C 
ATOM      4  H   UNL     1       4.812   0.383  -3.917  0.00  0.00    +0.000 HD
ATOM      5  H   UNL     1       5.068   0.098  -5.650  0.00  0.00    +0.000 HD
ATOM      6  H   UNL     1       6.232   1.060  -4.734  0.00  0.00    +0.000 HD
ENDBRANCH   1   3
BRANCH   1   7
ATOM      7  C   UNL     1       7.866  -0.815  -4.462  0.00  0.00    +0.000 C 
ATOM      8  H   UNL     1       8.198  -0.112  -3.692  0.00  0.00    +0.000 HD
ATOM      9  H   UNL     1       8.117  -0.392  -5.439  0.00  0.00    +0.000 HD
ATOM     10  H   UNL     1       8.440  -1.741  -4.345  0.00  0.00    +0.000 HD
ENDBRANCH   1   7
BRANCH   1  12
ATOM     11  O   UNL     1       6.104  -2.717  -2.577  0.00  0.00    +0.000 OA
ATOM     12  C   UNL     1       6.002  -1.559  -2.962  0.00  0.00    +0.000 C 
BRANCH  12  13
ATOM     13  O   UNL     1       5.556  -0.506  -2.213  0.00  0.00    +0.000 OA
BRANCH  13  14
ATOM     14  C   UNL     1       6.369  -0.163  -1.085  0.00  0.00    +0.000 C 
ATOM     15  H   UNL     1       5.738  -0.082  -0.193  0.00  0.00    +0.000 HD
ATOM     16  H   UNL     1       7.123  -0.941  -0.928  0.00  0.00    +0.000 HD
BRANCH  14  17
ATOM     17  C   UNL     1       7.049   1.162  -1.352  0.00  0.00    +0.000 C 
ATOM     18  H   UNL     1       7.028   1.406  -2.418  0.00  0.00    +0.000 HD
ATOM     19  H   UNL     1       6.558   1.967  -0.796  0.00  0.00    +0.000 HD
ATOM     20  H   UNL     1       8.092   1.134  -1.018  0.00  0.00    +0.000 HD
ENDBRANCH  14  17
ENDBRANCH  13  14
ENDBRANCH  12  13
ENDBRANCH   1  12
TORSDOF 6
ENDMDL
MODEL 2
REMARK VINA RESULT:    -3.901      1.633      2.549
REMARK INTER + INTRA:          -5.107
REMARK INTER:                  -4.985
REMARK INTRA:                  -0.122
REMARK UNBOUND:                -0.180
REMARK  Name = 7342
REMARK  6 active torsions:
REMARK  status: ('A' for Active; 'I' for Inactive)
REMARK    1  A    between atoms: O_1  and  C_6
REMARK    2  A    between atoms: O_1  and  C_7
REMARK    3  A    between atoms: C_3  and  C_4
REMARK    4  A    between atoms: C_3  and  C_5
REMARK    5  A    between atoms: C_3  and  C_6
REMARK    6  A    between atoms: C_7  and  C_8
REMARK                            x       y       z     vdW  Elec       q    Type
REMARK                         _______ _______ _______ _____ _____    ______ ____
ROOT
ATOM      1  C   UNL     1       5.574  -0.162  -3.688  0.00  0.00    +0.000 C 
ATOM      2  H   UNL     1       4.517  -0.320  -3.441  0.00  0.00    +0.000 HD
ENDROOT
BRANCH   1   3
ATOM      3  C   UNL     1       6.100   1.047  -2.925  0.00  0.00    +0.000 C 
ATOM      4  H   UNL     1       7.111   1.309  -3.252  0.00  0.00    +0.000 HD
ATOM      5  H   UNL     1       6.128   0.856  -1.847  0.00  0.00    +0.000 HD
ATOM      6  H   UNL     1       5.456   1.919  -3.086  0.00  0.00    +0.000 HD
ENDBRANCH   1   3
BRANCH   1   7
ATOM      7  C   UNL     1       5.665   0.061  -5.196  0.00  0.00    +0.000 C 
ATOM      8  H   UNL     1       5.735   1.129  -5.428  0.00  0.00    +0.000 HD
ATOM      9  H   UNL     1       4.780  -0.339  -5.701  0.00  0.00    +0.000 HD
ATOM     10  H   UNL     1       6.543  -0.437  -5.623  0.00  0.00    +0.000 HD
ENDBRANCH   1   7
BRANCH   1  12
ATOM     11  O   UNL     1       5.879  -2.346  -2.657  0.00  0.00    +0.000 OA
ATOM     12  C   UNL     1       6.348  -1.403  -3.280  0.00  0.00    +0.000 C 
BRANCH  12  13
ATOM     13  O   UNL     1       7.636  -1.302  -3.725  0.00  0.00    +0.000 OA
BRANCH  13  14
ATOM     14  C   UNL     1       8.641  -1.754  -2.812  0.00  0.00    +0.000 C 
ATOM     15  H   UNL     1       8.649  -1.107  -1.928  0.00  0.00    +0.000 HD
ATOM     16  H   UNL     1       8.422  -2.783  -2.507  0.00  0.00    +0.000 HD
BRANCH  14  17
ATOM     17  C   UNL     1       9.990  -1.700  -3.497  0.00  0.00    +0.000 C 
ATOM     18  H   UNL     1      10.083  -0.799  -4.109  0.00  0.00    +0.000 HD
ATOM     19  H   UNL     1      10.798  -1.712  -2.758  0.00  0.00    +0.000 HD
ATOM     20  H   UNL     1      10.132  -2.578  -4.137  0.00  0.00    +0.000 HD
ENDBRANCH  14  17
ENDBRANCH  13  14
ENDBRANCH  12  13
ENDBRANCH   1  12
TORSDOF 6
ENDMDL
MODEL 3
REMARK VINA RESULT:    -3.842      8.730      9.743
REMARK INTER + INTRA:          -5.032
REMARK INTER:                  -4.879
REMARK INTRA:                  -0.153
REMARK UNBOUND:                -0.180
REMARK  Name = 7342
REMARK  6 active torsions:
REMARK  status: ('A' for Active; 'I' for Inactive)
REMARK    1  A    between atoms: O_1  and  C_6
REMARK    2  A    between atoms: O_1  and  C_7
REMARK    3  A    between atoms: C_3  and  C_4
REMARK    4  A    between atoms: C_3  and  C_5
REMARK    5  A    between atoms: C_3  and  C_6
REMARK    6  A    between atoms: C_7  and  C_8
REMARK                            x       y       z     vdW  Elec       q    Type
REMARK                         _______ _______ _______ _____ _____    ______ ____
ROOT
ATOM      1  C   UNL     1      10.010   7.775  -5.246  0.00  0.00    +0.000 C 
ATOM      2  H   UNL     1      10.851   7.799  -5.951  0.00  0.00    +0.000 HD
ENDROOT
BRANCH   1   3
ATOM      3  C   UNL     1       8.880   6.937  -5.829  0.00  0.00    +0.000 C 
ATOM      4  H   UNL     1       7.990   7.548  -6.008  0.00  0.00    +0.000 HD
ATOM      5  H   UNL     1       8.604   6.117  -5.156  0.00  0.00    +0.000 HD
ATOM      6  H   UNL     1       9.180   6.488  -6.783  0.00  0.00    +0.000 HD
ENDBRANCH   1   3
BRANCH   1   7
ATOM      7  C   UNL     1       9.560   9.216  -5.018  0.00  0.00    +0.000 C 
ATOM      8  H   UNL     1       8.502   9.339  -5.271  0.00  0.00    +0.000 HD
ATOM      9  H   UNL     1      10.140   9.906  -5.639  0.00  0.00    +0.000 HD
ATOM     10  H   UNL     1       9.696   9.518  -3.974  0.00  0.00    +0.000 HD
ENDBRANCH   1   7
BRANCH   1  12
ATOM     11  O   UNL     1       9.874   7.157  -2.895  0.00  0.00    +0.000 OA
ATOM     12  C   UNL     1      10.496   7.151  -3.950  0.00  0.00    +0.000 C 
BRANCH  12  13
ATOM     13  O   UNL     1      11.721   6.580  -4.151  0.00  0.00    +0.000 OA
BRANCH  13  14
ATOM     14  C   UNL     1      12.845   7.440  -3.936  0.00  0.00    +0.000 C 
ATOM     15  H   UNL     1      12.509   8.483  -3.926  0.00  0.00    +0.000 HD
ATOM     16  H   UNL     1      13.312   7.199  -2.975  0.00  0.00    +0.000 HD
BRANCH  14  17
ATOM     17  C   UNL     1      13.844   7.236  -5.055  0.00  0.00    +0.000 C 
ATOM     18  H   UNL     1      14.404   8.154  -5.252  0.00  0.00    +0.000 HD
ATOM     19  H   UNL     1      14.549   6.439  -4.801  0.00  0.00    +0.000 HD
ATOM     20  H   UNL     1      13.334   6.929  -5.975  0.00  0.00    +0.000 HD
ENDBRANCH  14  17
ENDBRANCH  13  14
ENDBRANCH  12  13
ENDBRANCH   1  12
TORSDOF 6
ENDMDL
MODEL 4
REMARK VINA RESULT:    -3.773      8.699      9.612
REMARK INTER + INTRA:          -4.945
REMARK INTER:                  -4.747
REMARK INTRA:                  -0.197
REMARK UNBOUND:                -0.180
REMARK  Name = 7342
REMARK  6 active torsions:
REMARK  status: ('A' for Active; 'I' for Inactive)
REMARK    1  A    between atoms: O_1  and  C_6
REMARK    2  A    between atoms: O_1  and  C_7
REMARK    3  A    between atoms: C_3  and  C_4
REMARK    4  A    between atoms: C_3  and  C_5
REMARK    5  A    between atoms: C_3  and  C_6
REMARK    6  A    between atoms: C_7  and  C_8
REMARK                            x       y       z     vdW  Elec       q    Type
REMARK                         _______ _______ _______ _____ _____    ______ ____
ROOT
ATOM      1  C   UNL     1      10.032   7.930  -5.411  0.00  0.00    +0.000 C 
ATOM      2  H   UNL     1      10.644   8.147  -6.296  0.00  0.00    +0.000 HD
ENDROOT
BRANCH   1   3
ATOM      3  C   UNL     1       8.919   6.960  -5.786  0.00  0.00    +0.000 C 
ATOM      4  H   UNL     1       8.965   6.054  -5.175  0.00  0.00    +0.000 HD
ATOM      5  H   UNL     1       8.986   6.666  -6.840  0.00  0.00    +0.000 HD
ATOM      6  H   UNL     1       7.936   7.420  -5.637  0.00  0.00    +0.000 HD
ENDBRANCH   1   3
BRANCH   1   7
ATOM      7  C   UNL     1       9.458   9.255  -4.913  0.00  0.00    +0.000 C 
ATOM      8  H   UNL     1       9.450  10.001  -5.715  0.00  0.00    +0.000 HD
ATOM      9  H   UNL     1      10.057   9.651  -4.087  0.00  0.00    +0.000 HD
ATOM     10  H   UNL     1       8.432   9.136  -4.550  0.00  0.00    +0.000 HD
ENDBRANCH   1   7
BRANCH   1  12
ATOM     11  O   UNL     1      11.162   6.104  -4.263  0.00  0.00    +0.000 OA
ATOM     12  C   UNL     1      10.927   7.302  -4.358  0.00  0.00    +0.000 C 
BRANCH  12  13
ATOM     13  O   UNL     1      11.431   8.280  -3.547  0.00  0.00    +0.000 OA
BRANCH  13  14
ATOM     14  C   UNL     1      11.924   7.836  -2.279  0.00  0.00    +0.000 C 
ATOM     15  H   UNL     1      12.244   6.791  -2.357  0.00  0.00    +0.000 HD
ATOM     16  H   UNL     1      12.776   8.456  -1.980  0.00  0.00    +0.000 HD
BRANCH  14  17
ATOM     17  C   UNL     1      10.820   7.957  -1.251  0.00  0.00    +0.000 C 
ATOM     18  H   UNL     1      11.228   7.955  -0.236  0.00  0.00    +0.000 HD
ATOM     19  H   UNL     1      10.252   8.881  -1.401  0.00  0.00    +0.000 HD
ATOM     20  H   UNL     1      10.110   7.128  -1.348  0.00  0.00    +0.000 HD
ENDBRANCH  14  17
ENDBRANCH  13  14
ENDBRANCH  12  13
ENDBRANCH   1  12
TORSDOF 6
ENDMDL
MODEL 5
REMARK VINA RESULT:    -3.702      9.082     10.165
REMARK INTER + INTRA:          -4.855
REMARK INTER:                  -4.569
REMARK INTRA:                  -0.286
REMARK UNBOUND:                -0.180
REMARK  Name = 7342
REMARK  6 active torsions:
REMARK  status: ('A' for Active; 'I' for Inactive)
REMARK    1  A    between atoms: O_1  and  C_6
REMARK    2  A    between atoms: O_1  and  C_7
REMARK    3  A    between atoms: C_3  and  C_4
REMARK    4  A    between atoms: C_3  and  C_5
REMARK    5  A    between atoms: C_3  and  C_6
REMARK    6  A    between atoms: C_7  and  C_8
REMARK                            x       y       z     vdW  Elec       q    Type
REMARK                         _______ _______ _______ _____ _____    ______ ____
ROOT
ATOM      1  C   UNL     1      12.492   7.147  -3.385  0.00  0.00    +0.000 C 
ATOM      2  H   UNL     1      13.029   7.178  -2.428  0.00  0.00    +0.000 HD
ENDROOT
BRANCH   1   3
ATOM      3  C   UNL     1      12.097   5.710  -3.702  0.00  0.00    +0.000 C 
ATOM      4  H   UNL     1      11.324   5.355  -3.013  0.00  0.00    +0.000 HD
ATOM      5  H   UNL     1      12.958   5.036  -3.629  0.00  0.00    +0.000 HD
ATOM      6  H   UNL     1      11.705   5.630  -4.722  0.00  0.00    +0.000 HD
ENDBRANCH   1   3
BRANCH   1   7
ATOM      7  C   UNL     1      13.427   7.706  -4.455  0.00  0.00    +0.000 C 
ATOM      8  H   UNL     1      12.986   8.583  -4.939  0.00  0.00    +0.000 HD
ATOM      9  H   UNL     1      13.626   6.955  -5.226  0.00  0.00    +0.000 HD
ATOM     10  H   UNL     1      14.391   8.004  -4.028  0.00  0.00    +0.000 HD
ENDBRANCH   1   7
BRANCH   1  12
ATOM     11  O   UNL     1      10.547   8.080  -2.255  0.00  0.00    +0.000 OA
ATOM     12  C   UNL     1      11.246   8.006  -3.258  0.00  0.00    +0.000 C 
BRANCH  12  13
ATOM     13  O   UNL     1      11.039   8.682  -4.427  0.00  0.00    +0.000 OA
BRANCH  13  14
ATOM     14  C   UNL     1       9.673   8.792  -4.842  0.00  0.00    +0.000 C 
ATOM     15  H   UNL     1       9.037   8.945  -3.963  0.00  0.00    +0.000 HD
ATOM     16  H   UNL     1       9.565   9.644  -5.522  0.00  0.00    +0.000 HD
BRANCH  14  17
ATOM     17  C   UNL     1       9.269   7.517  -5.551  0.00  0.00    +0.000 C 
ATOM     18  H   UNL     1       8.948   6.756  -4.834  0.00  0.00    +0.000 HD
ATOM     19  H   UNL     1       8.452   7.709  -6.253  0.00  0.00    +0.000 HD
ATOM     20  H   UNL     1      10.105   7.120  -6.136  0.00  0.00    +0.000 HD
ENDBRANCH  14  17
ENDBRANCH  13  14
ENDBRANCH  12  13
ENDBRANCH   1  12
TORSDOF 6
ENDMDL
MODEL 6
REMARK VINA RESULT:    -3.555      1.873      2.506
REMARK INTER + INTRA:          -4.670
REMARK INTER:                  -4.527
REMARK INTRA:                  -0.144
REMARK UNBOUND:                -0.180
REMARK  Name = 7342
REMARK  6 active torsions:
REMARK  status: ('A' for Active; 'I' for Inactive)
REMARK    1  A    between atoms: O_1  and  C_6
REMARK    2  A    between atoms: O_1  and  C_7
REMARK    3  A    between atoms: C_3  and  C_4
REMARK    4  A    between atoms: C_3  and  C_5
REMARK    5  A    between atoms: C_3  and  C_6
REMARK    6  A    between atoms: C_7  and  C_8
REMARK                            x       y       z     vdW  Elec       q    Type
REMARK                         _______ _______ _______ _____ _____    ______ ____
ROOT
ATOM      1  C   UNL     1       5.617  -0.883  -2.436  0.00  0.00    +0.000 C 
ATOM      2  H   UNL     1       4.613  -0.825  -1.998  0.00  0.00    +0.000 HD
ENDROOT
BRANCH   1   3
ATOM      3  C   UNL     1       5.613  -0.222  -3.809  0.00  0.00    +0.000 C 
ATOM      4  H   UNL     1       6.559   0.296  -3.998  0.00  0.00    +0.000 HD
ATOM      5  H   UNL     1       4.800   0.507  -3.897  0.00  0.00    +0.000 HD
ATOM      6  H   UNL     1       5.471  -0.967  -4.600  0.00  0.00    +0.000 HD
ENDBRANCH   1   3
BRANCH   1   7
ATOM      7  C   UNL     1       5.987  -2.361  -2.543  0.00  0.00    +0.000 C 
ATOM      8  H   UNL     1       5.146  -2.946  -2.931  0.00  0.00    +0.000 HD
ATOM      9  H   UNL     1       6.257  -2.765  -1.562  0.00  0.00    +0.000 HD
ATOM     10  H   UNL     1       6.842  -2.513  -3.210  0.00  0.00    +0.000 HD
ENDBRANCH   1   7
BRANCH   1  12
ATOM     11  O   UNL     1       6.515  -0.152  -0.294  0.00  0.00    +0.000 OA
ATOM     12  C   UNL     1       6.579  -0.153  -1.517  0.00  0.00    +0.000 C 
BRANCH  12  13
ATOM     13  O   UNL     1       7.525   0.489  -2.266  0.00  0.00    +0.000 OA
BRANCH  13  14
ATOM     14  C   UNL     1       8.868   0.024  -2.094  0.00  0.00    +0.000 C 
ATOM     15  H   UNL     1       8.863  -0.889  -1.488  0.00  0.00    +0.000 HD
ATOM     16  H   UNL     1       9.308  -0.192  -3.074  0.00  0.00    +0.000 HD
BRANCH  14  17
ATOM     17  C   UNL     1       9.676   1.097  -1.397  0.00  0.00    +0.000 C 
ATOM     18  H   UNL     1      10.194   0.691  -0.523  0.00  0.00    +0.000 HD
ATOM     19  H   UNL     1      10.416   1.527  -2.079  0.00  0.00    +0.000 HD
ATOM     20  H   UNL     1       9.027   1.918  -1.072  0.00  0.00    +0.000 HD
ENDBRANCH  14  17
ENDBRANCH  13  14
ENDBRANCH  12  13
ENDBRANCH   1  12
TORSDOF 6
ENDMDL
MODEL 7
REMARK VINA RESULT:    -3.531      1.328      3.108
REMARK INTER + INTRA:          -4.640
REMARK INTER:                  -4.516
REMARK INTRA:                  -0.124
REMARK UNBOUND:                -0.180
REMARK  Name = 7342
REMARK  6 active torsions:
REMARK  status: ('A' for Active; 'I' for Inactive)
REMARK    1  A    between atoms: O_1  and  C_6
REMARK    2  A    between atoms: O_1  and  C_7
REMARK    3  A    between atoms: C_3  and  C_4
REMARK    4  A    between atoms: C_3  and  C_5
REMARK    5  A    between atoms: C_3  and  C_6
REMARK    6  A    between atoms: C_7  and  C_8
REMARK                            x       y       z     vdW  Elec       q    Type
REMARK                         _______ _______ _______ _____ _____    ______ ____
ROOT
ATOM      1  C   UNL     1       6.758   1.115  -1.915  0.00  0.00    +0.000 C 
ATOM      2  H   UNL     1       7.752   1.133  -2.380  0.00  0.00    +0.000 HD
ENDROOT
BRANCH   1   3
ATOM      3  C   UNL     1       5.696   1.380  -2.976  0.00  0.00    +0.000 C 
ATOM      4  H   UNL     1       4.884   0.650  -2.908  0.00  0.00    +0.000 HD
ATOM      5  H   UNL     1       6.121   1.328  -3.985  0.00  0.00    +0.000 HD
ATOM      6  H   UNL     1       5.265   2.380  -2.854  0.00  0.00    +0.000 HD
ENDBRANCH   1   3
BRANCH   1   7
ATOM      7  C   UNL     1       6.735   2.197  -0.838  0.00  0.00    +0.000 C 
ATOM      8  H   UNL     1       6.477   1.771   0.137  0.00  0.00    +0.000 HD
ATOM      9  H   UNL     1       5.997   2.968  -1.078  0.00  0.00    +0.000 HD
ATOM     10  H   UNL     1       7.709   2.691  -0.745  0.00  0.00    +0.000 HD
ENDBRANCH   1   7
BRANCH   1  12
ATOM     11  O   UNL     1       7.111  -0.674  -0.303  0.00  0.00    +0.000 OA
ATOM     12  C   UNL     1       6.543  -0.257  -1.305  0.00  0.00    +0.000 C 
BRANCH  12  13
ATOM     13  O   UNL     1       5.616  -0.942  -2.039  0.00  0.00    +0.000 OA
BRANCH  13  14
ATOM     14  C   UNL     1       6.060  -2.188  -2.585  0.00  0.00    +0.000 C 
ATOM     15  H   UNL     1       6.846  -2.607  -1.947  0.00  0.00    +0.000 HD
ATOM     16  H   UNL     1       5.218  -2.888  -2.631  0.00  0.00    +0.000 HD
BRANCH  14  17
ATOM     17  C   UNL     1       6.604  -1.951  -3.978  0.00  0.00    +0.000 C 
ATOM     18  H   UNL     1       7.605  -2.378  -4.085  0.00  0.00    +0.000 HD
ATOM     19  H   UNL     1       5.946  -2.399  -4.730  0.00  0.00    +0.000 HD
ATOM     20  H   UNL     1       6.652  -0.879  -4.195  0.00  0.00    +0.000 HD
ENDBRANCH  14  17
ENDBRANCH  13  14
ENDBRANCH  12  13
ENDBRANCH   1  12
TORSDOF 6
ENDMDL
MODEL 8
REMARK VINA RESULT:    -3.457      9.555     10.471
REMARK INTER + INTRA:          -4.547
REMARK INTER:                  -4.461
REMARK INTRA:                  -0.086
REMARK UNBOUND:                -0.180
REMARK  Name = 7342
REMARK  6 active torsions:
REMARK  status: ('A' for Active; 'I' for Inactive)
REMARK    1  A    between atoms: O_1  and  C_6
REMARK    2  A    between atoms: O_1  and  C_7
REMARK    3  A    between atoms: C_3  and  C_4
REMARK    4  A    between atoms: C_3  and  C_5
REMARK    5  A    between atoms: C_3  and  C_6
REMARK    6  A    between atoms: C_7  and  C_8
REMARK                            x       y       z     vdW  Elec       q    Type
REMARK                         _______ _______ _______ _____ _____    ______ ____
ROOT
ATOM      1  C   UNL     1      14.861   4.690  -4.848  0.00  0.00    +0.000 C 
ATOM      2  H   UNL     1      15.341   4.642  -3.863  0.00  0.00    +0.000 HD
ENDROOT
BRANCH   1   3
ATOM      3  C   UNL     1      13.722   3.679  -4.909  0.00  0.00    +0.000 C 
ATOM      4  H   UNL     1      13.086   3.856  -5.781  0.00  0.00    +0.000 HD
ATOM      5  H   UNL     1      13.097   3.730  -4.011  0.00  0.00    +0.000 HD
ATOM      6  H   UNL     1      14.113   2.657  -4.977  0.00  0.00    +0.000 HD
ENDBRANCH   1   3
BRANCH   1   7
ATOM      7  C   UNL     1      15.927   4.376  -5.895  0.00  0.00    +0.000 C 
ATOM      8  H   UNL     1      16.056   3.294  -6.008  0.00  0.00    +0.000 HD
ATOM      9  H   UNL     1      16.892   4.804  -5.606  0.00  0.00    +0.000 HD
ATOM     10  H   UNL     1      15.662   4.790  -6.874  0.00  0.00    +0.000 HD
ENDBRANCH   1   7
BRANCH   1  12
ATOM     11  O   UNL     1      14.791   6.932  -5.793  0.00  0.00    +0.000 OA
ATOM     12  C   UNL     1      14.313   6.092  -5.042  0.00  0.00    +0.000 C 
BRANCH  12  13
ATOM     13  O   UNL     1      13.206   6.260  -4.259  0.00  0.00    +0.000 OA
BRANCH  13  14
ATOM     14  C   UNL     1      12.910   7.611  -3.890  0.00  0.00    +0.000 C 
ATOM     15  H   UNL     1      13.845   8.153  -3.712  0.00  0.00    +0.000 HD
ATOM     16  H   UNL     1      12.356   8.098  -4.700  0.00  0.00    +0.000 HD
BRANCH  14  17
ATOM     17  C   UNL     1      12.073   7.607  -2.629  0.00  0.00    +0.000 C 
ATOM     18  H   UNL     1      12.662   7.931  -1.767  0.00  0.00    +0.000 HD
ATOM     19  H   UNL     1      11.209   8.270  -2.738  0.00  0.00    +0.000 HD
ATOM     20  H   UNL     1      11.680   6.603  -2.431  0.00  0.00    +0.000 HD
ENDBRANCH  14  17
ENDBRANCH  13  14
ENDBRANCH  12  13
ENDBRANCH   1  12
TORSDOF 6
ENDMDL
MODEL 9
REMARK VINA RESULT:    -3.399     15.856     17.146
REMARK INTER + INTRA:          -4.473
REMARK INTER:                  -4.293
REMARK INTRA:                  -0.180
REMARK UNBOUND:                -0.180
REMARK  Name = 7342
REMARK  6 active torsions:
REMARK  status: ('A' for Active; 'I' for Inactive)
REMARK    1  A    between atoms: O_1  and  C_6
REMARK    2  A    between atoms: O_1  and  C_7
REMARK    3  A    between atoms: C_3  and  C_4
REMARK    4  A    between atoms: C_3  and  C_5
REMARK    5  A    between atoms: C_3  and  C_6
REMARK    6  A    between atoms: C_7  and  C_8
REMARK                            x       y       z     vdW  Elec       q    Type
REMARK                         _______ _______ _______ _____ _____    ______ ____
ROOT
ATOM      1  C   UNL     1      -1.326 -13.094  -9.126  0.00  0.00    +0.000 C 
ATOM      2  H   UNL     1      -2.321 -12.631  -9.114  0.00  0.00    +0.000 HD
ENDROOT
BRANCH   1   3
ATOM      3  C   UNL     1      -1.406 -14.486  -8.512  0.00  0.00    +0.000 C 
ATOM      4  H   UNL     1      -2.437 -14.852  -8.500  0.00  0.00    +0.000 HD
ATOM      5  H   UNL     1      -1.029 -14.489  -7.483  0.00  0.00    +0.000 HD
ATOM      6  H   UNL     1      -0.800 -15.199  -9.084  0.00  0.00    +0.000 HD
ENDBRANCH   1   3
BRANCH   1   7
ATOM      7  C   UNL     1      -0.391 -12.194  -8.321  0.00  0.00    +0.000 C 
ATOM      8  H   UNL     1      -0.927 -11.319  -7.938  0.00  0.00    +0.000 HD
ATOM      9  H   UNL     1       0.437 -11.840  -8.943  0.00  0.00    +0.000 HD
ATOM     10  H   UNL     1       0.041 -12.727  -7.467  0.00  0.00    +0.000 HD
ENDBRANCH   1   7
BRANCH   1  12
ATOM     11  O   UNL     1       0.183 -12.737 -11.002  0.00  0.00    +0.000 OA
ATOM     12  C   UNL     1      -0.867 -13.195 -10.569  0.00  0.00    +0.000 C 
BRANCH  12  13
ATOM     13  O   UNL     1      -1.799 -13.880 -11.296  0.00  0.00    +0.000 OA
BRANCH  13  14
ATOM     14  C   UNL     1      -1.339 -14.413 -12.542  0.00  0.00    +0.000 C 
ATOM     15  H   UNL     1      -2.107 -14.262 -13.309  0.00  0.00    +0.000 HD
ATOM     16  H   UNL     1      -0.419 -13.900 -12.843  0.00  0.00    +0.000 HD
BRANCH  14  17
ATOM     17  C   UNL     1      -1.066 -15.893 -12.375  0.00  0.00    +0.000 C 
ATOM     18  H   UNL     1      -1.925 -16.401 -11.927  0.00  0.00    +0.000 HD
ATOM     19  H   UNL     1      -0.847 -16.356 -13.342  0.00  0.00    +0.000 HD
ATOM     20  H   UNL     1      -0.190 -16.053 -11.739  0.00  0.00    +0.000 HD
ENDBRANCH  14  17
ENDBRANCH  13  14
ENDBRANCH  12  13
ENDBRANCH   1  12
TORSDOF 6
ENDMDL
MODEL 10
REMARK VINA RESULT:    -3.326      2.263      4.225
REMARK INTER + INTRA:          -4.381
REMARK INTER:                  -4.278
REMARK INTRA:                  -0.103
REMARK UNBOUND:                -0.180
REMARK  Name = 7342
REMARK  6 active torsions:
REMARK  status: ('A' for Active; 'I' for Inactive)
REMARK    1  A    between atoms: O_1  and  C_6
REMARK    2  A    between atoms: O_1  and  C_7
REMARK    3  A    between atoms: C_3  and  C_4
REMARK    4  A    between atoms: C_3  and  C_5
REMARK    5  A    between atoms: C_3  and  C_6
REMARK    6  A    between atoms: C_7  and  C_8
REMARK                            x       y       z     vdW  Elec       q    Type
REMARK                         _______ _______ _______ _____ _____    ______ ____
ROOT
ATOM      1  C   UNL     1       8.162   0.944  -0.146  0.00  0.00    +0.000 C 
ATOM      2  H   UNL     1       8.488   0.679  -1.160  0.00  0.00    +0.000 HD
ENDROOT
BRANCH   1   3
ATOM      3  C   UNL     1       8.006   2.456  -0.040  0.00  0.00    +0.000 C 
ATOM      4  H   UNL     1       8.759   2.882   0.630  0.00  0.00    +0.000 HD
ATOM      5  H   UNL     1       7.015   2.728   0.340  0.00  0.00    +0.000 HD
ATOM      6  H   UNL     1       8.121   2.929  -1.022  0.00  0.00    +0.000 HD
ENDBRANCH   1   3
BRANCH   1   7
ATOM      7  C   UNL     1       9.225   0.435   0.825  0.00  0.00    +0.000 C 
ATOM      8  H   UNL     1       8.783  -0.239   1.567  0.00  0.00    +0.000 HD
ATOM      9  H   UNL     1       9.693   1.267   1.359  0.00  0.00    +0.000 HD
ATOM     10  H   UNL     1      10.018  -0.110   0.301  0.00  0.00    +0.000 HD
ENDBRANCH   1   7
BRANCH   1  12
ATOM     11  O   UNL     1       6.281   0.200   1.209  0.00  0.00    +0.000 OA
ATOM     12  C   UNL     1       6.827   0.271   0.115  0.00  0.00    +0.000 C 
BRANCH  12  13
ATOM     13  O   UNL     1       6.333  -0.229  -1.057  0.00  0.00    +0.000 OA
BRANCH  13  14
ATOM     14  C   UNL     1       7.002  -1.389  -1.563  0.00  0.00    +0.000 C 
ATOM     15  H   UNL     1       7.870  -1.080  -2.156  0.00  0.00    +0.000 HD
ATOM     16  H   UNL     1       7.337  -2.012  -0.726  0.00  0.00    +0.000 HD
BRANCH  14  17
ATOM     17  C   UNL     1       6.041  -2.173  -2.431  0.00  0.00    +0.000 C 
ATOM     18  H   UNL     1       6.020  -1.775  -3.450  0.00  0.00    +0.000 HD
ATOM     19  H   UNL     1       6.330  -3.228  -2.470  0.00  0.00    +0.000 HD
ATOM     20  H   UNL     1       5.028  -2.135  -2.017  0.00  0.00    +0.000 HD
ENDBRANCH  14  17
ENDBRANCH  13  14
ENDBRANCH  12  13
ENDBRANCH   1  12
TORSDOF 6
ENDMDL
