MODEL 1
REMARK VINA RESULT:    -4.871      0.000      0.000
REMARK INTER + INTRA:          -6.527
REMARK INTER:                  -6.144
REMARK INTRA:                  -0.384
REMARK UNBOUND:                -0.517
REMARK  Name = 6877
REMARK  5 active torsions:
REMARK  status: ('A' for Active; 'I' for Inactive)
REMARK    1  A    between atoms: O_1  and  C_8
REMARK    2  A    between atoms: O_1  and  C_10
REMARK    3  A    between atoms: N_3  and  C_5
REMARK    4  A    between atoms: C_4  and  C_8
REMARK    5  A    between atoms: C_10  and  C_12
REMARK                            x       y       z     vdW  Elec       q    Type
REMARK                         _______ _______ _______ _____ _____    ______ ____
ROOT
ATOM      1  C   UNL     1      -0.890 -13.354  -9.790  0.00  0.00    +0.000 A 
ATOM      2  C   UNL     1      -1.456 -14.332  -8.972  0.00  0.00    +0.000 A 
ATOM      3  C   UNL     1      -0.393 -12.178  -9.229  0.00  0.00    +0.000 A 
ATOM      4  C   UNL     1      -1.523 -14.135  -7.593  0.00  0.00    +0.000 A 
ATOM      5  C   UNL     1      -0.462 -11.980  -7.850  0.00  0.00    +0.000 A 
ATOM      6  C   UNL     1      -1.026 -12.958  -7.032  0.00  0.00    +0.000 A 
ATOM      7  H   UNL     1       0.066 -11.401  -9.836  0.00  0.00    +0.000 HD
ATOM      8  H   UNL     1      -1.960 -14.889  -6.944  0.00  0.00    +0.000 HD
ATOM      9  H   UNL     1      -0.071 -11.066  -7.413  0.00  0.00    +0.000 HD
ATOM     10  H   UNL     1      -1.078 -12.805  -5.958  0.00  0.00    +0.000 HD
ENDROOT
BRANCH   2  11
ATOM     11  N   UNL     1      -1.965 -15.531  -9.521  0.00  0.00    +0.000 N 
ATOM     12  H   UNL     1      -1.598 -16.429  -9.236  0.00  0.00    +0.000 HD
ATOM     13  H   UNL     1      -2.697 -15.491 -10.217  0.00  0.00    +0.000 HD
ENDBRANCH   2  11
BRANCH   1  15
ATOM     14  O   UNL     1      -1.661 -14.103 -11.919  0.00  0.00    +0.000 OA
ATOM     15  C   UNL     1      -0.805 -13.531 -11.235  0.00  0.00    +0.000 C 
BRANCH  15  16
ATOM     16  O   UNL     1       0.342 -12.982 -11.738  0.00  0.00    +0.000 OA
BRANCH  16  17
ATOM     17  C   UNL     1       0.739 -13.408 -13.046  0.00  0.00    +0.000 C 
ATOM     18  H   UNL     1      -0.099 -13.921 -13.531  0.00  0.00    +0.000 HD
ATOM     19  H   UNL     1       1.026 -12.536 -13.642  0.00  0.00    +0.000 HD
BRANCH  17  20
ATOM     20  C   UNL     1       1.915 -14.353 -12.920  0.00  0.00    +0.000 C 
ATOM     21  H   UNL     1       2.155 -14.810 -13.884  0.00  0.00    +0.000 HD
ATOM     22  H   UNL     1       2.798 -13.821 -12.551  0.00  0.00    +0.000 HD
ATOM     23  H   UNL     1       1.697 -15.146 -12.197  0.00  0.00    +0.000 HD
ENDBRANCH  17  20
ENDBRANCH  16  17
ENDBRANCH  15  16
ENDBRANCH   1  15
TORSDOF 5
ENDMDL
MODEL 2
REMARK VINA RESULT:    -4.647      1.936      2.316
REMARK INTER + INTRA:          -6.251
REMARK INTER:                  -5.832
REMARK INTRA:                  -0.419
REMARK UNBOUND:                -0.517
REMARK  Name = 6877
REMARK  5 active torsions:
REMARK  status: ('A' for Active; 'I' for Inactive)
REMARK    1  A    between atoms: O_1  and  C_8
REMARK    2  A    between atoms: O_1  and  C_10
REMARK    3  A    between atoms: N_3  and  C_5
REMARK    4  A    between atoms: C_4  and  C_8
REMARK    5  A    between atoms: C_10  and  C_12
REMARK                            x       y       z     vdW  Elec       q    Type
REMARK                         _______ _______ _______ _____ _____    ______ ____
ROOT
ATOM      1  C   UNL     1      -1.166 -14.004 -10.294  0.00  0.00    +0.000 A 
ATOM      2  C   UNL     1      -1.683 -14.542  -9.116  0.00  0.00    +0.000 A 
ATOM      3  C   UNL     1      -0.500 -12.779 -10.268  0.00  0.00    +0.000 A 
ATOM      4  C   UNL     1      -1.532 -13.856  -7.911  0.00  0.00    +0.000 A 
ATOM      5  C   UNL     1      -0.350 -12.093  -9.063  0.00  0.00    +0.000 A 
ATOM      6  C   UNL     1      -0.865 -12.630  -7.885  0.00  0.00    +0.000 A 
ATOM      7  H   UNL     1      -0.073 -12.338 -11.166  0.00  0.00    +0.000 HD
ATOM      8  H   UNL     1      -1.928 -14.264  -6.985  0.00  0.00    +0.000 HD
ATOM      9  H   UNL     1       0.172 -11.140  -9.043  0.00  0.00    +0.000 HD
ATOM     10  H   UNL     1      -0.747 -12.096  -6.946  0.00  0.00    +0.000 HD
ENDROOT
BRANCH   2  11
ATOM     11  N   UNL     1      -2.361 -15.782  -9.120  0.00  0.00    +0.000 N 
ATOM     12  H   UNL     1      -2.030 -16.557  -8.563  0.00  0.00    +0.000 HD
ATOM     13  H   UNL     1      -3.181 -15.901  -9.700  0.00  0.00    +0.000 HD
ENDBRANCH   2  11
BRANCH   1  15
ATOM     14  O   UNL     1      -1.766 -14.182 -12.595  0.00  0.00    +0.000 OA
ATOM     15  C   UNL     1      -1.307 -14.697 -11.570  0.00  0.00    +0.000 C 
BRANCH  15  16
ATOM     16  O   UNL     1      -0.867 -15.988 -11.488  0.00  0.00    +0.000 OA
BRANCH  16  17
ATOM     17  C   UNL     1      -1.289 -16.879 -12.526  0.00  0.00    +0.000 C 
ATOM     18  H   UNL     1      -1.998 -16.362 -13.182  0.00  0.00    +0.000 HD
ATOM     19  H   UNL     1      -0.419 -17.198 -13.110  0.00  0.00    +0.000 HD
BRANCH  17  20
ATOM     20  C   UNL     1      -1.956 -18.085 -11.899  0.00  0.00    +0.000 C 
ATOM     21  H   UNL     1      -2.418 -18.718 -12.662  0.00  0.00    +0.000 HD
ATOM     22  H   UNL     1      -1.227 -18.681 -11.340  0.00  0.00    +0.000 HD
ATOM     23  H   UNL     1      -2.726 -17.773 -11.186  0.00  0.00    +0.000 HD
ENDBRANCH  17  20
ENDBRANCH  16  17
ENDBRANCH  15  16
ENDBRANCH   1  15
TORSDOF 5
ENDMDL
MODEL 3
REMARK VINA RESULT:    -4.620      3.298      5.318
REMARK INTER + INTRA:          -6.218
REMARK INTER:                  -5.726
REMARK INTRA:                  -0.492
REMARK UNBOUND:                -0.517
REMARK  Name = 6877
REMARK  5 active torsions:
REMARK  status: ('A' for Active; 'I' for Inactive)
REMARK    1  A    between atoms: O_1  and  C_8
REMARK    2  A    between atoms: O_1  and  C_10
REMARK    3  A    between atoms: N_3  and  C_5
REMARK    4  A    between atoms: C_4  and  C_8
REMARK    5  A    between atoms: C_10  and  C_12
REMARK                            x       y       z     vdW  Elec       q    Type
REMARK                         _______ _______ _______ _____ _____    ______ ____
ROOT
ATOM      1  C   UNL     1      -1.414 -13.713  -7.722  0.00  0.00    +0.000 A 
ATOM      2  C   UNL     1      -0.619 -12.580  -7.895  0.00  0.00    +0.000 A 
ATOM      3  C   UNL     1      -1.820 -14.455  -8.830  0.00  0.00    +0.000 A 
ATOM      4  C   UNL     1      -0.229 -12.190  -9.176  0.00  0.00    +0.000 A 
ATOM      5  C   UNL     1      -1.432 -14.065 -10.112  0.00  0.00    +0.000 A 
ATOM      6  C   UNL     1      -0.636 -12.933 -10.285  0.00  0.00    +0.000 A 
ATOM      7  H   UNL     1      -2.429 -15.351  -8.731  0.00  0.00    +0.000 HD
ATOM      8  H   UNL     1       0.390 -11.310  -9.324  0.00  0.00    +0.000 HD
ATOM      9  H   UNL     1      -1.745 -14.645 -10.974  0.00  0.00    +0.000 HD
ATOM     10  H   UNL     1      -0.333 -12.629 -11.282  0.00  0.00    +0.000 HD
ENDROOT
BRANCH   2  11
ATOM     11  N   UNL     1      -0.196 -11.815  -6.784  0.00  0.00    +0.000 N 
ATOM     12  H   UNL     1       0.770 -11.536  -6.684  0.00  0.00    +0.000 HD
ATOM     13  H   UNL     1      -0.866 -11.553  -6.073  0.00  0.00    +0.000 HD
ENDBRANCH   2  11
BRANCH   1  15
ATOM     14  O   UNL     1      -1.064 -14.420  -5.472  0.00  0.00    +0.000 OA
ATOM     15  C   UNL     1      -1.838 -14.147  -6.396  0.00  0.00    +0.000 C 
BRANCH  15  16
ATOM     16  O   UNL     1      -3.200 -14.214  -6.304  0.00  0.00    +0.000 OA
BRANCH  16  17
ATOM     17  C   UNL     1      -3.753 -15.438  -5.809  0.00  0.00    +0.000 C 
ATOM     18  H   UNL     1      -2.939 -16.116  -5.527  0.00  0.00    +0.000 HD
ATOM     19  H   UNL     1      -4.374 -15.229  -4.932  0.00  0.00    +0.000 HD
BRANCH  17  20
ATOM     20  C   UNL     1      -4.595 -16.073  -6.895  0.00  0.00    +0.000 C 
ATOM     21  H   UNL     1      -5.642 -16.146  -6.586  0.00  0.00    +0.000 HD
ATOM     22  H   UNL     1      -4.540 -15.485  -7.818  0.00  0.00    +0.000 HD
ATOM     23  H   UNL     1      -4.226 -17.075  -7.134  0.00  0.00    +0.000 HD
ENDBRANCH  17  20
ENDBRANCH  16  17
ENDBRANCH  15  16
ENDBRANCH   1  15
TORSDOF 5
ENDMDL
MODEL 4
REMARK VINA RESULT:    -4.424     14.918     17.514
REMARK INTER + INTRA:          -5.976
REMARK INTER:                  -5.615
REMARK INTRA:                  -0.361
REMARK UNBOUND:                -0.517
REMARK  Name = 6877
REMARK  5 active torsions:
REMARK  status: ('A' for Active; 'I' for Inactive)
REMARK    1  A    between atoms: O_1  and  C_8
REMARK    2  A    between atoms: O_1  and  C_10
REMARK    3  A    between atoms: N_3  and  C_5
REMARK    4  A    between atoms: C_4  and  C_8
REMARK    5  A    between atoms: C_10  and  C_12
REMARK                            x       y       z     vdW  Elec       q    Type
REMARK                         _______ _______ _______ _____ _____    ______ ____
ROOT
ATOM      1  C   UNL     1       7.102 -11.392 -25.573  0.00  0.00    +0.000 A 
ATOM      2  C   UNL     1       6.967 -12.763 -25.350  0.00  0.00    +0.000 A 
ATOM      3  C   UNL     1       7.990 -10.928 -26.543  0.00  0.00    +0.000 A 
ATOM      4  C   UNL     1       7.719 -13.668 -26.098  0.00  0.00    +0.000 A 
ATOM      5  C   UNL     1       8.743 -11.834 -27.290  0.00  0.00    +0.000 A 
ATOM      6  C   UNL     1       8.608 -13.203 -27.069  0.00  0.00    +0.000 A 
ATOM      7  H   UNL     1       8.110  -9.867 -26.752  0.00  0.00    +0.000 HD
ATOM      8  H   UNL     1       7.623 -14.739 -25.935  0.00  0.00    +0.000 HD
ATOM      9  H   UNL     1       9.431 -11.471 -28.048  0.00  0.00    +0.000 HD
ATOM     10  H   UNL     1       9.193 -13.909 -27.651  0.00  0.00    +0.000 HD
ENDROOT
BRANCH   2  11
ATOM     11  N   UNL     1       6.073 -13.254 -24.372  0.00  0.00    +0.000 N 
ATOM     12  H   UNL     1       5.308 -12.686 -24.037  0.00  0.00    +0.000 HD
ATOM     13  H   UNL     1       6.208 -14.182 -23.992  0.00  0.00    +0.000 HD
ENDBRANCH   2  11
BRANCH   1  15
ATOM     14  O   UNL     1       6.821  -9.459 -24.206  0.00  0.00    +0.000 OA
ATOM     15  C   UNL     1       6.330 -10.420 -24.808  0.00  0.00    +0.000 C 
BRANCH  15  16
ATOM     16  O   UNL     1       4.994 -10.707 -24.841  0.00  0.00    +0.000 OA
BRANCH  16  17
ATOM     17  C   UNL     1       4.098  -9.639 -24.510  0.00  0.00    +0.000 C 
ATOM     18  H   UNL     1       4.673  -8.794 -24.113  0.00  0.00    +0.000 HD
ATOM     19  H   UNL     1       3.560  -9.323 -25.410  0.00  0.00    +0.000 HD
BRANCH  17  20
ATOM     20  C   UNL     1       3.115 -10.127 -23.468  0.00  0.00    +0.000 C 
ATOM     21  H   UNL     1       2.133 -10.311 -23.913  0.00  0.00    +0.000 HD
ATOM     22  H   UNL     1       3.472 -11.052 -23.004  0.00  0.00    +0.000 HD
ATOM     23  H   UNL     1       3.006  -9.390 -22.666  0.00  0.00    +0.000 HD
ENDBRANCH  17  20
ENDBRANCH  16  17
ENDBRANCH  15  16
ENDBRANCH   1  15
TORSDOF 5
ENDMDL
MODEL 5
REMARK VINA RESULT:    -4.274     35.385     37.281
REMARK INTER + INTRA:          -5.791
REMARK INTER:                  -5.344
REMARK INTRA:                  -0.447
REMARK UNBOUND:                -0.517
REMARK  Name = 6877
REMARK  5 active torsions:
REMARK  status: ('A' for Active; 'I' for Inactive)
REMARK    1  A    between atoms: O_1  and  C_8
REMARK    2  A    between atoms: O_1  and  C_10
REMARK    3  A    between atoms: N_3  and  C_5
REMARK    4  A    between atoms: C_4  and  C_8
REMARK    5  A    between atoms: C_10  and  C_12
REMARK                            x       y       z     vdW  Elec       q    Type
REMARK                         _______ _______ _______ _____ _____    ______ ____
ROOT
ATOM      1  C   UNL     1     -15.948   1.813  20.623  0.00  0.00    +0.000 A 
ATOM      2  C   UNL     1     -17.224   2.314  20.365  0.00  0.00    +0.000 A 
ATOM      3  C   UNL     1     -15.360   2.013  21.872  0.00  0.00    +0.000 A 
ATOM      4  C   UNL     1     -17.912   3.014  21.356  0.00  0.00    +0.000 A 
ATOM      5  C   UNL     1     -16.048   2.714  22.862  0.00  0.00    +0.000 A 
ATOM      6  C   UNL     1     -17.323   3.214  22.606  0.00  0.00    +0.000 A 
ATOM      7  H   UNL     1     -14.373   1.624  22.111  0.00  0.00    +0.000 HD
ATOM      8  H   UNL     1     -18.907   3.409  21.169  0.00  0.00    +0.000 HD
ATOM      9  H   UNL     1     -15.591   2.866  23.836  0.00  0.00    +0.000 HD
ATOM     10  H   UNL     1     -17.859   3.759  23.377  0.00  0.00    +0.000 HD
ENDROOT
BRANCH   2  11
ATOM     11  N   UNL     1     -17.838   2.123  19.107  0.00  0.00    +0.000 N 
ATOM     12  H   UNL     1     -18.613   2.700  18.815  0.00  0.00    +0.000 HD
ATOM     13  H   UNL     1     -17.506   1.389  18.495  0.00  0.00    +0.000 HD
ENDBRANCH   2  11
BRANCH   1  15
ATOM     14  O   UNL     1     -15.019  -0.145  19.628  0.00  0.00    +0.000 OA
ATOM     15  C   UNL     1     -15.203   1.077  19.609  0.00  0.00    +0.000 C 
BRANCH  15  16
ATOM     16  O   UNL     1     -14.733   1.910  18.631  0.00  0.00    +0.000 OA
BRANCH  16  17
ATOM     17  C   UNL     1     -14.639   1.364  17.311  0.00  0.00    +0.000 C 
ATOM     18  H   UNL     1     -13.616   1.492  16.938  0.00  0.00    +0.000 HD
ATOM     19  H   UNL     1     -14.887   0.298  17.339  0.00  0.00    +0.000 HD
BRANCH  17  20
ATOM     20  C   UNL     1     -15.609   2.094  16.406  0.00  0.00    +0.000 C 
ATOM     21  H   UNL     1     -15.086   2.813  15.770  0.00  0.00    +0.000 HD
ATOM     22  H   UNL     1     -16.149   1.385  15.769  0.00  0.00    +0.000 HD
ATOM     23  H   UNL     1     -16.362   2.626  16.997  0.00  0.00    +0.000 HD
ENDBRANCH  17  20
ENDBRANCH  16  17
ENDBRANCH  15  16
ENDBRANCH   1  15
TORSDOF 5
ENDMDL
MODEL 6
REMARK VINA RESULT:    -4.260     35.258     36.526
REMARK INTER + INTRA:          -5.773
REMARK INTER:                  -5.309
REMARK INTRA:                  -0.464
REMARK UNBOUND:                -0.517
REMARK  Name = 6877
REMARK  5 active torsions:
REMARK  status: ('A' for Active; 'I' for Inactive)
REMARK    1  A    between atoms: O_1  and  C_8
REMARK    2  A    between atoms: O_1  and  C_10
REMARK    3  A    between atoms: N_3  and  C_5
REMARK    4  A    between atoms: C_4  and  C_8
REMARK    5  A    between atoms: C_10  and  C_12
REMARK                            x       y       z     vdW  Elec       q    Type
REMARK                         _______ _______ _______ _____ _____    ______ ____
ROOT
ATOM      1  C   UNL     1     -25.994  -3.707  13.568  0.00  0.00    +0.000 A 
ATOM      2  C   UNL     1     -25.813  -3.591  12.190  0.00  0.00    +0.000 A 
ATOM      3  C   UNL     1     -27.149  -4.304  14.072  0.00  0.00    +0.000 A 
ATOM      4  C   UNL     1     -26.788  -4.072  11.316  0.00  0.00    +0.000 A 
ATOM      5  C   UNL     1     -28.124  -4.785  13.198  0.00  0.00    +0.000 A 
ATOM      6  C   UNL     1     -27.944  -4.670  11.821  0.00  0.00    +0.000 A 
ATOM      7  H   UNL     1     -27.315  -4.423  15.141  0.00  0.00    +0.000 HD
ATOM      8  H   UNL     1     -26.659  -3.989  10.240  0.00  0.00    +0.000 HD
ATOM      9  H   UNL     1     -29.022  -5.253  13.591  0.00  0.00    +0.000 HD
ATOM     10  H   UNL     1     -28.702  -5.045  11.140  0.00  0.00    +0.000 HD
ENDROOT
BRANCH   2  11
ATOM     11  N   UNL     1     -24.650  -2.989  11.659  0.00  0.00    +0.000 N 
ATOM     12  H   UNL     1     -23.806  -3.527  11.519  0.00  0.00    +0.000 HD
ATOM     13  H   UNL     1     -24.657  -2.005  11.428  0.00  0.00    +0.000 HD
ENDBRANCH   2  11
BRANCH   1  15
ATOM     14  O   UNL     1     -24.359  -2.164  14.362  0.00  0.00    +0.000 OA
ATOM     15  C   UNL     1     -24.994  -3.214  14.508  0.00  0.00    +0.000 C 
BRANCH  15  16
ATOM     16  O   UNL     1     -24.849  -4.060  15.572  0.00  0.00    +0.000 OA
BRANCH  16  17
ATOM     17  C   UNL     1     -24.818  -3.459  16.872  0.00  0.00    +0.000 C 
ATOM     18  H   UNL     1     -23.945  -3.829  17.421  0.00  0.00    +0.000 HD
ATOM     19  H   UNL     1     -24.749  -2.371  16.769  0.00  0.00    +0.000 HD
BRANCH  17  20
ATOM     20  C   UNL     1     -26.085  -3.827  17.614  0.00  0.00    +0.000 C 
ATOM     21  H   UNL     1     -25.870  -4.514  18.438  0.00  0.00    +0.000 HD
ATOM     22  H   UNL     1     -26.568  -2.931  18.018  0.00  0.00    +0.000 HD
ATOM     23  H   UNL     1     -26.805  -4.299  16.938  0.00  0.00    +0.000 HD
ENDBRANCH  17  20
ENDBRANCH  16  17
ENDBRANCH  15  16
ENDBRANCH   1  15
TORSDOF 5
ENDMDL
MODEL 7
REMARK VINA RESULT:    -4.212     15.992     16.885
REMARK INTER + INTRA:          -5.714
REMARK INTER:                  -5.342
REMARK INTRA:                  -0.372
REMARK UNBOUND:                -0.517
REMARK  Name = 6877
REMARK  5 active torsions:
REMARK  status: ('A' for Active; 'I' for Inactive)
REMARK    1  A    between atoms: O_1  and  C_8
REMARK    2  A    between atoms: O_1  and  C_10
REMARK    3  A    between atoms: N_3  and  C_5
REMARK    4  A    between atoms: C_4  and  C_8
REMARK    5  A    between atoms: C_10  and  C_12
REMARK                            x       y       z     vdW  Elec       q    Type
REMARK                         _______ _______ _______ _____ _____    ______ ____
ROOT
ATOM      1  C   UNL     1       5.615 -11.952 -25.042  0.00  0.00    +0.000 A 
ATOM      2  C   UNL     1       6.655 -11.110 -25.435  0.00  0.00    +0.000 A 
ATOM      3  C   UNL     1       4.460 -11.415 -24.474  0.00  0.00    +0.000 A 
ATOM      4  C   UNL     1       6.539  -9.731 -25.262  0.00  0.00    +0.000 A 
ATOM      5  C   UNL     1       4.345 -10.036 -24.300  0.00  0.00    +0.000 A 
ATOM      6  C   UNL     1       5.384  -9.194 -24.693  0.00  0.00    +0.000 A 
ATOM      7  H   UNL     1       3.625 -12.042 -24.169  0.00  0.00    +0.000 HD
ATOM      8  H   UNL     1       7.342  -9.064 -25.565  0.00  0.00    +0.000 HD
ATOM      9  H   UNL     1       3.444  -9.618 -23.861  0.00  0.00    +0.000 HD
ATOM     10  H   UNL     1       5.294  -8.120 -24.558  0.00  0.00    +0.000 HD
ENDROOT
BRANCH   2  11
ATOM     11  N   UNL     1       7.834 -11.634 -26.013  0.00  0.00    +0.000 N 
ATOM     12  H   UNL     1       7.789 -12.358 -26.716  0.00  0.00    +0.000 HD
ATOM     13  H   UNL     1       8.735 -11.290 -25.710  0.00  0.00    +0.000 HD
ENDBRANCH   2  11
BRANCH   1  15
ATOM     14  O   UNL     1       6.738 -14.056 -25.044  0.00  0.00    +0.000 OA
ATOM     15  C   UNL     1       5.705 -13.398 -25.210  0.00  0.00    +0.000 C 
BRANCH  15  16
ATOM     16  O   UNL     1       4.502 -13.934 -25.576  0.00  0.00    +0.000 OA
BRANCH  16  17
ATOM     17  C   UNL     1       4.413 -14.474 -26.899  0.00  0.00    +0.000 C 
ATOM     18  H   UNL     1       4.091 -13.688 -27.591  0.00  0.00    +0.000 HD
ATOM     19  H   UNL     1       5.394 -14.850 -27.206  0.00  0.00    +0.000 HD
BRANCH  17  20
ATOM     20  C   UNL     1       3.406 -15.605 -26.902  0.00  0.00    +0.000 C 
ATOM     21  H   UNL     1       2.779 -15.573 -26.006  0.00  0.00    +0.000 HD
ATOM     22  H   UNL     1       2.762 -15.545 -27.786  0.00  0.00    +0.000 HD
ATOM     23  H   UNL     1       3.914 -16.574 -26.945  0.00  0.00    +0.000 HD
ENDBRANCH  17  20
ENDBRANCH  16  17
ENDBRANCH  15  16
ENDBRANCH   1  15
TORSDOF 5
ENDMDL
MODEL 8
REMARK VINA RESULT:    -4.113     18.148     19.521
REMARK INTER + INTRA:          -5.591
REMARK INTER:                  -5.124
REMARK INTRA:                  -0.467
REMARK UNBOUND:                -0.517
REMARK  Name = 6877
REMARK  5 active torsions:
REMARK  status: ('A' for Active; 'I' for Inactive)
REMARK    1  A    between atoms: O_1  and  C_8
REMARK    2  A    between atoms: O_1  and  C_10
REMARK    3  A    between atoms: N_3  and  C_5
REMARK    4  A    between atoms: C_4  and  C_8
REMARK    5  A    between atoms: C_10  and  C_12
REMARK                            x       y       z     vdW  Elec       q    Type
REMARK                         _______ _______ _______ _____ _____    ______ ____
ROOT
ATOM      1  C   UNL     1     -17.313  -9.666  -0.083  0.00  0.00    +0.000 A 
ATOM      2  C   UNL     1     -18.003 -10.526   0.772  0.00  0.00    +0.000 A 
ATOM      3  C   UNL     1     -16.430  -8.722   0.440  0.00  0.00    +0.000 A 
ATOM      4  C   UNL     1     -17.809 -10.441   2.151  0.00  0.00    +0.000 A 
ATOM      5  C   UNL     1     -16.237  -8.637   1.819  0.00  0.00    +0.000 A 
ATOM      6  C   UNL     1     -16.926  -9.496   2.675  0.00  0.00    +0.000 A 
ATOM      7  H   UNL     1     -15.866  -8.046  -0.198  0.00  0.00    +0.000 HD
ATOM      8  H   UNL     1     -18.339 -11.105   2.829  0.00  0.00    +0.000 HD
ATOM      9  H   UNL     1     -15.547  -7.904   2.226  0.00  0.00    +0.000 HD
ATOM     10  H   UNL     1     -16.775  -9.430   3.748  0.00  0.00    +0.000 HD
ENDROOT
BRANCH   2  11
ATOM     11  N   UNL     1     -18.901 -11.490   0.262  0.00  0.00    +0.000 N 
ATOM     12  H   UNL     1     -19.051 -11.584  -0.732  0.00  0.00    +0.000 HD
ATOM     13  H   UNL     1     -19.412 -12.085   0.901  0.00  0.00    +0.000 HD
ENDBRANCH   2  11
BRANCH   1  15
ATOM     14  O   UNL     1     -17.992  -8.827  -2.209  0.00  0.00    +0.000 OA
ATOM     15  C   UNL     1     -17.493  -9.730  -1.528  0.00  0.00    +0.000 C 
BRANCH  15  16
ATOM     16  O   UNL     1     -17.039 -10.915  -2.037  0.00  0.00    +0.000 OA
BRANCH  16  17
ATOM     17  C   UNL     1     -15.660 -10.966  -2.419  0.00  0.00    +0.000 C 
ATOM     18  H   UNL     1     -15.096 -10.227  -1.839  0.00  0.00    +0.000 HD
ATOM     19  H   UNL     1     -15.263 -11.967  -2.217  0.00  0.00    +0.000 HD
BRANCH  17  20
ATOM     20  C   UNL     1     -15.547 -10.656  -3.896  0.00  0.00    +0.000 C 
ATOM     21  H   UNL     1     -15.940 -11.480  -4.500  0.00  0.00    +0.000 HD
ATOM     22  H   UNL     1     -16.099  -9.743  -4.142  0.00  0.00    +0.000 HD
ATOM     23  H   UNL     1     -14.502 -10.481  -4.174  0.00  0.00    +0.000 HD
ENDBRANCH  17  20
ENDBRANCH  16  17
ENDBRANCH  15  16
ENDBRANCH   1  15
TORSDOF 5
ENDMDL
MODEL 9
REMARK VINA RESULT:    -4.089     19.212     20.518
REMARK INTER + INTRA:          -5.562
REMARK INTER:                  -5.045
REMARK INTRA:                  -0.517
REMARK UNBOUND:                -0.517
REMARK  Name = 6877
REMARK  5 active torsions:
REMARK  status: ('A' for Active; 'I' for Inactive)
REMARK    1  A    between atoms: O_1  and  C_8
REMARK    2  A    between atoms: O_1  and  C_10
REMARK    3  A    between atoms: N_3  and  C_5
REMARK    4  A    between atoms: C_4  and  C_8
REMARK    5  A    between atoms: C_10  and  C_12
REMARK                            x       y       z     vdW  Elec       q    Type
REMARK                         _______ _______ _______ _____ _____    ______ ____
ROOT
ATOM      1  C   UNL     1     -17.148 -10.004   1.161  0.00  0.00    +0.000 A 
ATOM      2  C   UNL     1     -17.908 -11.120   1.512  0.00  0.00    +0.000 A 
ATOM      3  C   UNL     1     -16.925  -8.991   2.093  0.00  0.00    +0.000 A 
ATOM      4  C   UNL     1     -18.444 -11.222   2.796  0.00  0.00    +0.000 A 
ATOM      5  C   UNL     1     -17.463  -9.093   3.376  0.00  0.00    +0.000 A 
ATOM      6  C   UNL     1     -18.222 -10.208   3.728  0.00  0.00    +0.000 A 
ATOM      7  H   UNL     1     -16.327  -8.114   1.857  0.00  0.00    +0.000 HD
ATOM      8  H   UNL     1     -19.037 -12.087   3.083  0.00  0.00    +0.000 HD
ATOM      9  H   UNL     1     -17.286  -8.305   4.102  0.00  0.00    +0.000 HD
ATOM     10  H   UNL     1     -18.639 -10.288   4.727  0.00  0.00    +0.000 HD
ENDROOT
BRANCH   2  11
ATOM     11  N   UNL     1     -18.145 -12.158   0.583  0.00  0.00    +0.000 N 
ATOM     12  H   UNL     1     -18.297 -11.954  -0.395  0.00  0.00    +0.000 HD
ATOM     13  H   UNL     1     -18.177 -13.117   0.902  0.00  0.00    +0.000 HD
ENDBRANCH   2  11
BRANCH   1  15
ATOM     14  O   UNL     1     -15.589 -10.496  -0.575  0.00  0.00    +0.000 OA
ATOM     15  C   UNL     1     -16.574  -9.867  -0.172  0.00  0.00    +0.000 C 
BRANCH  15  16
ATOM     16  O   UNL     1     -17.263  -8.955  -0.922  0.00  0.00    +0.000 OA
BRANCH  16  17
ATOM     17  C   UNL     1     -17.824  -9.425  -2.152  0.00  0.00    +0.000 C 
ATOM     18  H   UNL     1     -17.747  -8.637  -2.910  0.00  0.00    +0.000 HD
ATOM     19  H   UNL     1     -17.273 -10.310  -2.489  0.00  0.00    +0.000 HD
BRANCH  17  20
ATOM     20  C   UNL     1     -19.278  -9.780  -1.926  0.00  0.00    +0.000 C 
ATOM     21  H   UNL     1     -19.937  -9.011  -2.339  0.00  0.00    +0.000 HD
ATOM     22  H   UNL     1     -19.518 -10.740  -2.396  0.00  0.00    +0.000 HD
ATOM     23  H   UNL     1     -19.487  -9.889  -0.857  0.00  0.00    +0.000 HD
ENDBRANCH  17  20
ENDBRANCH  16  17
ENDBRANCH  15  16
ENDBRANCH   1  15
TORSDOF 5
ENDMDL
MODEL 10
REMARK VINA RESULT:    -4.026     29.601     30.694
REMARK INTER + INTRA:          -5.484
REMARK INTER:                  -5.004
REMARK INTRA:                  -0.480
REMARK UNBOUND:                -0.517
REMARK  Name = 6877
REMARK  5 active torsions:
REMARK  status: ('A' for Active; 'I' for Inactive)
REMARK    1  A    between atoms: O_1  and  C_8
REMARK    2  A    between atoms: O_1  and  C_10
REMARK    3  A    between atoms: N_3  and  C_5
REMARK    4  A    between atoms: C_4  and  C_8
REMARK    5  A    between atoms: C_10  and  C_12
REMARK                            x       y       z     vdW  Elec       q    Type
REMARK                         _______ _______ _______ _____ _____    ______ ____
ROOT
ATOM      1  C   UNL     1      -1.495  -9.780  19.992  0.00  0.00    +0.000 A 
ATOM      2  C   UNL     1      -2.675  -9.050  19.852  0.00  0.00    +0.000 A 
ATOM      3  C   UNL     1      -0.379  -9.193  20.588  0.00  0.00    +0.000 A 
ATOM      4  C   UNL     1      -2.740  -7.734  20.309  0.00  0.00    +0.000 A 
ATOM      5  C   UNL     1      -0.444  -7.877  21.044  0.00  0.00    +0.000 A 
ATOM      6  C   UNL     1      -1.624  -7.147  20.906  0.00  0.00    +0.000 A 
ATOM      7  H   UNL     1       0.553  -9.737  20.725  0.00  0.00    +0.000 HD
ATOM      8  H   UNL     1      -3.654  -7.155  20.208  0.00  0.00    +0.000 HD
ATOM      9  H   UNL     1       0.425  -7.421  21.511  0.00  0.00    +0.000 HD
ATOM     10  H   UNL     1      -1.674  -6.123  21.262  0.00  0.00    +0.000 HD
ENDROOT
BRANCH   2  11
ATOM     11  N   UNL     1      -3.818  -9.627  19.251  0.00  0.00    +0.000 N 
ATOM     12  H   UNL     1      -3.876 -10.623  19.099  0.00  0.00    +0.000 HD
ATOM     13  H   UNL     1      -4.582  -9.032  18.958  0.00  0.00    +0.000 HD
ENDBRANCH   2  11
BRANCH   1  15
ATOM     14  O   UNL     1      -1.509 -11.502  18.343  0.00  0.00    +0.000 OA
ATOM     15  C   UNL     1      -1.395 -11.157  19.524  0.00  0.00    +0.000 C 
BRANCH  15  16
ATOM     16  O   UNL     1      -1.159 -12.020  20.558  0.00  0.00    +0.000 OA
BRANCH  16  17
ATOM     17  C   UNL     1      -2.218 -12.195  21.505  0.00  0.00    +0.000 C 
ATOM     18  H   UNL     1      -1.853 -12.786  22.352  0.00  0.00    +0.000 HD
ATOM     19  H   UNL     1      -2.553 -11.215  21.862  0.00  0.00    +0.000 HD
BRANCH  17  20
ATOM     20  C   UNL     1      -3.366 -12.917  20.832  0.00  0.00    +0.000 C 
ATOM     21  H   UNL     1      -3.019 -13.828  20.337  0.00  0.00    +0.000 HD
ATOM     22  H   UNL     1      -4.136 -13.183  21.564  0.00  0.00    +0.000 HD
ATOM     23  H   UNL     1      -3.845 -12.271  20.089  0.00  0.00    +0.000 HD
ENDBRANCH  17  20
ENDBRANCH  16  17
ENDBRANCH  15  16
ENDBRANCH   1  15
TORSDOF 5
ENDMDL
