MODEL 1
REMARK VINA RESULT:    -4.389      0.000      0.000
REMARK INTER + INTRA:          -6.546
REMARK INTER:                  -6.087
REMARK INTRA:                  -0.459
REMARK UNBOUND:                -0.489
REMARK  Name = 7334
REMARK  9 active torsions:
REMARK  status: ('A' for Active; 'I' for Inactive)
REMARK    1  A    between atoms: O_1  and  C_9
REMARK    2  A    between atoms: O_1  and  C_13
REMARK    3  A    between atoms: C_3  and  C_6
REMARK    4  A    between atoms: C_3  and  C_7
REMARK    5  A    between atoms: C_4  and  C_8
REMARK    6  A    between atoms: C_5  and  C_9
REMARK    7  A    between atoms: C_10  and  C_11
REMARK    8  A    between atoms: C_10  and  C_12
REMARK    9  A    between atoms: C_13  and  C_14
REMARK                            x       y       z     vdW  Elec       q    Type
REMARK                         _______ _______ _______ _____ _____    ______ ____
ROOT
ATOM      1  C   UNL     1      -3.462   8.710  13.898  0.00  0.00    +0.000 C 
ATOM      2  C   UNL     1      -2.850   9.697  14.831  0.00  0.00    +0.000 C 
ATOM      3  C   UNL     1      -3.036  10.058  13.397  0.00  0.00    +0.000 C 
ATOM      4  H   UNL     1      -1.838   9.512  15.180  0.00  0.00    +0.000 HD
ATOM      5  H   UNL     1      -3.823  10.766  13.151  0.00  0.00    +0.000 HD
ENDROOT
BRANCH   1   6
ATOM      6  C   UNL     1      -2.641   7.513  13.550  0.00  0.00    +0.000 C 
ATOM      7  H   UNL     1      -3.029   6.584  13.983  0.00  0.00    +0.000 HD
ATOM      8  H   UNL     1      -2.614   7.372  12.464  0.00  0.00    +0.000 HD
ATOM      9  H   UNL     1      -1.611   7.639  13.899  0.00  0.00    +0.000 HD
ENDBRANCH   1   6
BRANCH   1  10
ATOM     10  C   UNL     1      -4.927   8.431  13.950  0.00  0.00    +0.000 C 
ATOM     11  H   UNL     1      -5.119   7.458  14.417  0.00  0.00    +0.000 HD
ATOM     12  H   UNL     1      -5.491   9.187  14.507  0.00  0.00    +0.000 HD
ATOM     13  H   UNL     1      -5.346   8.405  12.938  0.00  0.00    +0.000 HD
ENDBRANCH   1  10
BRANCH   2  14
ATOM     14  C   UNL     1      -3.691  10.381  15.830  0.00  0.00    +0.000 C 
ATOM     15  C   UNL     1      -3.543  11.627  16.320  0.00  0.00    +0.000 C 
ATOM     16  H   UNL     1      -4.535   9.798  16.198  0.00  0.00    +0.000 HD
BRANCH  15  17
ATOM     17  C   UNL     1      -4.495  12.179  17.344  0.00  0.00    +0.000 C 
ATOM     18  H   UNL     1      -4.282  13.237  17.528  0.00  0.00    +0.000 HD
ATOM     19  H   UNL     1      -5.527  12.089  16.989  0.00  0.00    +0.000 HD
ATOM     20  H   UNL     1      -4.426  11.655  18.303  0.00  0.00    +0.000 HD
ENDBRANCH  15  17
BRANCH  15  21
ATOM     21  C   UNL     1      -2.443  12.562  15.904  0.00  0.00    +0.000 C 
ATOM     22  H   UNL     1      -2.345  13.376  16.630  0.00  0.00    +0.000 HD
ATOM     23  H   UNL     1      -1.491  12.026  15.854  0.00  0.00    +0.000 HD
ATOM     24  H   UNL     1      -2.617  13.016  14.924  0.00  0.00    +0.000 HD
ENDBRANCH  15  21
ENDBRANCH   2  14
BRANCH   3  26
ATOM     25  O   UNL     1      -0.704  10.352  12.987  0.00  0.00    +0.000 OA
ATOM     26  C   UNL     1      -1.836  10.196  12.550  0.00  0.00    +0.000 C 
BRANCH  26  27
ATOM     27  O   UNL     1      -2.193  10.121  11.237  0.00  0.00    +0.000 OA
BRANCH  27  28
ATOM     28  C   UNL     1      -3.309  10.930  10.855  0.00  0.00    +0.000 C 
ATOM     29  H   UNL     1      -3.759  10.524   9.942  0.00  0.00    +0.000 HD
ATOM     30  H   UNL     1      -4.054  10.928  11.659  0.00  0.00    +0.000 HD
BRANCH  28  31
ATOM     31  C   UNL     1      -2.830  12.344  10.605  0.00  0.00    +0.000 C 
ATOM     32  H   UNL     1      -3.662  13.054  10.652  0.00  0.00    +0.000 HD
ATOM     33  H   UNL     1      -2.076  12.632  11.345  0.00  0.00    +0.000 HD
ATOM     34  H   UNL     1      -2.355  12.422   9.620  0.00  0.00    +0.000 HD
ENDBRANCH  28  31
ENDBRANCH  27  28
ENDBRANCH  26  27
ENDBRANCH   3  26
TORSDOF 9
ENDMDL
MODEL 2
REMARK VINA RESULT:    -4.345     26.868     29.112
REMARK INTER + INTRA:          -6.485
REMARK INTER:                  -5.968
REMARK INTRA:                  -0.516
REMARK UNBOUND:                -0.489
REMARK  Name = 7334
REMARK  9 active torsions:
REMARK  status: ('A' for Active; 'I' for Inactive)
REMARK    1  A    between atoms: O_1  and  C_9
REMARK    2  A    between atoms: O_1  and  C_13
REMARK    3  A    between atoms: C_3  and  C_6
REMARK    4  A    between atoms: C_3  and  C_7
REMARK    5  A    between atoms: C_4  and  C_8
REMARK    6  A    between atoms: C_5  and  C_9
REMARK    7  A    between atoms: C_10  and  C_11
REMARK    8  A    between atoms: C_10  and  C_12
REMARK    9  A    between atoms: C_13  and  C_14
REMARK                            x       y       z     vdW  Elec       q    Type
REMARK                         _______ _______ _______ _____ _____    ______ ____
ROOT
ATOM      1  C   UNL     1     -16.550 -10.958  -0.923  0.00  0.00    +0.000 C 
ATOM      2  C   UNL     1     -17.801 -10.207  -0.622  0.00  0.00    +0.000 C 
ATOM      3  C   UNL     1     -16.482  -9.608  -0.273  0.00  0.00    +0.000 C 
ATOM      4  H   UNL     1     -18.428 -10.562   0.191  0.00  0.00    +0.000 HD
ATOM      5  H   UNL     1     -16.124  -8.783  -0.883  0.00  0.00    +0.000 HD
ENDROOT
BRANCH   1   6
ATOM      6  C   UNL     1     -16.281 -12.174  -0.100  0.00  0.00    +0.000 C 
ATOM      7  H   UNL     1     -16.541 -13.107  -0.613  0.00  0.00    +0.000 HD
ATOM      8  H   UNL     1     -15.217 -12.235   0.153  0.00  0.00    +0.000 HD
ATOM      9  H   UNL     1     -16.848 -12.139   0.836  0.00  0.00    +0.000 HD
ENDBRANCH   1   6
BRANCH   1  10
ATOM     10  C   UNL     1     -16.055 -11.068  -2.326  0.00  0.00    +0.000 C 
ATOM     11  H   UNL     1     -16.363 -10.197  -2.914  0.00  0.00    +0.000 HD
ATOM     12  H   UNL     1     -14.965 -11.151  -2.394  0.00  0.00    +0.000 HD
ATOM     13  H   UNL     1     -16.471 -11.961  -2.808  0.00  0.00    +0.000 HD
ENDBRANCH   1  10
BRANCH   2  14
ATOM     14  C   UNL     1     -18.570  -9.593  -1.721  0.00  0.00    +0.000 C 
ATOM     15  C   UNL     1     -19.857  -9.816  -2.052  0.00  0.00    +0.000 C 
ATOM     16  H   UNL     1     -18.019  -8.870  -2.321  0.00  0.00    +0.000 HD
BRANCH  15  17
ATOM     17  C   UNL     1     -20.495  -9.103  -3.212  0.00  0.00    +0.000 C 
ATOM     18  H   UNL     1     -20.142  -9.528  -4.157  0.00  0.00    +0.000 HD
ATOM     19  H   UNL     1     -21.585  -9.209  -3.168  0.00  0.00    +0.000 HD
ATOM     20  H   UNL     1     -20.265  -8.033  -3.223  0.00  0.00    +0.000 HD
ENDBRANCH  15  17
BRANCH  15  21
ATOM     21  C   UNL     1     -20.756 -10.768  -1.316  0.00  0.00    +0.000 C 
ATOM     22  H   UNL     1     -21.038 -11.601  -1.970  0.00  0.00    +0.000 HD
ATOM     23  H   UNL     1     -20.239 -11.174  -0.441  0.00  0.00    +0.000 HD
ATOM     24  H   UNL     1     -21.679 -10.299  -0.966  0.00  0.00    +0.000 HD
ENDBRANCH  15  21
ENDBRANCH   2  14
BRANCH   3  26
ATOM     25  O   UNL     1     -15.028  -9.757   1.613  0.00  0.00    +0.000 OA
ATOM     26  C   UNL     1     -16.129  -9.482   1.153  0.00  0.00    +0.000 C 
BRANCH  26  27
ATOM     27  O   UNL     1     -17.204  -9.021   1.851  0.00  0.00    +0.000 OA
BRANCH  27  28
ATOM     28  C   UNL     1     -17.384  -9.590   3.152  0.00  0.00    +0.000 C 
ATOM     29  H   UNL     1     -16.473 -10.125   3.445  0.00  0.00    +0.000 HD
ATOM     30  H   UNL     1     -17.586  -8.792   3.875  0.00  0.00    +0.000 HD
BRANCH  28  31
ATOM     31  C   UNL     1     -18.551 -10.553   3.112  0.00  0.00    +0.000 C 
ATOM     32  H   UNL     1     -18.276 -11.521   3.542  0.00  0.00    +0.000 HD
ATOM     33  H   UNL     1     -19.404 -10.148   3.667  0.00  0.00    +0.000 HD
ATOM     34  H   UNL     1     -18.888 -10.708   2.081  0.00  0.00    +0.000 HD
ENDBRANCH  28  31
ENDBRANCH  27  28
ENDBRANCH  26  27
ENDBRANCH   3  26
TORSDOF 9
ENDMDL
MODEL 3
REMARK VINA RESULT:    -4.312     26.508     28.467
REMARK INTER + INTRA:          -6.439
REMARK INTER:                  -5.767
REMARK INTRA:                  -0.672
REMARK UNBOUND:                -0.489
REMARK  Name = 7334
REMARK  9 active torsions:
REMARK  status: ('A' for Active; 'I' for Inactive)
REMARK    1  A    between atoms: O_1  and  C_9
REMARK    2  A    between atoms: O_1  and  C_13
REMARK    3  A    between atoms: C_3  and  C_6
REMARK    4  A    between atoms: C_3  and  C_7
REMARK    5  A    between atoms: C_4  and  C_8
REMARK    6  A    between atoms: C_5  and  C_9
REMARK    7  A    between atoms: C_10  and  C_11
REMARK    8  A    between atoms: C_10  and  C_12
REMARK    9  A    between atoms: C_13  and  C_14
REMARK                            x       y       z     vdW  Elec       q    Type
REMARK                         _______ _______ _______ _____ _____    ______ ____
ROOT
ATOM      1  C   UNL     1     -16.645 -11.209   0.258  0.00  0.00    +0.000 C 
ATOM      2  C   UNL     1     -15.509 -10.468  -0.358  0.00  0.00    +0.000 C 
ATOM      3  C   UNL     1     -15.705 -10.417   1.119  0.00  0.00    +0.000 C 
ATOM      4  H   UNL     1     -15.733  -9.573  -0.931  0.00  0.00    +0.000 HD
ATOM      5  H   UNL     1     -15.013 -10.977   1.741  0.00  0.00    +0.000 HD
ENDROOT
BRANCH   1   6
ATOM      6  C   UNL     1     -18.015 -10.679  -0.001  0.00  0.00    +0.000 C 
ATOM      7  H   UNL     1     -18.216  -9.734   0.516  0.00  0.00    +0.000 HD
ATOM      8  H   UNL     1     -18.155 -10.492  -1.071  0.00  0.00    +0.000 HD
ATOM      9  H   UNL     1     -18.774 -11.401   0.317  0.00  0.00    +0.000 HD
ENDBRANCH   1   6
BRANCH   1  10
ATOM     10  C   UNL     1     -16.597 -12.696   0.382  0.00  0.00    +0.000 C 
ATOM     11  H   UNL     1     -17.409 -13.056   1.024  0.00  0.00    +0.000 HD
ATOM     12  H   UNL     1     -16.676 -13.212  -0.580  0.00  0.00    +0.000 HD
ATOM     13  H   UNL     1     -15.649 -13.010   0.833  0.00  0.00    +0.000 HD
ENDBRANCH   1  10
BRANCH   2  14
ATOM     14  C   UNL     1     -14.343 -11.211  -0.874  0.00  0.00    +0.000 C 
ATOM     15  C   UNL     1     -14.055 -11.503  -2.157  0.00  0.00    +0.000 C 
ATOM     16  H   UNL     1     -13.638 -11.547  -0.115  0.00  0.00    +0.000 HD
BRANCH  15  17
ATOM     17  C   UNL     1     -12.816 -12.276  -2.518  0.00  0.00    +0.000 C 
ATOM     18  H   UNL     1     -12.607 -12.177  -3.589  0.00  0.00    +0.000 HD
ATOM     19  H   UNL     1     -11.955 -11.894  -1.960  0.00  0.00    +0.000 HD
ATOM     20  H   UNL     1     -12.910 -13.343  -2.296  0.00  0.00    +0.000 HD
ENDBRANCH  15  17
BRANCH  15  21
ATOM     21  C   UNL     1     -14.915 -11.099  -3.320  0.00  0.00    +0.000 C 
ATOM     22  H   UNL     1     -14.290 -10.879  -4.193  0.00  0.00    +0.000 HD
ATOM     23  H   UNL     1     -15.602 -11.910  -3.581  0.00  0.00    +0.000 HD
ATOM     24  H   UNL     1     -15.517 -10.209  -3.116  0.00  0.00    +0.000 HD
ENDBRANCH  15  21
ENDBRANCH   2  14
BRANCH   3  26
ATOM     25  O   UNL     1     -16.226  -8.089   1.105  0.00  0.00    +0.000 OA
ATOM     26  C   UNL     1     -16.139  -9.143   1.720  0.00  0.00    +0.000 C 
BRANCH  26  27
ATOM     27  O   UNL     1     -16.419  -9.333   3.040  0.00  0.00    +0.000 OA
BRANCH  27  28
ATOM     28  C   UNL     1     -17.800  -9.225   3.398  0.00  0.00    +0.000 C 
ATOM     29  H   UNL     1     -17.905  -8.543   4.249  0.00  0.00    +0.000 HD
ATOM     30  H   UNL     1     -18.369  -8.835   2.547  0.00  0.00    +0.000 HD
BRANCH  28  31
ATOM     31  C   UNL     1     -18.320 -10.596   3.775  0.00  0.00    +0.000 C 
ATOM     32  H   UNL     1     -18.960 -10.542   4.661  0.00  0.00    +0.000 HD
ATOM     33  H   UNL     1     -18.894 -11.031   2.950  0.00  0.00    +0.000 HD
ATOM     34  H   UNL     1     -17.490 -11.280   3.981  0.00  0.00    +0.000 HD
ENDBRANCH  28  31
ENDBRANCH  27  28
ENDBRANCH  26  27
ENDBRANCH   3  26
TORSDOF 9
ENDMDL
MODEL 4
REMARK VINA RESULT:    -4.211     23.694     25.283
REMARK INTER + INTRA:          -6.301
REMARK INTER:                  -5.612
REMARK INTRA:                  -0.689
REMARK UNBOUND:                -0.489
REMARK  Name = 7334
REMARK  9 active torsions:
REMARK  status: ('A' for Active; 'I' for Inactive)
REMARK    1  A    between atoms: O_1  and  C_9
REMARK    2  A    between atoms: O_1  and  C_13
REMARK    3  A    between atoms: C_3  and  C_6
REMARK    4  A    between atoms: C_3  and  C_7
REMARK    5  A    between atoms: C_4  and  C_8
REMARK    6  A    between atoms: C_5  and  C_9
REMARK    7  A    between atoms: C_10  and  C_11
REMARK    8  A    between atoms: C_10  and  C_12
REMARK    9  A    between atoms: C_13  and  C_14
REMARK                            x       y       z     vdW  Elec       q    Type
REMARK                         _______ _______ _______ _____ _____    ______ ____
ROOT
ATOM      1  C   UNL     1       4.336  14.992 -10.434  0.00  0.00    +0.000 C 
ATOM      2  C   UNL     1       3.976  13.723  -9.742  0.00  0.00    +0.000 C 
ATOM      3  C   UNL     1       3.855  15.018  -9.013  0.00  0.00    +0.000 C 
ATOM      4  H   UNL     1       4.779  13.052  -9.453  0.00  0.00    +0.000 HD
ATOM      5  H   UNL     1       2.856  15.409  -8.837  0.00  0.00    +0.000 HD
ENDROOT
BRANCH   1   6
ATOM      6  C   UNL     1       5.784  15.218 -10.715  0.00  0.00    +0.000 C 
ATOM      7  H   UNL     1       6.443  14.782  -9.955  0.00  0.00    +0.000 HD
ATOM      8  H   UNL     1       6.061  14.768 -11.674  0.00  0.00    +0.000 HD
ATOM      9  H   UNL     1       6.003  16.290 -10.770  0.00  0.00    +0.000 HD
ENDBRANCH   1   6
BRANCH   1  10
ATOM     10  C   UNL     1       3.433  15.567 -11.474  0.00  0.00    +0.000 C 
ATOM     11  H   UNL     1       3.642  16.632 -11.621  0.00  0.00    +0.000 HD
ATOM     12  H   UNL     1       3.522  15.070 -12.446  0.00  0.00    +0.000 HD
ATOM     13  H   UNL     1       2.386  15.471 -11.164  0.00  0.00    +0.000 HD
ENDBRANCH   1  10
BRANCH   2  14
ATOM     14  C   UNL     1       2.733  13.017 -10.106  0.00  0.00    +0.000 C 
ATOM     15  C   UNL     1       2.564  12.088 -11.066  0.00  0.00    +0.000 C 
ATOM     16  H   UNL     1       1.860  13.283  -9.511  0.00  0.00    +0.000 HD
BRANCH  15  17
ATOM     17  C   UNL     1       1.220  11.460 -11.313  0.00  0.00    +0.000 C 
ATOM     18  H   UNL     1       0.903  11.639 -12.346  0.00  0.00    +0.000 HD
ATOM     19  H   UNL     1       1.271  10.379 -11.147  0.00  0.00    +0.000 HD
ATOM     20  H   UNL     1       0.444  11.862 -10.654  0.00  0.00    +0.000 HD
ENDBRANCH  15  17
BRANCH  15  21
ATOM     21  C   UNL     1       3.668  11.600 -11.960  0.00  0.00    +0.000 C 
ATOM     22  H   UNL     1       3.251  11.049 -12.810  0.00  0.00    +0.000 HD
ATOM     23  H   UNL     1       4.243  12.448 -12.346  0.00  0.00    +0.000 HD
ATOM     24  H   UNL     1       4.368  10.934 -11.448  0.00  0.00    +0.000 HD
ENDBRANCH  15  21
ENDBRANCH   2  14
BRANCH   3  26
ATOM     25  O   UNL     1       5.556  14.455  -7.439  0.00  0.00    +0.000 OA
ATOM     26  C   UNL     1       4.796  15.289  -7.911  0.00  0.00    +0.000 C 
BRANCH  26  27
ATOM     27  O   UNL     1       4.678  16.589  -7.520  0.00  0.00    +0.000 OA
BRANCH  27  28
ATOM     28  C   UNL     1       5.883  17.359  -7.574  0.00  0.00    +0.000 C 
ATOM     29  H   UNL     1       6.006  17.911  -6.635  0.00  0.00    +0.000 HD
ATOM     30  H   UNL     1       6.738  16.690  -7.716  0.00  0.00    +0.000 HD
BRANCH  28  31
ATOM     31  C   UNL     1       5.796  18.332  -8.731  0.00  0.00    +0.000 C 
ATOM     32  H   UNL     1       6.181  19.315  -8.445  0.00  0.00    +0.000 HD
ATOM     33  H   UNL     1       6.368  17.962  -9.588  0.00  0.00    +0.000 HD
ATOM     34  H   UNL     1       4.758  18.442  -9.064  0.00  0.00    +0.000 HD
ENDBRANCH  28  31
ENDBRANCH  27  28
ENDBRANCH  26  27
ENDBRANCH   3  26
TORSDOF 9
ENDMDL
MODEL 5
REMARK VINA RESULT:    -4.188     16.337     18.614
REMARK INTER + INTRA:          -6.268
REMARK INTER:                  -5.976
REMARK INTRA:                  -0.292
REMARK UNBOUND:                -0.489
REMARK  Name = 7334
REMARK  9 active torsions:
REMARK  status: ('A' for Active; 'I' for Inactive)
REMARK    1  A    between atoms: O_1  and  C_9
REMARK    2  A    between atoms: O_1  and  C_13
REMARK    3  A    between atoms: C_3  and  C_6
REMARK    4  A    between atoms: C_3  and  C_7
REMARK    5  A    between atoms: C_4  and  C_8
REMARK    6  A    between atoms: C_5  and  C_9
REMARK    7  A    between atoms: C_10  and  C_11
REMARK    8  A    between atoms: C_10  and  C_12
REMARK    9  A    between atoms: C_13  and  C_14
REMARK                            x       y       z     vdW  Elec       q    Type
REMARK                         _______ _______ _______ _____ _____    ______ ____
ROOT
ATOM      1  C   UNL     1       3.212  -5.759  20.137  0.00  0.00    +0.000 C 
ATOM      2  C   UNL     1       2.809  -5.942  18.714  0.00  0.00    +0.000 C 
ATOM      3  C   UNL     1       1.762  -5.890  19.774  0.00  0.00    +0.000 C 
ATOM      4  H   UNL     1       3.009  -6.901  18.246  0.00  0.00    +0.000 HD
ATOM      5  H   UNL     1       1.152  -4.992  19.839  0.00  0.00    +0.000 HD
ENDROOT
BRANCH   1   6
ATOM      6  C   UNL     1       3.902  -6.906  20.795  0.00  0.00    +0.000 C 
ATOM      7  H   UNL     1       3.235  -7.508  21.422  0.00  0.00    +0.000 HD
ATOM      8  H   UNL     1       4.324  -7.580  20.041  0.00  0.00    +0.000 HD
ATOM      9  H   UNL     1       4.723  -6.551  21.426  0.00  0.00    +0.000 HD
ENDBRANCH   1   6
BRANCH   1  10
ATOM     10  C   UNL     1       3.678  -4.427  20.624  0.00  0.00    +0.000 C 
ATOM     11  H   UNL     1       4.452  -4.023  19.962  0.00  0.00    +0.000 HD
ATOM     12  H   UNL     1       2.873  -3.686  20.692  0.00  0.00    +0.000 HD
ATOM     13  H   UNL     1       4.109  -4.518  21.627  0.00  0.00    +0.000 HD
ENDBRANCH   1  10
BRANCH   2  14
ATOM     14  C   UNL     1       2.899  -4.808  17.775  0.00  0.00    +0.000 C 
ATOM     15  C   UNL     1       3.322  -4.828  16.496  0.00  0.00    +0.000 C 
ATOM     16  H   UNL     1       2.572  -3.849  18.177  0.00  0.00    +0.000 HD
BRANCH  15  17
ATOM     17  C   UNL     1       3.354  -3.573  15.668  0.00  0.00    +0.000 C 
ATOM     18  H   UNL     1       2.578  -3.610  14.896  0.00  0.00    +0.000 HD
ATOM     19  H   UNL     1       3.173  -2.697  16.301  0.00  0.00    +0.000 HD
ATOM     20  H   UNL     1       4.315  -3.429  15.166  0.00  0.00    +0.000 HD
ENDBRANCH  15  17
BRANCH  15  21
ATOM     21  C   UNL     1       3.789  -6.069  15.791  0.00  0.00    +0.000 C 
ATOM     22  H   UNL     1       4.699  -5.858  15.219  0.00  0.00    +0.000 HD
ATOM     23  H   UNL     1       4.012  -6.855  16.518  0.00  0.00    +0.000 HD
ATOM     24  H   UNL     1       3.048  -6.466  15.092  0.00  0.00    +0.000 HD
ENDBRANCH  15  21
ENDBRANCH   2  14
BRANCH   3  26
ATOM     25  O   UNL     1       1.157  -8.177  19.473  0.00  0.00    +0.000 OA
ATOM     26  C   UNL     1       1.023  -7.127  20.085  0.00  0.00    +0.000 C 
BRANCH  26  27
ATOM     27  O   UNL     1       0.190  -6.907  21.141  0.00  0.00    +0.000 OA
BRANCH  27  28
ATOM     28  C   UNL     1      -1.069  -7.584  21.083  0.00  0.00    +0.000 C 
ATOM     29  H   UNL     1      -1.112  -8.199  20.177  0.00  0.00    +0.000 HD
ATOM     30  H   UNL     1      -1.179  -8.227  21.964  0.00  0.00    +0.000 HD
BRANCH  28  31
ATOM     31  C   UNL     1      -2.181  -6.557  21.058  0.00  0.00    +0.000 C 
ATOM     32  H   UNL     1      -2.834  -6.708  20.193  0.00  0.00    +0.000 HD
ATOM     33  H   UNL     1      -2.783  -6.618  21.970  0.00  0.00    +0.000 HD
ATOM     34  H   UNL     1      -1.768  -5.543  21.016  0.00  0.00    +0.000 HD
ENDBRANCH  28  31
ENDBRANCH  27  28
ENDBRANCH  26  27
ENDBRANCH   3  26
TORSDOF 9
ENDMDL
MODEL 6
REMARK VINA RESULT:    -4.159      2.155      3.990
REMARK INTER + INTRA:          -6.228
REMARK INTER:                  -5.746
REMARK INTRA:                  -0.482
REMARK UNBOUND:                -0.489
REMARK  Name = 7334
REMARK  9 active torsions:
REMARK  status: ('A' for Active; 'I' for Inactive)
REMARK    1  A    between atoms: O_1  and  C_9
REMARK    2  A    between atoms: O_1  and  C_13
REMARK    3  A    between atoms: C_3  and  C_6
REMARK    4  A    between atoms: C_3  and  C_7
REMARK    5  A    between atoms: C_4  and  C_8
REMARK    6  A    between atoms: C_5  and  C_9
REMARK    7  A    between atoms: C_10  and  C_11
REMARK    8  A    between atoms: C_10  and  C_12
REMARK    9  A    between atoms: C_13  and  C_14
REMARK                            x       y       z     vdW  Elec       q    Type
REMARK                         _______ _______ _______ _____ _____    ______ ____
ROOT
ATOM      1  C   UNL     1      -2.206  12.173  12.048  0.00  0.00    +0.000 C 
ATOM      2  C   UNL     1      -2.010  10.736  12.390  0.00  0.00    +0.000 C 
ATOM      3  C   UNL     1      -0.901  11.497  11.747  0.00  0.00    +0.000 C 
ATOM      4  H   UNL     1      -2.528   9.992  11.792  0.00  0.00    +0.000 HD
ATOM      5  H   UNL     1      -0.049  11.769  12.364  0.00  0.00    +0.000 HD
ENDROOT
BRANCH   1   6
ATOM      6  C   UNL     1      -3.143  12.476  10.926  0.00  0.00    +0.000 C 
ATOM      7  H   UNL     1      -3.755  11.616  10.632  0.00  0.00    +0.000 HD
ATOM      8  H   UNL     1      -3.833  13.276  11.212  0.00  0.00    +0.000 HD
ATOM      9  H   UNL     1      -2.589  12.808  10.042  0.00  0.00    +0.000 HD
ENDBRANCH   1   6
BRANCH   1  10
ATOM     10  C   UNL     1      -2.208  13.211  13.120  0.00  0.00    +0.000 C 
ATOM     11  H   UNL     1      -1.207  13.636  13.248  0.00  0.00    +0.000 HD
ATOM     12  H   UNL     1      -2.901  14.035  12.922  0.00  0.00    +0.000 HD
ATOM     13  H   UNL     1      -2.509  12.769  14.077  0.00  0.00    +0.000 HD
ENDBRANCH   1  10
BRANCH   2  14
ATOM     14  C   UNL     1      -1.845  10.335  13.800  0.00  0.00    +0.000 C 
ATOM     15  C   UNL     1      -2.650   9.538  14.530  0.00  0.00    +0.000 C 
ATOM     16  H   UNL     1      -0.957  10.730  14.291  0.00  0.00    +0.000 HD
BRANCH  15  17
ATOM     17  C   UNL     1      -2.338   9.225  15.967  0.00  0.00    +0.000 C 
ATOM     18  H   UNL     1      -2.277  10.150  16.551  0.00  0.00    +0.000 HD
ATOM     19  H   UNL     1      -3.123   8.594  16.396  0.00  0.00    +0.000 HD
ATOM     20  H   UNL     1      -1.386   8.697  16.082  0.00  0.00    +0.000 HD
ENDBRANCH  15  17
BRANCH  15  21
ATOM     21  C   UNL     1      -3.901   8.901  13.996  0.00  0.00    +0.000 C 
ATOM     22  H   UNL     1      -4.231   9.418  13.089  0.00  0.00    +0.000 HD
ATOM     23  H   UNL     1      -3.715   7.852  13.749  0.00  0.00    +0.000 HD
ATOM     24  H   UNL     1      -4.731   8.929  14.709  0.00  0.00    +0.000 HD
ENDBRANCH  15  21
ENDBRANCH   2  14
BRANCH   3  26
ATOM     25  O   UNL     1      -0.165  11.979   9.530  0.00  0.00    +0.000 OA
ATOM     26  C   UNL     1      -0.538  11.159  10.359  0.00  0.00    +0.000 C 
BRANCH  26  27
ATOM     27  O   UNL     1      -0.683   9.819  10.161  0.00  0.00    +0.000 OA
BRANCH  27  28
ATOM     28  C   UNL     1       0.522   9.051  10.233  0.00  0.00    +0.000 C 
ATOM     29  H   UNL     1       1.034   9.083   9.265  0.00  0.00    +0.000 HD
ATOM     30  H   UNL     1       1.177   9.472  11.005  0.00  0.00    +0.000 HD
BRANCH  28  31
ATOM     31  C   UNL     1       0.175   7.619  10.581  0.00  0.00    +0.000 C 
ATOM     32  H   UNL     1      -0.189   7.080   9.702  0.00  0.00    +0.000 HD
ATOM     33  H   UNL     1       1.050   7.097  10.980  0.00  0.00    +0.000 HD
ATOM     34  H   UNL     1      -0.596   7.588  11.359  0.00  0.00    +0.000 HD
ENDBRANCH  28  31
ENDBRANCH  27  28
ENDBRANCH  26  27
ENDBRANCH   3  26
TORSDOF 9
ENDMDL
MODEL 7
REMARK VINA RESULT:    -4.157     26.849     28.981
REMARK INTER + INTRA:          -6.225
REMARK INTER:                  -5.807
REMARK INTRA:                  -0.418
REMARK UNBOUND:                -0.489
REMARK  Name = 7334
REMARK  9 active torsions:
REMARK  status: ('A' for Active; 'I' for Inactive)
REMARK    1  A    between atoms: O_1  and  C_9
REMARK    2  A    between atoms: O_1  and  C_13
REMARK    3  A    between atoms: C_3  and  C_6
REMARK    4  A    between atoms: C_3  and  C_7
REMARK    5  A    between atoms: C_4  and  C_8
REMARK    6  A    between atoms: C_5  and  C_9
REMARK    7  A    between atoms: C_10  and  C_11
REMARK    8  A    between atoms: C_10  and  C_12
REMARK    9  A    between atoms: C_13  and  C_14
REMARK                            x       y       z     vdW  Elec       q    Type
REMARK                         _______ _______ _______ _____ _____    ______ ____
ROOT
ATOM      1  C   UNL     1     -17.200 -10.450   2.862  0.00  0.00    +0.000 C 
ATOM      2  C   UNL     1     -17.875 -11.273   1.819  0.00  0.00    +0.000 C 
ATOM      3  C   UNL     1     -18.581 -10.987   3.100  0.00  0.00    +0.000 C 
ATOM      4  H   UNL     1     -17.514 -12.284   1.654  0.00  0.00    +0.000 HD
ATOM      5  H   UNL     1     -19.400 -10.274   3.078  0.00  0.00    +0.000 HD
ENDROOT
BRANCH   1   6
ATOM      6  C   UNL     1     -16.045 -11.074   3.570  0.00  0.00    +0.000 C 
ATOM      7  H   UNL     1     -16.029 -10.855   4.644  0.00  0.00    +0.000 HD
ATOM      8  H   UNL     1     -16.080 -12.164   3.469  0.00  0.00    +0.000 HD
ATOM      9  H   UNL     1     -15.099 -10.726   3.144  0.00  0.00    +0.000 HD
ENDBRANCH   1   6
BRANCH   1  10
ATOM     10  C   UNL     1     -17.062  -8.974   2.685  0.00  0.00    +0.000 C 
ATOM     11  H   UNL     1     -16.263  -8.582   3.324  0.00  0.00    +0.000 HD
ATOM     12  H   UNL     1     -16.840  -8.682   1.652  0.00  0.00    +0.000 HD
ATOM     13  H   UNL     1     -17.993  -8.468   2.963  0.00  0.00    +0.000 HD
ENDBRANCH   1  10
BRANCH   2  14
ATOM     14  C   UNL     1     -18.382 -10.630   0.592  0.00  0.00    +0.000 C 
ATOM     15  C   UNL     1     -17.691 -10.319  -0.521  0.00  0.00    +0.000 C 
ATOM     16  H   UNL     1     -19.446 -10.396   0.601  0.00  0.00    +0.000 HD
BRANCH  15  17
ATOM     17  C   UNL     1     -18.362  -9.659  -1.694  0.00  0.00    +0.000 C 
ATOM     18  H   UNL     1     -18.341  -8.570  -1.579  0.00  0.00    +0.000 HD
ATOM     19  H   UNL     1     -17.845  -9.920  -2.623  0.00  0.00    +0.000 HD
ATOM     20  H   UNL     1     -19.409  -9.961  -1.800  0.00  0.00    +0.000 HD
ENDBRANCH  15  17
BRANCH  15  21
ATOM     21  C   UNL     1     -16.224 -10.591  -0.698  0.00  0.00    +0.000 C 
ATOM     22  H   UNL     1     -16.069 -11.621  -1.037  0.00  0.00    +0.000 HD
ATOM     23  H   UNL     1     -15.802  -9.913  -1.446  0.00  0.00    +0.000 HD
ATOM     24  H   UNL     1     -15.652 -10.460   0.225  0.00  0.00    +0.000 HD
ENDBRANCH  15  21
ENDBRANCH   2  14
BRANCH   3  26
ATOM     25  O   UNL     1     -18.838 -13.278   3.712  0.00  0.00    +0.000 OA
ATOM     26  C   UNL     1     -18.796 -12.101   4.042  0.00  0.00    +0.000 C 
BRANCH  26  27
ATOM     27  O   UNL     1     -18.935 -11.610   5.305  0.00  0.00    +0.000 OA
BRANCH  27  28
ATOM     28  C   UNL     1     -19.201 -12.585   6.318  0.00  0.00    +0.000 C 
ATOM     29  H   UNL     1     -19.398 -13.555   5.849  0.00  0.00    +0.000 HD
ATOM     30  H   UNL     1     -18.331 -12.671   6.979  0.00  0.00    +0.000 HD
BRANCH  28  31
ATOM     31  C   UNL     1     -20.410 -12.149   7.118  0.00  0.00    +0.000 C 
ATOM     32  H   UNL     1     -20.249 -11.163   7.565  0.00  0.00    +0.000 HD
ATOM     33  H   UNL     1     -21.299 -12.107   6.481  0.00  0.00    +0.000 HD
ATOM     34  H   UNL     1     -20.624 -12.868   7.916  0.00  0.00    +0.000 HD
ENDBRANCH  28  31
ENDBRANCH  27  28
ENDBRANCH  26  27
ENDBRANCH   3  26
TORSDOF 9
ENDMDL
MODEL 8
REMARK VINA RESULT:    -4.011     26.336     28.453
REMARK INTER + INTRA:          -6.024
REMARK INTER:                  -5.647
REMARK INTRA:                  -0.377
REMARK UNBOUND:                -0.489
REMARK  Name = 7334
REMARK  9 active torsions:
REMARK  status: ('A' for Active; 'I' for Inactive)
REMARK    1  A    between atoms: O_1  and  C_9
REMARK    2  A    between atoms: O_1  and  C_13
REMARK    3  A    between atoms: C_3  and  C_6
REMARK    4  A    between atoms: C_3  and  C_7
REMARK    5  A    between atoms: C_4  and  C_8
REMARK    6  A    between atoms: C_5  and  C_9
REMARK    7  A    between atoms: C_10  and  C_11
REMARK    8  A    between atoms: C_10  and  C_12
REMARK    9  A    between atoms: C_13  and  C_14
REMARK                            x       y       z     vdW  Elec       q    Type
REMARK                         _______ _______ _______ _____ _____    ______ ____
ROOT
ATOM      1  C   UNL     1     -13.174 -15.342  21.007  0.00  0.00    +0.000 C 
ATOM      2  C   UNL     1     -14.198 -14.270  20.865  0.00  0.00    +0.000 C 
ATOM      3  C   UNL     1     -13.479 -14.432  22.160  0.00  0.00    +0.000 C 
ATOM      4  H   UNL     1     -15.243 -14.563  20.825  0.00  0.00    +0.000 HD
ATOM      5  H   UNL     1     -12.727 -13.691  22.418  0.00  0.00    +0.000 HD
ENDROOT
BRANCH   1   6
ATOM      6  C   UNL     1     -13.672 -16.748  21.041  0.00  0.00    +0.000 C 
ATOM      7  H   UNL     1     -14.445 -16.914  21.800  0.00  0.00    +0.000 HD
ATOM      8  H   UNL     1     -14.110 -17.021  20.075  0.00  0.00    +0.000 HD
ATOM      9  H   UNL     1     -12.850 -17.443  21.245  0.00  0.00    +0.000 HD
ENDBRANCH   1   6
BRANCH   1  10
ATOM     10  C   UNL     1     -11.837 -15.200  20.358  0.00  0.00    +0.000 C 
ATOM     11  H   UNL     1     -11.669 -16.009  19.639  0.00  0.00    +0.000 HD
ATOM     12  H   UNL     1     -11.714 -14.249  19.828  0.00  0.00    +0.000 HD
ATOM     13  H   UNL     1     -11.042 -15.249  21.110  0.00  0.00    +0.000 HD
ENDBRANCH   1  10
BRANCH   2  14
ATOM     14  C   UNL     1     -13.900 -13.074  20.054  0.00  0.00    +0.000 C 
ATOM     15  C   UNL     1     -14.774 -12.184  19.544  0.00  0.00    +0.000 C 
ATOM     16  H   UNL     1     -12.841 -12.900  19.862  0.00  0.00    +0.000 HD
BRANCH  15  17
ATOM     17  C   UNL     1     -14.302 -11.011  18.731  0.00  0.00    +0.000 C 
ATOM     18  H   UNL     1     -15.083 -10.243  18.688  0.00  0.00    +0.000 HD
ATOM     19  H   UNL     1     -13.407 -10.571  19.184  0.00  0.00    +0.000 HD
ATOM     20  H   UNL     1     -14.053 -11.288  17.702  0.00  0.00    +0.000 HD
ENDBRANCH  15  17
BRANCH  15  21
ATOM     21  C   UNL     1     -16.261 -12.274  19.732  0.00  0.00    +0.000 C 
ATOM     22  H   UNL     1     -16.505 -13.070  20.443  0.00  0.00    +0.000 HD
ATOM     23  H   UNL     1     -16.649 -11.328  20.123  0.00  0.00    +0.000 HD
ATOM     24  H   UNL     1     -16.796 -12.489  18.802  0.00  0.00    +0.000 HD
ENDBRANCH  15  21
ENDBRANCH   2  14
BRANCH   3  26
ATOM     25  O   UNL     1     -13.729 -15.476  24.290  0.00  0.00    +0.000 OA
ATOM     26  C   UNL     1     -14.239 -14.928  23.322  0.00  0.00    +0.000 C 
BRANCH  26  27
ATOM     27  O   UNL     1     -15.566 -14.680  23.139  0.00  0.00    +0.000 OA
BRANCH  27  28
ATOM     28  C   UNL     1     -16.090 -13.565  23.867  0.00  0.00    +0.000 C 
ATOM     29  H   UNL     1     -15.292 -13.113  24.466  0.00  0.00    +0.000 HD
ATOM     30  H   UNL     1     -16.483 -12.823  23.164  0.00  0.00    +0.000 HD
BRANCH  28  31
ATOM     31  C   UNL     1     -17.201 -14.047  24.775  0.00  0.00    +0.000 C 
ATOM     32  H   UNL     1     -17.145 -15.130  24.922  0.00  0.00    +0.000 HD
ATOM     33  H   UNL     1     -17.142 -13.555  25.751  0.00  0.00    +0.000 HD
ATOM     34  H   UNL     1     -18.181 -13.798  24.352  0.00  0.00    +0.000 HD
ENDBRANCH  28  31
ENDBRANCH  27  28
ENDBRANCH  26  27
ENDBRANCH   3  26
TORSDOF 9
ENDMDL
MODEL 9
REMARK VINA RESULT:    -3.996     26.894     28.934
REMARK INTER + INTRA:          -6.004
REMARK INTER:                  -5.515
REMARK INTRA:                  -0.489
REMARK UNBOUND:                -0.489
REMARK  Name = 7334
REMARK  9 active torsions:
REMARK  status: ('A' for Active; 'I' for Inactive)
REMARK    1  A    between atoms: O_1  and  C_9
REMARK    2  A    between atoms: O_1  and  C_13
REMARK    3  A    between atoms: C_3  and  C_6
REMARK    4  A    between atoms: C_3  and  C_7
REMARK    5  A    between atoms: C_4  and  C_8
REMARK    6  A    between atoms: C_5  and  C_9
REMARK    7  A    between atoms: C_10  and  C_11
REMARK    8  A    between atoms: C_10  and  C_12
REMARK    9  A    between atoms: C_13  and  C_14
REMARK                            x       y       z     vdW  Elec       q    Type
REMARK                         _______ _______ _______ _____ _____    ______ ____
ROOT
ATOM      1  C   UNL     1     -16.055  -9.712   0.557  0.00  0.00    +0.000 C 
ATOM      2  C   UNL     1     -17.037 -10.773   0.916  0.00  0.00    +0.000 C 
ATOM      3  C   UNL     1     -16.807 -10.438  -0.519  0.00  0.00    +0.000 C 
ATOM      4  H   UNL     1     -17.978 -10.468   1.363  0.00  0.00    +0.000 HD
ATOM      5  H   UNL     1     -16.247 -11.148  -1.121  0.00  0.00    +0.000 HD
ENDROOT
BRANCH   1   6
ATOM      6  C   UNL     1     -16.432  -8.306   0.885  0.00  0.00    +0.000 C 
ATOM      7  H   UNL     1     -17.513  -8.167   1.007  0.00  0.00    +0.000 HD
ATOM      8  H   UNL     1     -15.963  -7.994   1.824  0.00  0.00    +0.000 HD
ATOM      9  H   UNL     1     -16.096  -7.623   0.097  0.00  0.00    +0.000 HD
ENDBRANCH   1   6
BRANCH   1  10
ATOM     10  C   UNL     1     -14.589  -9.973   0.663  0.00  0.00    +0.000 C 
ATOM     11  H   UNL     1     -14.237  -9.793   1.685  0.00  0.00    +0.000 HD
ATOM     12  H   UNL     1     -14.312 -10.997   0.388  0.00  0.00    +0.000 HD
ATOM     13  H   UNL     1     -14.033  -9.305  -0.005  0.00  0.00    +0.000 HD
ENDBRANCH   1  10
BRANCH   2  14
ATOM     14  C   UNL     1     -16.558 -12.079   1.406  0.00  0.00    +0.000 C 
ATOM     15  C   UNL     1     -16.250 -12.422   2.671  0.00  0.00    +0.000 C 
ATOM     16  H   UNL     1     -16.457 -12.849   0.641  0.00  0.00    +0.000 HD
BRANCH  15  17
ATOM     17  C   UNL     1     -15.771 -13.808   3.006  0.00  0.00    +0.000 C 
ATOM     18  H   UNL     1     -15.559 -14.367   2.089  0.00  0.00    +0.000 HD
ATOM     19  H   UNL     1     -14.854 -13.758   3.603  0.00  0.00    +0.000 HD
ATOM     20  H   UNL     1     -16.510 -14.378   3.578  0.00  0.00    +0.000 HD
ENDBRANCH  15  17
BRANCH  15  21
ATOM     21  C   UNL     1     -16.352 -11.484   3.840  0.00  0.00    +0.000 C 
ATOM     22  H   UNL     1     -15.357 -11.288   4.254  0.00  0.00    +0.000 HD
ATOM     23  H   UNL     1     -16.788 -10.532   3.522  0.00  0.00    +0.000 HD
ATOM     24  H   UNL     1     -16.973 -11.877   4.649  0.00  0.00    +0.000 HD
ENDBRANCH  15  21
ENDBRANCH   2  14
BRANCH   3  26
ATOM     25  O   UNL     1     -17.702  -8.943  -2.147  0.00  0.00    +0.000 OA
ATOM     26  C   UNL     1     -17.888  -9.763  -1.259  0.00  0.00    +0.000 C 
BRANCH  26  27
ATOM     27  O   UNL     1     -19.096 -10.196  -0.799  0.00  0.00    +0.000 OA
BRANCH  27  28
ATOM     28  C   UNL     1     -19.890 -10.921  -1.743  0.00  0.00    +0.000 C 
ATOM     29  H   UNL     1     -19.271 -11.201  -2.603  0.00  0.00    +0.000 HD
ATOM     30  H   UNL     1     -20.285 -11.827  -1.269  0.00  0.00    +0.000 HD
BRANCH  28  31
ATOM     31  C   UNL     1     -21.035 -10.044  -2.202  0.00  0.00    +0.000 C 
ATOM     32  H   UNL     1     -21.726 -10.603  -2.840  0.00  0.00    +0.000 HD
ATOM     33  H   UNL     1     -21.588  -9.651  -1.342  0.00  0.00    +0.000 HD
ATOM     34  H   UNL     1     -20.659  -9.179  -2.760  0.00  0.00    +0.000 HD
ENDBRANCH  28  31
ENDBRANCH  27  28
ENDBRANCH  26  27
ENDBRANCH   3  26
TORSDOF 9
ENDMDL
MODEL 10
REMARK VINA RESULT:    -3.967     15.167     16.762
REMARK INTER + INTRA:          -5.964
REMARK INTER:                  -5.395
REMARK INTRA:                  -0.569
REMARK UNBOUND:                -0.489
REMARK  Name = 7334
REMARK  9 active torsions:
REMARK  status: ('A' for Active; 'I' for Inactive)
REMARK    1  A    between atoms: O_1  and  C_9
REMARK    2  A    between atoms: O_1  and  C_13
REMARK    3  A    between atoms: C_3  and  C_6
REMARK    4  A    between atoms: C_3  and  C_7
REMARK    5  A    between atoms: C_4  and  C_8
REMARK    6  A    between atoms: C_5  and  C_9
REMARK    7  A    between atoms: C_10  and  C_11
REMARK    8  A    between atoms: C_10  and  C_12
REMARK    9  A    between atoms: C_13  and  C_14
REMARK                            x       y       z     vdW  Elec       q    Type
REMARK                         _______ _______ _______ _____ _____    ______ ____
ROOT
ATOM      1  C   UNL     1       5.573  -3.123  13.534  0.00  0.00    +0.000 C 
ATOM      2  C   UNL     1       6.954  -2.641  13.820  0.00  0.00    +0.000 C 
ATOM      3  C   UNL     1       6.573  -2.993  12.423  0.00  0.00    +0.000 C 
ATOM      4  H   UNL     1       7.631  -3.310  14.344  0.00  0.00    +0.000 HD
ATOM      5  H   UNL     1       6.425  -2.178  11.718  0.00  0.00    +0.000 HD
ENDROOT
BRANCH   1   6
ATOM      6  C   UNL     1       5.218  -4.483  14.035  0.00  0.00    +0.000 C 
ATOM      7  H   UNL     1       5.147  -4.534  15.128  0.00  0.00    +0.000 HD
ATOM      8  H   UNL     1       4.246  -4.793  13.638  0.00  0.00    +0.000 HD
ATOM      9  H   UNL     1       5.963  -5.218  13.714  0.00  0.00    +0.000 HD
ENDBRANCH   1   6
BRANCH   1  10
ATOM     10  C   UNL     1       4.426  -2.169  13.538  0.00  0.00    +0.000 C 
ATOM     11  H   UNL     1       4.677  -1.260  12.981  0.00  0.00    +0.000 HD
ATOM     12  H   UNL     1       3.513  -2.589  13.101  0.00  0.00    +0.000 HD
ATOM     13  H   UNL     1       4.178  -1.875  14.565  0.00  0.00    +0.000 HD
ENDBRANCH   1  10
BRANCH   2  14
ATOM     14  C   UNL     1       7.183  -1.219  14.137  0.00  0.00    +0.000 C 
ATOM     15  C   UNL     1       7.946  -0.706  15.122  0.00  0.00    +0.000 C 
ATOM     16  H   UNL     1       6.676  -0.513  13.480  0.00  0.00    +0.000 HD
BRANCH  15  17
ATOM     17  C   UNL     1       8.074   0.780  15.312  0.00  0.00    +0.000 C 
ATOM     18  H   UNL     1       7.127   1.275  15.070  0.00  0.00    +0.000 HD
ATOM     19  H   UNL     1       8.330   1.009  16.352  0.00  0.00    +0.000 HD
ATOM     20  H   UNL     1       8.849   1.217  14.674  0.00  0.00    +0.000 HD
ENDBRANCH  15  17
BRANCH  15  21
ATOM     21  C   UNL     1       8.721  -1.542  16.099  0.00  0.00    +0.000 C 
ATOM     22  H   UNL     1       9.620  -1.007  16.423  0.00  0.00    +0.000 HD
ATOM     23  H   UNL     1       8.109  -1.757  16.980  0.00  0.00    +0.000 HD
ATOM     24  H   UNL     1       9.043  -2.500  15.680  0.00  0.00    +0.000 HD
ENDBRANCH  15  21
ENDBRANCH   2  14
BRANCH   3  26
ATOM     25  O   UNL     1       8.116  -4.807  12.302  0.00  0.00    +0.000 OA
ATOM     26  C   UNL     1       7.175  -4.193  11.816  0.00  0.00    +0.000 C 
BRANCH  26  27
ATOM     27  O   UNL     1       6.526  -4.495  10.657  0.00  0.00    +0.000 OA
BRANCH  27  28
ATOM     28  C   UNL     1       6.005  -5.824  10.571  0.00  0.00    +0.000 C 
ATOM     29  H   UNL     1       6.332  -6.285   9.632  0.00  0.00    +0.000 HD
ATOM     30  H   UNL     1       6.375  -6.417  11.414  0.00  0.00    +0.000 HD
BRANCH  28  31
ATOM     31  C   UNL     1       4.492  -5.765  10.612  0.00  0.00    +0.000 C 
ATOM     32  H   UNL     1       4.068  -5.906   9.613  0.00  0.00    +0.000 HD
ATOM     33  H   UNL     1       4.095  -6.536  11.278  0.00  0.00    +0.000 HD
ATOM     34  H   UNL     1       4.155  -4.800  11.005  0.00  0.00    +0.000 HD
ENDBRANCH  28  31
ENDBRANCH  27  28
ENDBRANCH  26  27
ENDBRANCH   3  26
TORSDOF 9
ENDMDL
