MODEL 1
REMARK VINA RESULT:    -4.795      0.000      0.000
REMARK INTER + INTRA:          -7.721
REMARK INTER:                  -7.109
REMARK INTRA:                  -0.613
REMARK UNBOUND:                -0.403
REMARK  Name = 7799
REMARK  10 active torsions:
REMARK  status: ('A' for Active; 'I' for Inactive)
REMARK    1  A    between atoms: O_1  and  C_10
REMARK    2  A    between atoms: O_1  and  C_11
REMARK    3  A    between atoms: C_3  and  C_4
REMARK    4  A    between atoms: C_3  and  C_5
REMARK    5  A    between atoms: C_4  and  C_6
REMARK    6  A    between atoms: C_5  and  C_7
REMARK    7  A    between atoms: C_6  and  C_8
REMARK    8  A    between atoms: C_7  and  C_9
REMARK    9  A    between atoms: C_8  and  C_10
REMARK   10  A    between atoms: C_11  and  C_12
REMARK                            x       y       z     vdW  Elec       q    Type
REMARK                         _______ _______ _______ _____ _____    ______ ____
ROOT
ATOM      1  C   UNL     1       8.414  -0.909  -4.940  0.00  0.00    +0.000 C 
ATOM      2  H   UNL     1       8.547  -1.690  -5.697  0.00  0.00    +0.000 HD
ATOM      3  H   UNL     1       8.523   0.058  -5.448  0.00  0.00    +0.000 HD
ENDROOT
BRANCH   1   4
ATOM      4  C   UNL     1       7.015  -1.014  -4.330  0.00  0.00    +0.000 C 
ATOM      5  H   UNL     1       6.674  -2.056  -4.367  0.00  0.00    +0.000 HD
ATOM      6  H   UNL     1       7.053  -0.722  -3.274  0.00  0.00    +0.000 HD
BRANCH   4   7
ATOM      7  C   UNL     1       6.017  -0.122  -5.072  0.00  0.00    +0.000 C 
ATOM      8  H   UNL     1       5.436  -0.726  -5.778  0.00  0.00    +0.000 HD
ATOM      9  H   UNL     1       6.563   0.627  -5.659  0.00  0.00    +0.000 HD
BRANCH   7  10
ATOM     10  C   UNL     1       5.072   0.583  -4.098  0.00  0.00    +0.000 C 
ATOM     11  H   UNL     1       4.383  -0.145  -3.656  0.00  0.00    +0.000 HD
ATOM     12  H   UNL     1       4.465   1.320  -4.636  0.00  0.00    +0.000 HD
BRANCH  10  13
ATOM     13  C   UNL     1       5.838   1.280  -2.985  0.00  0.00    +0.000 C 
ATOM     14  H   UNL     1       6.817   0.813  -2.832  0.00  0.00    +0.000 HD
ATOM     15  H   UNL     1       5.286   1.238  -2.042  0.00  0.00    +0.000 HD
ATOM     16  H   UNL     1       6.000   2.332  -3.239  0.00  0.00    +0.000 HD
ENDBRANCH  10  13
ENDBRANCH   7  10
ENDBRANCH   4   7
ENDBRANCH   1   4
BRANCH   1  17
ATOM     17  C   UNL     1       9.499  -1.044  -3.866  0.00  0.00    +0.000 C 
ATOM     18  H   UNL     1       9.974  -2.030  -3.944  0.00  0.00    +0.000 HD
ATOM     19  H   UNL     1      10.288  -0.303  -4.054  0.00  0.00    +0.000 HD
BRANCH  17  20
ATOM     20  C   UNL     1       8.949  -0.857  -2.453  0.00  0.00    +0.000 C 
ATOM     21  H   UNL     1       7.855  -0.818  -2.491  0.00  0.00    +0.000 HD
ATOM     22  H   UNL     1       9.252  -1.706  -1.829  0.00  0.00    +0.000 HD
BRANCH  20  24
ATOM     23  O   UNL     1      10.456   1.016  -2.083  0.00  0.00    +0.000 OA
ATOM     24  C   UNL     1       9.435   0.412  -1.787  0.00  0.00    +0.000 C 
BRANCH  24  25
ATOM     25  O   UNL     1       8.533   0.783  -0.830  0.00  0.00    +0.000 OA
BRANCH  25  26
ATOM     26  C   UNL     1       9.042   1.640   0.197  0.00  0.00    +0.000 C 
ATOM     27  H   UNL     1       8.866   1.181   1.175  0.00  0.00    +0.000 HD
ATOM     28  H   UNL     1      10.119   1.785   0.051  0.00  0.00    +0.000 HD
BRANCH  26  29
ATOM     29  C   UNL     1       8.332   2.975   0.122  0.00  0.00    +0.000 C 
ATOM     30  H   UNL     1       7.493   2.934  -0.577  0.00  0.00    +0.000 HD
ATOM     31  H   UNL     1       7.958   3.267   1.109  0.00  0.00    +0.000 HD
ATOM     32  H   UNL     1       9.023   3.761  -0.200  0.00  0.00    +0.000 HD
ENDBRANCH  26  29
ENDBRANCH  25  26
ENDBRANCH  24  25
ENDBRANCH  20  24
ENDBRANCH  17  20
ENDBRANCH   1  17
TORSDOF 10
ENDMDL
MODEL 2
REMARK VINA RESULT:    -4.681      2.572      3.824
REMARK INTER + INTRA:          -7.547
REMARK INTER:                  -7.111
REMARK INTRA:                  -0.436
REMARK UNBOUND:                -0.403
REMARK  Name = 7799
REMARK  10 active torsions:
REMARK  status: ('A' for Active; 'I' for Inactive)
REMARK    1  A    between atoms: O_1  and  C_10
REMARK    2  A    between atoms: O_1  and  C_11
REMARK    3  A    between atoms: C_3  and  C_4
REMARK    4  A    between atoms: C_3  and  C_5
REMARK    5  A    between atoms: C_4  and  C_6
REMARK    6  A    between atoms: C_5  and  C_7
REMARK    7  A    between atoms: C_6  and  C_8
REMARK    8  A    between atoms: C_7  and  C_9
REMARK    9  A    between atoms: C_8  and  C_10
REMARK   10  A    between atoms: C_11  and  C_12
REMARK                            x       y       z     vdW  Elec       q    Type
REMARK                         _______ _______ _______ _____ _____    ______ ____
ROOT
ATOM      1  C   UNL     1       6.273  -0.076  -1.279  0.00  0.00    +0.000 C 
ATOM      2  H   UNL     1       5.228  -0.390  -1.176  0.00  0.00    +0.000 HD
ATOM      3  H   UNL     1       6.877  -0.987  -1.378  0.00  0.00    +0.000 HD
ENDROOT
BRANCH   1   4
ATOM      4  C   UNL     1       6.433   0.784  -2.534  0.00  0.00    +0.000 C 
ATOM      5  H   UNL     1       5.444   1.064  -2.917  0.00  0.00    +0.000 HD
ATOM      6  H   UNL     1       6.956   1.713  -2.277  0.00  0.00    +0.000 HD
BRANCH   4   7
ATOM      7  C   UNL     1       7.214   0.041  -3.621  0.00  0.00    +0.000 C 
ATOM      8  H   UNL     1       7.821  -0.749  -3.164  0.00  0.00    +0.000 HD
ATOM      9  H   UNL     1       7.904   0.736  -4.114  0.00  0.00    +0.000 HD
BRANCH   7  10
ATOM     10  C   UNL     1       6.274  -0.568  -4.661  0.00  0.00    +0.000 C 
ATOM     11  H   UNL     1       5.787  -1.458  -4.248  0.00  0.00    +0.000 HD
ATOM     12  H   UNL     1       6.847  -0.888  -5.538  0.00  0.00    +0.000 HD
BRANCH  10  13
ATOM     13  C   UNL     1       5.206   0.424  -5.095  0.00  0.00    +0.000 C 
ATOM     14  H   UNL     1       4.283  -0.093  -5.379  0.00  0.00    +0.000 HD
ATOM     15  H   UNL     1       5.545   1.017  -5.950  0.00  0.00    +0.000 HD
ATOM     16  H   UNL     1       4.972   1.111  -4.276  0.00  0.00    +0.000 HD
ENDBRANCH  10  13
ENDBRANCH   7  10
ENDBRANCH   4   7
ENDBRANCH   1   4
BRANCH   1  17
ATOM     17  C   UNL     1       6.707   0.687  -0.024  0.00  0.00    +0.000 C 
ATOM     18  H   UNL     1       5.872   0.730   0.688  0.00  0.00    +0.000 HD
ATOM     19  H   UNL     1       7.513   0.134   0.476  0.00  0.00    +0.000 HD
BRANCH  17  20
ATOM     20  C   UNL     1       7.178   2.106  -0.336  0.00  0.00    +0.000 C 
ATOM     21  H   UNL     1       8.212   2.230   0.007  0.00  0.00    +0.000 HD
ATOM     22  H   UNL     1       7.141   2.273  -1.419  0.00  0.00    +0.000 HD
BRANCH  20  24
ATOM     23  O   UNL     1       5.450   2.965   1.146  0.00  0.00    +0.000 OA
ATOM     24  C   UNL     1       6.339   3.174   0.332  0.00  0.00    +0.000 C 
BRANCH  24  25
ATOM     25  O   UNL     1       6.759   4.401  -0.097  0.00  0.00    +0.000 OA
BRANCH  25  26
ATOM     26  C   UNL     1       8.098   4.755   0.262  0.00  0.00    +0.000 C 
ATOM     27  H   UNL     1       8.753   3.887   0.126  0.00  0.00    +0.000 HD
ATOM     28  H   UNL     1       8.444   5.575  -0.377  0.00  0.00    +0.000 HD
BRANCH  26  29
ATOM     29  C   UNL     1       8.122   5.191   1.712  0.00  0.00    +0.000 C 
ATOM     30  H   UNL     1       7.455   6.041   1.875  0.00  0.00    +0.000 HD
ATOM     31  H   UNL     1       7.815   4.368   2.366  0.00  0.00    +0.000 HD
ATOM     32  H   UNL     1       9.136   5.474   2.012  0.00  0.00    +0.000 HD
ENDBRANCH  26  29
ENDBRANCH  25  26
ENDBRANCH  24  25
ENDBRANCH  20  24
ENDBRANCH  17  20
ENDBRANCH   1  17
TORSDOF 10
ENDMDL
MODEL 3
REMARK VINA RESULT:    -4.555      2.135      4.971
REMARK INTER + INTRA:          -7.354
REMARK INTER:                  -6.731
REMARK INTRA:                  -0.623
REMARK UNBOUND:                -0.403
REMARK  Name = 7799
REMARK  10 active torsions:
REMARK  status: ('A' for Active; 'I' for Inactive)
REMARK    1  A    between atoms: O_1  and  C_10
REMARK    2  A    between atoms: O_1  and  C_11
REMARK    3  A    between atoms: C_3  and  C_4
REMARK    4  A    between atoms: C_3  and  C_5
REMARK    5  A    between atoms: C_4  and  C_6
REMARK    6  A    between atoms: C_5  and  C_7
REMARK    7  A    between atoms: C_6  and  C_8
REMARK    8  A    between atoms: C_7  and  C_9
REMARK    9  A    between atoms: C_8  and  C_10
REMARK   10  A    between atoms: C_11  and  C_12
REMARK                            x       y       z     vdW  Elec       q    Type
REMARK                         _______ _______ _______ _____ _____    ______ ____
ROOT
ATOM      1  C   UNL     1       8.363   1.690  -0.640  0.00  0.00    +0.000 C 
ATOM      2  H   UNL     1       8.664   2.506  -1.309  0.00  0.00    +0.000 HD
ATOM      3  H   UNL     1       9.077   1.674   0.194  0.00  0.00    +0.000 HD
ENDROOT
BRANCH   1   4
ATOM      4  C   UNL     1       6.955   1.954  -0.105  0.00  0.00    +0.000 C 
ATOM      5  H   UNL     1       6.215   1.496  -0.774  0.00  0.00    +0.000 HD
ATOM      6  H   UNL     1       6.841   1.479   0.876  0.00  0.00    +0.000 HD
BRANCH   4   7
ATOM      7  C   UNL     1       6.678   3.454   0.017  0.00  0.00    +0.000 C 
ATOM      8  H   UNL     1       6.007   3.637   0.865  0.00  0.00    +0.000 HD
ATOM      9  H   UNL     1       6.163   3.805  -0.885  0.00  0.00    +0.000 HD
BRANCH   7  10
ATOM     10  C   UNL     1       7.973   4.243   0.206  0.00  0.00    +0.000 C 
ATOM     11  H   UNL     1       8.087   4.972  -0.605  0.00  0.00    +0.000 HD
ATOM     12  H   UNL     1       8.832   3.566   0.159  0.00  0.00    +0.000 HD
BRANCH  10  13
ATOM     13  C   UNL     1       7.987   4.978   1.537  0.00  0.00    +0.000 C 
ATOM     14  H   UNL     1       8.953   4.860   2.040  0.00  0.00    +0.000 HD
ATOM     15  H   UNL     1       7.205   4.601   2.203  0.00  0.00    +0.000 HD
ATOM     16  H   UNL     1       7.815   6.048   1.381  0.00  0.00    +0.000 HD
ENDBRANCH  10  13
ENDBRANCH   7  10
ENDBRANCH   4   7
ENDBRANCH   1   4
BRANCH   1  17
ATOM     17  C   UNL     1       8.432   0.358  -1.393  0.00  0.00    +0.000 C 
ATOM     18  H   UNL     1       8.513   0.547  -2.471  0.00  0.00    +0.000 HD
ATOM     19  H   UNL     1       9.345  -0.177  -1.101  0.00  0.00    +0.000 HD
BRANCH  17  20
ATOM     20  C   UNL     1       7.215  -0.527  -1.127  0.00  0.00    +0.000 C 
ATOM     21  H   UNL     1       7.466  -1.268  -0.359  0.00  0.00    +0.000 HD
ATOM     22  H   UNL     1       6.386   0.092  -0.765  0.00  0.00    +0.000 HD
BRANCH  20  24
ATOM     23  O   UNL     1       6.123  -2.330  -2.340  0.00  0.00    +0.000 OA
ATOM     24  C   UNL     1       6.741  -1.275  -2.354  0.00  0.00    +0.000 C 
BRANCH  24  25
ATOM     25  O   UNL     1       7.088  -0.564  -3.468  0.00  0.00    +0.000 OA
BRANCH  25  26
ATOM     26  C   UNL     1       6.003  -0.194  -4.324  0.00  0.00    +0.000 C 
ATOM     27  H   UNL     1       6.391   0.051  -5.319  0.00  0.00    +0.000 HD
ATOM     28  H   UNL     1       5.298  -1.029  -4.404  0.00  0.00    +0.000 HD
BRANCH  26  29
ATOM     29  C   UNL     1       5.301   1.013  -3.738  0.00  0.00    +0.000 C 
ATOM     30  H   UNL     1       5.800   1.351  -2.826  0.00  0.00    +0.000 HD
ATOM     31  H   UNL     1       5.284   1.837  -4.459  0.00  0.00    +0.000 HD
ATOM     32  H   UNL     1       4.258   0.775  -3.503  0.00  0.00    +0.000 HD
ENDBRANCH  26  29
ENDBRANCH  25  26
ENDBRANCH  24  25
ENDBRANCH  20  24
ENDBRANCH  17  20
ENDBRANCH   1  17
TORSDOF 10
ENDMDL
MODEL 4
REMARK VINA RESULT:    -4.515      1.778      2.112
REMARK INTER + INTRA:          -7.293
REMARK INTER:                  -6.699
REMARK INTRA:                  -0.593
REMARK UNBOUND:                -0.403
REMARK  Name = 7799
REMARK  10 active torsions:
REMARK  status: ('A' for Active; 'I' for Inactive)
REMARK    1  A    between atoms: O_1  and  C_10
REMARK    2  A    between atoms: O_1  and  C_11
REMARK    3  A    between atoms: C_3  and  C_4
REMARK    4  A    between atoms: C_3  and  C_5
REMARK    5  A    between atoms: C_4  and  C_6
REMARK    6  A    between atoms: C_5  and  C_7
REMARK    7  A    between atoms: C_6  and  C_8
REMARK    8  A    between atoms: C_7  and  C_9
REMARK    9  A    between atoms: C_8  and  C_10
REMARK   10  A    between atoms: C_11  and  C_12
REMARK                            x       y       z     vdW  Elec       q    Type
REMARK                         _______ _______ _______ _____ _____    ______ ____
ROOT
ATOM      1  C   UNL     1       8.861  -1.383  -3.833  0.00  0.00    +0.000 C 
ATOM      2  H   UNL     1       8.414  -2.372  -3.674  0.00  0.00    +0.000 HD
ATOM      3  H   UNL     1       9.845  -1.542  -4.291  0.00  0.00    +0.000 HD
ENDROOT
BRANCH   1   4
ATOM      4  C   UNL     1       7.980  -0.564  -4.778  0.00  0.00    +0.000 C 
ATOM      5  H   UNL     1       8.054   0.500  -4.520  0.00  0.00    +0.000 HD
ATOM      6  H   UNL     1       8.345  -0.674  -5.806  0.00  0.00    +0.000 HD
BRANCH   4   7
ATOM      7  C   UNL     1       6.519  -1.010  -4.703  0.00  0.00    +0.000 C 
ATOM      8  H   UNL     1       6.353  -1.577  -3.779  0.00  0.00    +0.000 HD
ATOM      9  H   UNL     1       6.300  -1.684  -5.540  0.00  0.00    +0.000 HD
BRANCH   7  10
ATOM     10  C   UNL     1       5.570   0.187  -4.750  0.00  0.00    +0.000 C 
ATOM     11  H   UNL     1       4.548  -0.155  -4.950  0.00  0.00    +0.000 HD
ATOM     12  H   UNL     1       5.855   0.856  -5.569  0.00  0.00    +0.000 HD
BRANCH  10  13
ATOM     13  C   UNL     1       5.585   0.961  -3.441  0.00  0.00    +0.000 C 
ATOM     14  H   UNL     1       6.603   1.039  -3.044  0.00  0.00    +0.000 HD
ATOM     15  H   UNL     1       4.960   0.472  -2.688  0.00  0.00    +0.000 HD
ATOM     16  H   UNL     1       5.203   1.974  -3.596  0.00  0.00    +0.000 HD
ENDBRANCH  10  13
ENDBRANCH   7  10
ENDBRANCH   4   7
ENDBRANCH   1   4
BRANCH   1  17
ATOM     17  C   UNL     1       9.037  -0.678  -2.484  0.00  0.00    +0.000 C 
ATOM     18  H   UNL     1      10.070  -0.803  -2.134  0.00  0.00    +0.000 HD
ATOM     19  H   UNL     1       8.882   0.401  -2.617  0.00  0.00    +0.000 HD
BRANCH  17  20
ATOM     20  C   UNL     1       8.076  -1.203  -1.420  0.00  0.00    +0.000 C 
ATOM     21  H   UNL     1       7.091  -0.743  -1.559  0.00  0.00    +0.000 HD
ATOM     22  H   UNL     1       7.976  -2.291  -1.522  0.00  0.00    +0.000 HD
BRANCH  20  24
ATOM     23  O   UNL     1       9.107  -1.694   0.728  0.00  0.00    +0.000 OA
ATOM     24  C   UNL     1       8.529  -0.905  -0.007  0.00  0.00    +0.000 C 
BRANCH  24  25
ATOM     25  O   UNL     1       8.217   0.389   0.296  0.00  0.00    +0.000 OA
BRANCH  25  26
ATOM     26  C   UNL     1       6.853   0.763   0.073  0.00  0.00    +0.000 C 
ATOM     27  H   UNL     1       6.778   1.854   0.027  0.00  0.00    +0.000 HD
ATOM     28  H   UNL     1       6.507   0.333  -0.873  0.00  0.00    +0.000 HD
BRANCH  26  29
ATOM     29  C   UNL     1       6.006   0.239   1.213  0.00  0.00    +0.000 C 
ATOM     30  H   UNL     1       5.926  -0.850   1.173  0.00  0.00    +0.000 HD
ATOM     31  H   UNL     1       6.437   0.528   2.178  0.00  0.00    +0.000 HD
ATOM     32  H   UNL     1       5.000   0.669   1.174  0.00  0.00    +0.000 HD
ENDBRANCH  26  29
ENDBRANCH  25  26
ENDBRANCH  24  25
ENDBRANCH  20  24
ENDBRANCH  17  20
ENDBRANCH   1  17
TORSDOF 10
ENDMDL
MODEL 5
REMARK VINA RESULT:    -4.377     16.854     18.668
REMARK INTER + INTRA:          -7.084
REMARK INTER:                  -6.599
REMARK INTRA:                  -0.485
REMARK UNBOUND:                -0.403
REMARK  Name = 7799
REMARK  10 active torsions:
REMARK  status: ('A' for Active; 'I' for Inactive)
REMARK    1  A    between atoms: O_1  and  C_10
REMARK    2  A    between atoms: O_1  and  C_11
REMARK    3  A    between atoms: C_3  and  C_4
REMARK    4  A    between atoms: C_3  and  C_5
REMARK    5  A    between atoms: C_4  and  C_6
REMARK    6  A    between atoms: C_5  and  C_7
REMARK    7  A    between atoms: C_6  and  C_8
REMARK    8  A    between atoms: C_7  and  C_9
REMARK    9  A    between atoms: C_8  and  C_10
REMARK   10  A    between atoms: C_11  and  C_12
REMARK                            x       y       z     vdW  Elec       q    Type
REMARK                         _______ _______ _______ _____ _____    ______ ____
ROOT
ATOM      1  C   UNL     1      -0.392 -12.390  -9.325  0.00  0.00    +0.000 C 
ATOM      2  H   UNL     1      -0.848 -11.603  -9.938  0.00  0.00    +0.000 HD
ATOM      3  H   UNL     1       0.633 -12.532  -9.689  0.00  0.00    +0.000 HD
ENDROOT
BRANCH   1   4
ATOM      4  C   UNL     1      -0.360 -11.950  -7.860  0.00  0.00    +0.000 C 
ATOM      5  H   UNL     1       0.681 -11.852  -7.528  0.00  0.00    +0.000 HD
ATOM      6  H   UNL     1      -0.825 -10.962  -7.765  0.00  0.00    +0.000 HD
BRANCH   4   7
ATOM      7  C   UNL     1      -1.094 -12.949  -6.963  0.00  0.00    +0.000 C 
ATOM      8  H   UNL     1      -0.919 -13.969  -7.327  0.00  0.00    +0.000 HD
ATOM      9  H   UNL     1      -2.174 -12.766  -7.019  0.00  0.00    +0.000 HD
BRANCH   7  10
ATOM     10  C   UNL     1      -0.631 -12.836  -5.511  0.00  0.00    +0.000 C 
ATOM     11  H   UNL     1      -1.280 -12.140  -4.966  0.00  0.00    +0.000 HD
ATOM     12  H   UNL     1       0.385 -12.428  -5.475  0.00  0.00    +0.000 HD
BRANCH  10  13
ATOM     13  C   UNL     1      -0.655 -14.186  -4.812  0.00  0.00    +0.000 C 
ATOM     14  H   UNL     1      -0.395 -14.083  -3.753  0.00  0.00    +0.000 HD
ATOM     15  H   UNL     1       0.054 -14.879  -5.274  0.00  0.00    +0.000 HD
ATOM     16  H   UNL     1      -1.654 -14.628  -4.876  0.00  0.00    +0.000 HD
ENDBRANCH  10  13
ENDBRANCH   7  10
ENDBRANCH   4   7
ENDBRANCH   1   4
BRANCH   1  17
ATOM     17  C   UNL     1      -1.178 -13.694  -9.497  0.00  0.00    +0.000 C 
ATOM     18  H   UNL     1      -0.503 -14.551  -9.370  0.00  0.00    +0.000 HD
ATOM     19  H   UNL     1      -1.931 -13.771  -8.701  0.00  0.00    +0.000 HD
BRANCH  17  20
ATOM     20  C   UNL     1      -1.863 -13.789 -10.859  0.00  0.00    +0.000 C 
ATOM     21  H   UNL     1      -2.904 -14.101 -10.721  0.00  0.00    +0.000 HD
ATOM     22  H   UNL     1      -1.849 -12.806 -11.344  0.00  0.00    +0.000 HD
BRANCH  20  24
ATOM     23  O   UNL     1      -1.029 -15.967 -11.550  0.00  0.00    +0.000 OA
ATOM     24  C   UNL     1      -1.202 -14.780 -11.791  0.00  0.00    +0.000 C 
BRANCH  24  25
ATOM     25  O   UNL     1      -0.863 -14.142 -12.951  0.00  0.00    +0.000 OA
BRANCH  25  26
ATOM     26  C   UNL     1       0.263 -13.263 -12.864  0.00  0.00    +0.000 C 
ATOM     27  H   UNL     1       0.248 -12.568 -13.710  0.00  0.00    +0.000 HD
ATOM     28  H   UNL     1       0.214 -12.698 -11.927  0.00  0.00    +0.000 HD
BRANCH  26  29
ATOM     29  C   UNL     1       1.534 -14.085 -12.900  0.00  0.00    +0.000 C 
ATOM     30  H   UNL     1       1.480 -14.920 -12.197  0.00  0.00    +0.000 HD
ATOM     31  H   UNL     1       1.708 -14.480 -13.907  0.00  0.00    +0.000 HD
ATOM     32  H   UNL     1       2.400 -13.464 -12.648  0.00  0.00    +0.000 HD
ENDBRANCH  26  29
ENDBRANCH  25  26
ENDBRANCH  24  25
ENDBRANCH  20  24
ENDBRANCH  17  20
ENDBRANCH   1  17
TORSDOF 10
ENDMDL
MODEL 6
REMARK VINA RESULT:    -4.377      1.894      2.881
REMARK INTER + INTRA:          -7.082
REMARK INTER:                  -6.350
REMARK INTRA:                  -0.732
REMARK UNBOUND:                -0.403
REMARK  Name = 7799
REMARK  10 active torsions:
REMARK  status: ('A' for Active; 'I' for Inactive)
REMARK    1  A    between atoms: O_1  and  C_10
REMARK    2  A    between atoms: O_1  and  C_11
REMARK    3  A    between atoms: C_3  and  C_4
REMARK    4  A    between atoms: C_3  and  C_5
REMARK    5  A    between atoms: C_4  and  C_6
REMARK    6  A    between atoms: C_5  and  C_7
REMARK    7  A    between atoms: C_6  and  C_8
REMARK    8  A    between atoms: C_7  and  C_9
REMARK    9  A    between atoms: C_8  and  C_10
REMARK   10  A    between atoms: C_11  and  C_12
REMARK                            x       y       z     vdW  Elec       q    Type
REMARK                         _______ _______ _______ _____ _____    ______ ____
ROOT
ATOM      1  C   UNL     1       9.413  -0.241  -2.323  0.00  0.00    +0.000 C 
ATOM      2  H   UNL     1      10.451  -0.557  -2.482  0.00  0.00    +0.000 HD
ATOM      3  H   UNL     1       9.359   0.829  -2.563  0.00  0.00    +0.000 HD
ENDROOT
BRANCH   1   4
ATOM      4  C   UNL     1       8.487  -1.024  -3.256  0.00  0.00    +0.000 C 
ATOM      5  H   UNL     1       9.024  -1.281  -4.177  0.00  0.00    +0.000 HD
ATOM      6  H   UNL     1       8.197  -1.966  -2.777  0.00  0.00    +0.000 HD
BRANCH   4   7
ATOM      7  C   UNL     1       7.233  -0.217  -3.599  0.00  0.00    +0.000 C 
ATOM      8  H   UNL     1       7.230   0.022  -4.670  0.00  0.00    +0.000 HD
ATOM      9  H   UNL     1       7.251   0.735  -3.055  0.00  0.00    +0.000 HD
BRANCH   7  10
ATOM     10  C   UNL     1       5.962  -0.987  -3.240  0.00  0.00    +0.000 C 
ATOM     11  H   UNL     1       5.379  -1.186  -4.146  0.00  0.00    +0.000 HD
ATOM     12  H   UNL     1       5.336  -0.382  -2.576  0.00  0.00    +0.000 HD
BRANCH  10  13
ATOM     13  C   UNL     1       6.286  -2.308  -2.559  0.00  0.00    +0.000 C 
ATOM     14  H   UNL     1       6.179  -3.145  -3.257  0.00  0.00    +0.000 HD
ATOM     15  H   UNL     1       5.622  -2.484  -1.708  0.00  0.00    +0.000 HD
ATOM     16  H   UNL     1       7.317  -2.301  -2.191  0.00  0.00    +0.000 HD
ENDBRANCH  10  13
ENDBRANCH   7  10
ENDBRANCH   4   7
ENDBRANCH   1   4
BRANCH   1  17
ATOM     17  C   UNL     1       9.031  -0.452  -0.855  0.00  0.00    +0.000 C 
ATOM     18  H   UNL     1       8.201  -1.166  -0.789  0.00  0.00    +0.000 HD
ATOM     19  H   UNL     1       9.876  -0.906  -0.322  0.00  0.00    +0.000 HD
BRANCH  17  20
ATOM     20  C   UNL     1       8.632   0.851  -0.162  0.00  0.00    +0.000 C 
ATOM     21  H   UNL     1       8.927   0.807   0.892  0.00  0.00    +0.000 HD
ATOM     22  H   UNL     1       9.149   1.691  -0.640  0.00  0.00    +0.000 HD
BRANCH  20  24
ATOM     23  O   UNL     1       6.278   0.396   0.251  0.00  0.00    +0.000 OA
ATOM     24  C   UNL     1       7.144   1.123  -0.216  0.00  0.00    +0.000 C 
BRANCH  24  25
ATOM     25  O   UNL     1       6.935   2.322  -0.836  0.00  0.00    +0.000 OA
BRANCH  25  26
ATOM     26  C   UNL     1       6.355   3.345  -0.021  0.00  0.00    +0.000 C 
ATOM     27  H   UNL     1       5.632   3.916  -0.613  0.00  0.00    +0.000 HD
ATOM     28  H   UNL     1       5.845   2.886   0.833  0.00  0.00    +0.000 HD
BRANCH  26  29
ATOM     29  C   UNL     1       7.452   4.264   0.472  0.00  0.00    +0.000 C 
ATOM     30  H   UNL     1       7.996   4.708  -0.366  0.00  0.00    +0.000 HD
ATOM     31  H   UNL     1       7.034   5.066   1.089  0.00  0.00    +0.000 HD
ATOM     32  H   UNL     1       8.160   3.714   1.102  0.00  0.00    +0.000 HD
ENDBRANCH  26  29
ENDBRANCH  25  26
ENDBRANCH  24  25
ENDBRANCH  20  24
ENDBRANCH  17  20
ENDBRANCH   1  17
TORSDOF 10
ENDMDL
MODEL 7
REMARK VINA RESULT:    -4.322      2.432      4.890
REMARK INTER + INTRA:          -6.999
REMARK INTER:                  -6.126
REMARK INTRA:                  -0.873
REMARK UNBOUND:                -0.403
REMARK  Name = 7799
REMARK  10 active torsions:
REMARK  status: ('A' for Active; 'I' for Inactive)
REMARK    1  A    between atoms: O_1  and  C_10
REMARK    2  A    between atoms: O_1  and  C_11
REMARK    3  A    between atoms: C_3  and  C_4
REMARK    4  A    between atoms: C_3  and  C_5
REMARK    5  A    between atoms: C_4  and  C_6
REMARK    6  A    between atoms: C_5  and  C_7
REMARK    7  A    between atoms: C_6  and  C_8
REMARK    8  A    between atoms: C_7  and  C_9
REMARK    9  A    between atoms: C_8  and  C_10
REMARK   10  A    between atoms: C_11  and  C_12
REMARK                            x       y       z     vdW  Elec       q    Type
REMARK                         _______ _______ _______ _____ _____    ______ ____
ROOT
ATOM      1  C   UNL     1       6.617  -0.196  -0.663  0.00  0.00    +0.000 C 
ATOM      2  H   UNL     1       5.955  -0.375   0.193  0.00  0.00    +0.000 HD
ATOM      3  H   UNL     1       6.845   0.877  -0.679  0.00  0.00    +0.000 HD
ENDROOT
BRANCH   1   4
ATOM      4  C   UNL     1       7.912  -0.993  -0.490  0.00  0.00    +0.000 C 
ATOM      5  H   UNL     1       7.707  -1.910   0.076  0.00  0.00    +0.000 HD
ATOM      6  H   UNL     1       8.289  -1.297  -1.474  0.00  0.00    +0.000 HD
BRANCH   4   7
ATOM      7  C   UNL     1       8.979  -0.169   0.235  0.00  0.00    +0.000 C 
ATOM      8  H   UNL     1       9.944  -0.687   0.181  0.00  0.00    +0.000 HD
ATOM      9  H   UNL     1       8.716  -0.083   1.296  0.00  0.00    +0.000 HD
BRANCH   7  10
ATOM     10  C   UNL     1       9.109   1.228  -0.374  0.00  0.00    +0.000 C 
ATOM     11  H   UNL     1       9.541   1.916   0.362  0.00  0.00    +0.000 HD
ATOM     12  H   UNL     1       8.118   1.613  -0.638  0.00  0.00    +0.000 HD
BRANCH  10  13
ATOM     13  C   UNL     1       9.989   1.214  -1.614  0.00  0.00    +0.000 C 
ATOM     14  H   UNL     1      10.902   1.797  -1.453  0.00  0.00    +0.000 HD
ATOM     15  H   UNL     1       9.460   1.634  -2.475  0.00  0.00    +0.000 HD
ATOM     16  H   UNL     1      10.280   0.188  -1.860  0.00  0.00    +0.000 HD
ENDBRANCH  10  13
ENDBRANCH   7  10
ENDBRANCH   4   7
ENDBRANCH   1   4
BRANCH   1  17
ATOM     17  C   UNL     1       5.897  -0.582  -1.959  0.00  0.00    +0.000 C 
ATOM     18  H   UNL     1       6.225  -1.579  -2.281  0.00  0.00    +0.000 HD
ATOM     19  H   UNL     1       4.818  -0.656  -1.766  0.00  0.00    +0.000 HD
BRANCH  17  20
ATOM     20  C   UNL     1       6.145   0.420  -3.086  0.00  0.00    +0.000 C 
ATOM     21  H   UNL     1       5.272   1.074  -3.190  0.00  0.00    +0.000 HD
ATOM     22  H   UNL     1       7.020   1.033  -2.843  0.00  0.00    +0.000 HD
BRANCH  20  24
ATOM     23  O   UNL     1       5.879   0.101  -5.483  0.00  0.00    +0.000 OA
ATOM     24  C   UNL     1       6.392  -0.239  -4.426  0.00  0.00    +0.000 C 
BRANCH  24  25
ATOM     25  O   UNL     1       7.299  -1.247  -4.265  0.00  0.00    +0.000 OA
BRANCH  25  26
ATOM     26  C   UNL     1       8.640  -0.938  -4.659  0.00  0.00    +0.000 C 
ATOM     27  H   UNL     1       8.796  -1.254  -5.696  0.00  0.00    +0.000 HD
ATOM     28  H   UNL     1       8.805   0.142  -4.578  0.00  0.00    +0.000 HD
BRANCH  26  29
ATOM     29  C   UNL     1       9.603  -1.672  -3.750  0.00  0.00    +0.000 C 
ATOM     30  H   UNL     1       9.136  -1.900  -2.788  0.00  0.00    +0.000 HD
ATOM     31  H   UNL     1       9.935  -2.606  -4.214  0.00  0.00    +0.000 HD
ATOM     32  H   UNL     1      10.500  -1.069  -3.573  0.00  0.00    +0.000 HD
ENDBRANCH  26  29
ENDBRANCH  25  26
ENDBRANCH  24  25
ENDBRANCH  20  24
ENDBRANCH  17  20
ENDBRANCH   1  17
TORSDOF 10
ENDMDL
MODEL 8
REMARK VINA RESULT:    -4.183     18.070     19.879
REMARK INTER + INTRA:          -6.787
REMARK INTER:                  -6.155
REMARK INTRA:                  -0.632
REMARK UNBOUND:                -0.403
REMARK  Name = 7799
REMARK  10 active torsions:
REMARK  status: ('A' for Active; 'I' for Inactive)
REMARK    1  A    between atoms: O_1  and  C_10
REMARK    2  A    between atoms: O_1  and  C_11
REMARK    3  A    between atoms: C_3  and  C_4
REMARK    4  A    between atoms: C_3  and  C_5
REMARK    5  A    between atoms: C_4  and  C_6
REMARK    6  A    between atoms: C_5  and  C_7
REMARK    7  A    between atoms: C_6  and  C_8
REMARK    8  A    between atoms: C_7  and  C_9
REMARK    9  A    between atoms: C_8  and  C_10
REMARK   10  A    between atoms: C_11  and  C_12
REMARK                            x       y       z     vdW  Elec       q    Type
REMARK                         _______ _______ _______ _____ _____    ______ ____
ROOT
ATOM      1  C   UNL     1      -0.326 -12.887 -11.007  0.00  0.00    +0.000 C 
ATOM      2  H   UNL     1      -0.463 -11.985 -11.615  0.00  0.00    +0.000 HD
ATOM      3  H   UNL     1       0.671 -13.284 -11.234  0.00  0.00    +0.000 HD
ENDROOT
BRANCH   1   4
ATOM      4  C   UNL     1      -0.411 -12.528  -9.523  0.00  0.00    +0.000 C 
ATOM      5  H   UNL     1       0.601 -12.456  -9.103  0.00  0.00    +0.000 HD
ATOM      6  H   UNL     1      -0.879 -11.543  -9.411  0.00  0.00    +0.000 HD
BRANCH   4   7
ATOM      7  C   UNL     1      -1.217 -13.569  -8.744  0.00  0.00    +0.000 C 
ATOM      8  H   UNL     1      -0.749 -14.555  -8.853  0.00  0.00    +0.000 HD
ATOM      9  H   UNL     1      -2.226 -13.641  -9.167  0.00  0.00    +0.000 HD
BRANCH   7  10
ATOM     10  C   UNL     1      -1.309 -13.205  -7.262  0.00  0.00    +0.000 C 
ATOM     11  H   UNL     1      -1.073 -14.081  -6.647  0.00  0.00    +0.000 HD
ATOM     12  H   UNL     1      -2.332 -12.901  -7.016  0.00  0.00    +0.000 HD
BRANCH  10  13
ATOM     13  C   UNL     1      -0.353 -12.078  -6.906  0.00  0.00    +0.000 C 
ATOM     14  H   UNL     1      -0.073 -11.505  -7.797  0.00  0.00    +0.000 HD
ATOM     15  H   UNL     1       0.561 -12.468  -6.448  0.00  0.00    +0.000 HD
ATOM     16  H   UNL     1      -0.824 -11.392  -6.196  0.00  0.00    +0.000 HD
ENDBRANCH  10  13
ENDBRANCH   7  10
ENDBRANCH   4   7
ENDBRANCH   1   4
BRANCH   1  17
ATOM     17  C   UNL     1      -1.385 -13.927 -11.388  0.00  0.00    +0.000 C 
ATOM     18  H   UNL     1      -1.540 -14.620 -10.551  0.00  0.00    +0.000 HD
ATOM     19  H   UNL     1      -2.345 -13.423 -11.557  0.00  0.00    +0.000 HD
BRANCH  17  20
ATOM     20  C   UNL     1      -1.000 -14.722 -12.636  0.00  0.00    +0.000 C 
ATOM     21  H   UNL     1      -1.569 -14.348 -13.495  0.00  0.00    +0.000 HD
ATOM     22  H   UNL     1       0.070 -14.592 -12.836  0.00  0.00    +0.000 HD
BRANCH  20  24
ATOM     23  O   UNL     1      -1.818 -16.896 -13.360  0.00  0.00    +0.000 OA
ATOM     24  C   UNL     1      -1.277 -16.204 -12.508  0.00  0.00    +0.000 C 
BRANCH  24  25
ATOM     25  O   UNL     1      -0.798 -16.643 -11.306  0.00  0.00    +0.000 OA
BRANCH  25  26
ATOM     26  C   UNL     1      -1.565 -17.675 -10.677  0.00  0.00    +0.000 C 
ATOM     27  H   UNL     1      -2.324 -18.042 -11.376  0.00  0.00    +0.000 HD
ATOM     28  H   UNL     1      -0.903 -18.501 -10.393  0.00  0.00    +0.000 HD
BRANCH  26  29
ATOM     29  C   UNL     1      -2.235 -17.109  -9.444  0.00  0.00    +0.000 C 
ATOM     30  H   UNL     1      -1.541 -17.080  -8.600  0.00  0.00    +0.000 HD
ATOM     31  H   UNL     1      -2.603 -16.096  -9.636  0.00  0.00    +0.000 HD
ATOM     32  H   UNL     1      -3.104 -17.715  -9.166  0.00  0.00    +0.000 HD
ENDBRANCH  26  29
ENDBRANCH  25  26
ENDBRANCH  24  25
ENDBRANCH  20  24
ENDBRANCH  17  20
ENDBRANCH   1  17
TORSDOF 10
ENDMDL
MODEL 9
REMARK VINA RESULT:    -3.943     20.083     22.088
REMARK INTER + INTRA:          -6.421
REMARK INTER:                  -6.018
REMARK INTRA:                  -0.403
REMARK UNBOUND:                -0.403
REMARK  Name = 7799
REMARK  10 active torsions:
REMARK  status: ('A' for Active; 'I' for Inactive)
REMARK    1  A    between atoms: O_1  and  C_10
REMARK    2  A    between atoms: O_1  and  C_11
REMARK    3  A    between atoms: C_3  and  C_4
REMARK    4  A    between atoms: C_3  and  C_5
REMARK    5  A    between atoms: C_4  and  C_6
REMARK    6  A    between atoms: C_5  and  C_7
REMARK    7  A    between atoms: C_6  and  C_8
REMARK    8  A    between atoms: C_7  and  C_9
REMARK    9  A    between atoms: C_8  and  C_10
REMARK   10  A    between atoms: C_11  and  C_12
REMARK                            x       y       z     vdW  Elec       q    Type
REMARK                         _______ _______ _______ _____ _____    ______ ____
ROOT
ATOM      1  C   UNL     1       2.850  -4.193  16.356  0.00  0.00    +0.000 C 
ATOM      2  H   UNL     1       2.831  -3.242  15.810  0.00  0.00    +0.000 HD
ATOM      3  H   UNL     1       1.963  -4.761  16.049  0.00  0.00    +0.000 HD
ENDROOT
BRANCH   1   4
ATOM      4  C   UNL     1       4.113  -4.974  15.988  0.00  0.00    +0.000 C 
ATOM      5  H   UNL     1       4.657  -5.243  16.902  0.00  0.00    +0.000 HD
ATOM      6  H   UNL     1       3.832  -5.910  15.491  0.00  0.00    +0.000 HD
BRANCH   4   7
ATOM      7  C   UNL     1       5.023  -4.158  15.068  0.00  0.00    +0.000 C 
ATOM      8  H   UNL     1       5.277  -4.751  14.181  0.00  0.00    +0.000 HD
ATOM      9  H   UNL     1       5.962  -3.935  15.589  0.00  0.00    +0.000 HD
BRANCH   7  10
ATOM     10  C   UNL     1       4.353  -2.853  14.640  0.00  0.00    +0.000 C 
ATOM     11  H   UNL     1       4.026  -2.294  15.525  0.00  0.00    +0.000 HD
ATOM     12  H   UNL     1       3.461  -3.070  14.044  0.00  0.00    +0.000 HD
BRANCH  10  13
ATOM     13  C   UNL     1       5.299  -1.983  13.828  0.00  0.00    +0.000 C 
ATOM     14  H   UNL     1       5.454  -1.013  14.313  0.00  0.00    +0.000 HD
ATOM     15  H   UNL     1       4.905  -1.805  12.823  0.00  0.00    +0.000 HD
ATOM     16  H   UNL     1       6.274  -2.472  13.730  0.00  0.00    +0.000 HD
ENDBRANCH  10  13
ENDBRANCH   7  10
ENDBRANCH   4   7
ENDBRANCH   1   4
BRANCH   1  17
ATOM     17  C   UNL     1       2.782  -3.922  17.862  0.00  0.00    +0.000 C 
ATOM     18  H   UNL     1       3.636  -3.302  18.164  0.00  0.00    +0.000 HD
ATOM     19  H   UNL     1       1.880  -3.338  18.085  0.00  0.00    +0.000 HD
BRANCH  17  20
ATOM     20  C   UNL     1       2.775  -5.207  18.688  0.00  0.00    +0.000 C 
ATOM     21  H   UNL     1       1.827  -5.735  18.530  0.00  0.00    +0.000 HD
ATOM     22  H   UNL     1       3.599  -5.854  18.363  0.00  0.00    +0.000 HD
BRANCH  20  24
ATOM     23  O   UNL     1       3.702  -4.162  20.679  0.00  0.00    +0.000 OA
ATOM     24  C   UNL     1       2.928  -4.963  20.173  0.00  0.00    +0.000 C 
BRANCH  24  25
ATOM     25  O   UNL     1       2.043  -5.756  20.847  0.00  0.00    +0.000 OA
BRANCH  25  26
ATOM     26  C   UNL     1       1.223  -6.597  20.029  0.00  0.00    +0.000 C 
ATOM     27  H   UNL     1       1.057  -6.114  19.061  0.00  0.00    +0.000 HD
ATOM     28  H   UNL     1       1.725  -7.559  19.875  0.00  0.00    +0.000 HD
BRANCH  26  29
ATOM     29  C   UNL     1      -0.103  -6.820  20.724  0.00  0.00    +0.000 C 
ATOM     30  H   UNL     1       0.044  -7.237  21.724  0.00  0.00    +0.000 HD
ATOM     31  H   UNL     1      -0.655  -5.878  20.812  0.00  0.00    +0.000 HD
ATOM     32  H   UNL     1      -0.732  -7.504  20.144  0.00  0.00    +0.000 HD
ENDBRANCH  26  29
ENDBRANCH  25  26
ENDBRANCH  24  25
ENDBRANCH  20  24
ENDBRANCH  17  20
ENDBRANCH   1  17
TORSDOF 10
ENDMDL
MODEL 10
REMARK VINA RESULT:    -3.916     16.957     18.425
REMARK INTER + INTRA:          -6.379
REMARK INTER:                  -6.055
REMARK INTRA:                  -0.324
REMARK UNBOUND:                -0.403
REMARK  Name = 7799
REMARK  10 active torsions:
REMARK  status: ('A' for Active; 'I' for Inactive)
REMARK    1  A    between atoms: O_1  and  C_10
REMARK    2  A    between atoms: O_1  and  C_11
REMARK    3  A    between atoms: C_3  and  C_4
REMARK    4  A    between atoms: C_3  and  C_5
REMARK    5  A    between atoms: C_4  and  C_6
REMARK    6  A    between atoms: C_5  and  C_7
REMARK    7  A    between atoms: C_6  and  C_8
REMARK    8  A    between atoms: C_7  and  C_9
REMARK    9  A    between atoms: C_8  and  C_10
REMARK   10  A    between atoms: C_11  and  C_12
REMARK                            x       y       z     vdW  Elec       q    Type
REMARK                         _______ _______ _______ _____ _____    ______ ____
ROOT
ATOM      1  C   UNL     1      -0.387 -12.359  -9.272  0.00  0.00    +0.000 C 
ATOM      2  H   UNL     1       0.706 -12.442  -9.298  0.00  0.00    +0.000 HD
ATOM      3  H   UNL     1      -0.642 -11.329  -9.554  0.00  0.00    +0.000 HD
ENDROOT
BRANCH   1   4
ATOM      4  C   UNL     1      -1.003 -13.334 -10.277  0.00  0.00    +0.000 C 
ATOM      5  H   UNL     1      -0.983 -14.350  -9.864  0.00  0.00    +0.000 HD
ATOM      6  H   UNL     1      -2.055 -13.072 -10.444  0.00  0.00    +0.000 HD
BRANCH   4   7
ATOM      7  C   UNL     1      -0.252 -13.306 -11.610  0.00  0.00    +0.000 C 
ATOM      8  H   UNL     1       0.756 -13.716 -11.474  0.00  0.00    +0.000 HD
ATOM      9  H   UNL     1      -0.136 -12.267 -11.943  0.00  0.00    +0.000 HD
BRANCH   7  10
ATOM     10  C   UNL     1      -0.993 -14.106 -12.682  0.00  0.00    +0.000 C 
ATOM     11  H   UNL     1      -0.475 -14.010 -13.643  0.00  0.00    +0.000 HD
ATOM     12  H   UNL     1      -2.003 -13.703 -12.814  0.00  0.00    +0.000 HD
BRANCH  10  13
ATOM     13  C   UNL     1      -1.084 -15.578 -12.313  0.00  0.00    +0.000 C 
ATOM     14  H   UNL     1      -0.155 -15.923 -11.845  0.00  0.00    +0.000 HD
ATOM     15  H   UNL     1      -1.272 -16.193 -13.197  0.00  0.00    +0.000 HD
ATOM     16  H   UNL     1      -1.902 -15.741 -11.604  0.00  0.00    +0.000 HD
ENDBRANCH  10  13
ENDBRANCH   7  10
ENDBRANCH   4   7
ENDBRANCH   1   4
BRANCH   1  17
ATOM     17  C   UNL     1      -0.890 -12.635  -7.851  0.00  0.00    +0.000 C 
ATOM     18  H   UNL     1      -0.036 -12.696  -7.164  0.00  0.00    +0.000 HD
ATOM     19  H   UNL     1      -1.502 -11.788  -7.512  0.00  0.00    +0.000 HD
BRANCH  17  20
ATOM     20  C   UNL     1      -1.706 -13.923  -7.760  0.00  0.00    +0.000 C 
ATOM     21  H   UNL     1      -2.594 -13.837  -8.396  0.00  0.00    +0.000 HD
ATOM     22  H   UNL     1      -1.098 -14.766  -8.111  0.00  0.00    +0.000 HD
BRANCH  20  24
ATOM     23  O   UNL     1      -3.340 -14.357  -6.011  0.00  0.00    +0.000 OA
ATOM     24  C   UNL     1      -2.173 -14.235  -6.355  0.00  0.00    +0.000 C 
BRANCH  24  25
ATOM     25  O   UNL     1      -1.081 -14.389  -5.548  0.00  0.00    +0.000 OA
BRANCH  25  26
ATOM     26  C   UNL     1      -0.880 -15.707  -5.028  0.00  0.00    +0.000 C 
ATOM     27  H   UNL     1      -1.769 -16.316  -5.226  0.00  0.00    +0.000 HD
ATOM     28  H   UNL     1      -0.010 -16.163  -5.514  0.00  0.00    +0.000 HD
BRANCH  26  29
ATOM     29  C   UNL     1      -0.643 -15.618  -3.535  0.00  0.00    +0.000 C 
ATOM     30  H   UNL     1       0.422 -15.698  -3.303  0.00  0.00    +0.000 HD
ATOM     31  H   UNL     1      -1.021 -14.668  -3.142  0.00  0.00    +0.000 HD
ATOM     32  H   UNL     1      -1.181 -16.415  -3.012  0.00  0.00    +0.000 HD
ENDBRANCH  26  29
ENDBRANCH  25  26
ENDBRANCH  24  25
ENDBRANCH  20  24
ENDBRANCH  17  20
ENDBRANCH   1  17
TORSDOF 10
ENDMDL
