MODEL 1
REMARK VINA RESULT:    -3.763      0.000      0.000
REMARK INTER + INTRA:          -5.474
REMARK INTER:                  -4.872
REMARK INTRA:                  -0.602
REMARK UNBOUND:                -0.502
REMARK  Name = 62572
REMARK  7 active torsions:
REMARK  status: ('A' for Active; 'I' for Inactive)
REMARK    1  A    between atoms: O_1  and  C_7
REMARK    2  A    between atoms: O_1  and  C_8
REMARK    3  A    between atoms: O_2  and  C_4
REMARK    4  A    between atoms: C_4  and  C_5
REMARK    5  A    between atoms: C_4  and  C_6
REMARK    6  A    between atoms: C_5  and  C_7
REMARK    7  A    between atoms: C_8  and  C_9
REMARK                            x       y       z     vdW  Elec       q    Type
REMARK                         _______ _______ _______ _____ _____    ______ ____
ROOT
ATOM      1  C   UNL     1       5.484 -10.742 -24.722  0.00  0.00    +0.000 C 
ATOM      2  H   UNL     1       5.587 -11.179 -23.720  0.00  0.00    +0.000 HD
ATOM      3  H   UNL     1       5.650 -11.527 -25.466  0.00  0.00    +0.000 HD
ENDROOT
BRANCH   1   5
ATOM      4  O   UNL     1       7.050  -9.033 -23.977  0.00  0.00    +0.000 OA
ATOM      5  C   UNL     1       6.571  -9.701 -24.883  0.00  0.00    +0.000 C 
BRANCH   5   6
ATOM      6  O   UNL     1       6.922  -9.629 -26.202  0.00  0.00    +0.000 OA
BRANCH   6   7
ATOM      7  C   UNL     1       7.178 -10.885 -26.840  0.00  0.00    +0.000 C 
ATOM      8  H   UNL     1       6.671 -11.685 -26.288  0.00  0.00    +0.000 HD
ATOM      9  H   UNL     1       6.800 -10.856 -27.867  0.00  0.00    +0.000 HD
BRANCH   7  10
ATOM     10  C   UNL     1       8.670 -11.137 -26.849  0.00  0.00    +0.000 C 
ATOM     11  H   UNL     1       8.894 -12.148 -27.201  0.00  0.00    +0.000 HD
ATOM     12  H   UNL     1       9.178 -10.417 -27.500  0.00  0.00    +0.000 HD
ATOM     13  H   UNL     1       9.090 -11.011 -25.846  0.00  0.00    +0.000 HD
ENDBRANCH   7  10
ENDBRANCH   6   7
ENDBRANCH   5   6
ENDBRANCH   1   5
BRANCH   1  14
ATOM     14  C   UNL     1       4.082 -10.147 -24.855  0.00  0.00    +0.000 C 
ATOM     15  H   UNL     1       3.527 -10.629 -25.668  0.00  0.00    +0.000 HD
BRANCH  14  16
ATOM     16  C   UNL     1       3.300 -10.286 -23.554  0.00  0.00    +0.000 C 
ATOM     17  H   UNL     1       3.851  -9.819 -22.729  0.00  0.00    +0.000 HD
ATOM     18  H   UNL     1       3.167 -11.340 -23.285  0.00  0.00    +0.000 HD
ATOM     19  H   UNL     1       2.316  -9.814 -23.628  0.00  0.00    +0.000 HD
ENDBRANCH  14  16
BRANCH  14  20
ATOM     20  O   UNL     1       4.202  -8.761 -25.167  0.00  0.00    +0.000 OA
ATOM     21  H   UNL     1       3.719  -8.259 -24.489  0.00  0.00    +0.000 HD
ENDBRANCH  14  20
ENDBRANCH   1  14
TORSDOF 7
ENDMDL
MODEL 2
REMARK VINA RESULT:    -3.669     27.363     28.573
REMARK INTER + INTRA:          -5.351
REMARK INTER:                  -4.796
REMARK INTRA:                  -0.555
REMARK UNBOUND:                -0.502
REMARK  Name = 62572
REMARK  7 active torsions:
REMARK  status: ('A' for Active; 'I' for Inactive)
REMARK    1  A    between atoms: O_1  and  C_7
REMARK    2  A    between atoms: O_1  and  C_8
REMARK    3  A    between atoms: O_2  and  C_4
REMARK    4  A    between atoms: C_4  and  C_5
REMARK    5  A    between atoms: C_4  and  C_6
REMARK    6  A    between atoms: C_5  and  C_7
REMARK    7  A    between atoms: C_8  and  C_9
REMARK                            x       y       z     vdW  Elec       q    Type
REMARK                         _______ _______ _______ _____ _____    ______ ____
ROOT
ATOM      1  C   UNL     1      12.648   6.139  -3.888  0.00  0.00    +0.000 C 
ATOM      2  H   UNL     1      12.341   5.313  -4.544  0.00  0.00    +0.000 HD
ATOM      3  H   UNL     1      12.880   5.733  -2.898  0.00  0.00    +0.000 HD
ENDROOT
BRANCH   1   5
ATOM      4  O   UNL     1      10.485   7.090  -4.476  0.00  0.00    +0.000 OA
ATOM      5  C   UNL     1      11.469   7.079  -3.750  0.00  0.00    +0.000 C 
BRANCH   5   6
ATOM      6  O   UNL     1      11.690   7.909  -2.687  0.00  0.00    +0.000 OA
BRANCH   6   7
ATOM      7  C   UNL     1      11.694   7.278  -1.402  0.00  0.00    +0.000 C 
ATOM      8  H   UNL     1      12.089   6.260  -1.497  0.00  0.00    +0.000 HD
ATOM      9  H   UNL     1      12.328   7.851  -0.717  0.00  0.00    +0.000 HD
BRANCH   7  10
ATOM     10  C   UNL     1      10.277   7.230  -0.872  0.00  0.00    +0.000 C 
ATOM     11  H   UNL     1      10.149   6.400  -0.172  0.00  0.00    +0.000 HD
ATOM     12  H   UNL     1      10.026   8.165  -0.361  0.00  0.00    +0.000 HD
ATOM     13  H   UNL     1       9.562   7.114  -1.693  0.00  0.00    +0.000 HD
ENDBRANCH   7  10
ENDBRANCH   6   7
ENDBRANCH   5   6
ENDBRANCH   1   5
BRANCH   1  14
ATOM     14  C   UNL     1      13.870   6.823  -4.502  0.00  0.00    +0.000 C 
ATOM     15  H   UNL     1      14.570   7.146  -3.723  0.00  0.00    +0.000 HD
BRANCH  14  16
ATOM     16  C   UNL     1      14.587   5.896  -5.476  0.00  0.00    +0.000 C 
ATOM     17  H   UNL     1      13.861   5.394  -6.126  0.00  0.00    +0.000 HD
ATOM     18  H   UNL     1      15.128   5.107  -4.943  0.00  0.00    +0.000 HD
ATOM     19  H   UNL     1      15.294   6.447  -6.103  0.00  0.00    +0.000 HD
ENDBRANCH  14  16
BRANCH  14  20
ATOM     20  O   UNL     1      13.437   7.980  -5.212  0.00  0.00    +0.000 OA
ATOM     21  H   UNL     1      12.466   7.963  -5.247  0.00  0.00    +0.000 HD
ENDBRANCH  14  20
ENDBRANCH   1  14
TORSDOF 7
ENDMDL
MODEL 3
REMARK VINA RESULT:    -3.654     23.486     24.930
REMARK INTER + INTRA:          -5.331
REMARK INTER:                  -4.656
REMARK INTRA:                  -0.675
REMARK UNBOUND:                -0.502
REMARK  Name = 62572
REMARK  7 active torsions:
REMARK  status: ('A' for Active; 'I' for Inactive)
REMARK    1  A    between atoms: O_1  and  C_7
REMARK    2  A    between atoms: O_1  and  C_8
REMARK    3  A    between atoms: O_2  and  C_4
REMARK    4  A    between atoms: C_4  and  C_5
REMARK    5  A    between atoms: C_4  and  C_6
REMARK    6  A    between atoms: C_5  and  C_7
REMARK    7  A    between atoms: C_8  and  C_9
REMARK                            x       y       z     vdW  Elec       q    Type
REMARK                         _______ _______ _______ _____ _____    ______ ____
ROOT
ATOM      1  C   UNL     1       5.976  -1.594  -2.986  0.00  0.00    +0.000 C 
ATOM      2  H   UNL     1       5.035  -1.316  -2.494  0.00  0.00    +0.000 HD
ATOM      3  H   UNL     1       5.906  -2.635  -3.314  0.00  0.00    +0.000 HD
ENDROOT
BRANCH   1   5
ATOM      4  O   UNL     1       8.148  -2.091  -2.003  0.00  0.00    +0.000 OA
ATOM      5  C   UNL     1       7.080  -1.496  -1.954  0.00  0.00    +0.000 C 
BRANCH   5   6
ATOM      6  O   UNL     1       6.685  -0.640  -0.965  0.00  0.00    +0.000 OA
BRANCH   6   7
ATOM      7  C   UNL     1       7.601   0.417  -0.662  0.00  0.00    +0.000 C 
ATOM      8  H   UNL     1       7.797   0.432   0.417  0.00  0.00    +0.000 HD
ATOM      9  H   UNL     1       8.541   0.250  -1.199  0.00  0.00    +0.000 HD
BRANCH   7  10
ATOM     10  C   UNL     1       6.992   1.734  -1.089  0.00  0.00    +0.000 C 
ATOM     11  H   UNL     1       7.057   2.474  -0.286  0.00  0.00    +0.000 HD
ATOM     12  H   UNL     1       7.505   2.127  -1.974  0.00  0.00    +0.000 HD
ATOM     13  H   UNL     1       5.940   1.603  -1.364  0.00  0.00    +0.000 HD
ENDBRANCH   7  10
ENDBRANCH   6   7
ENDBRANCH   5   6
ENDBRANCH   1   5
BRANCH   1  14
ATOM     14  C   UNL     1       6.204  -0.658  -4.174  0.00  0.00    +0.000 C 
ATOM     15  H   UNL     1       6.099  -1.196  -5.122  0.00  0.00    +0.000 HD
BRANCH  14  16
ATOM     16  C   UNL     1       5.229   0.514  -4.144  0.00  0.00    +0.000 C 
ATOM     17  H   UNL     1       4.343   0.255  -3.554  0.00  0.00    +0.000 HD
ATOM     18  H   UNL     1       4.876   0.757  -5.152  0.00  0.00    +0.000 HD
ATOM     19  H   UNL     1       5.691   1.404  -3.707  0.00  0.00    +0.000 HD
ENDBRANCH  14  16
BRANCH  14  20
ATOM     20  O   UNL     1       7.532  -0.146  -4.103  0.00  0.00    +0.000 OA
ATOM     21  H   UNL     1       8.146  -0.892  -4.206  0.00  0.00    +0.000 HD
ENDBRANCH  14  20
ENDBRANCH   1  14
TORSDOF 7
ENDMDL
MODEL 4
REMARK VINA RESULT:    -3.270     40.982     42.575
REMARK INTER + INTRA:          -4.823
REMARK INTER:                  -4.222
REMARK INTRA:                  -0.602
REMARK UNBOUND:                -0.502
REMARK  Name = 62572
REMARK  7 active torsions:
REMARK  status: ('A' for Active; 'I' for Inactive)
REMARK    1  A    between atoms: O_1  and  C_7
REMARK    2  A    between atoms: O_1  and  C_8
REMARK    3  A    between atoms: O_2  and  C_4
REMARK    4  A    between atoms: C_4  and  C_5
REMARK    5  A    between atoms: C_4  and  C_6
REMARK    6  A    between atoms: C_5  and  C_7
REMARK    7  A    between atoms: C_8  and  C_9
REMARK                            x       y       z     vdW  Elec       q    Type
REMARK                         _______ _______ _______ _____ _____    ______ ____
ROOT
ATOM      1  C   UNL     1      -2.316   9.872  13.089  0.00  0.00    +0.000 C 
ATOM      2  H   UNL     1      -3.196  10.529  13.100  0.00  0.00    +0.000 HD
ATOM      3  H   UNL     1      -1.525  10.334  13.687  0.00  0.00    +0.000 HD
ENDROOT
BRANCH   1   5
ATOM      4  O   UNL     1      -2.552   9.749  10.669  0.00  0.00    +0.000 OA
ATOM      5  C   UNL     1      -1.833   9.775  11.658  0.00  0.00    +0.000 C 
BRANCH   5   6
ATOM      6  O   UNL     1      -0.468   9.718  11.656  0.00  0.00    +0.000 OA
BRANCH   6   7
ATOM      7  C   UNL     1       0.129   9.260  10.439  0.00  0.00    +0.000 C 
ATOM      8  H   UNL     1      -0.532   9.496   9.597  0.00  0.00    +0.000 HD
ATOM      9  H   UNL     1       1.093   9.759  10.294  0.00  0.00    +0.000 HD
BRANCH   7  10
ATOM     10  C   UNL     1       0.334   7.763  10.524  0.00  0.00    +0.000 C 
ATOM     11  H   UNL     1       0.189   7.406  11.547  0.00  0.00    +0.000 HD
ATOM     12  H   UNL     1      -0.367   7.240   9.865  0.00  0.00    +0.000 HD
ATOM     13  H   UNL     1       1.342   7.492  10.195  0.00  0.00    +0.000 HD
ENDBRANCH   7  10
ENDBRANCH   6   7
ENDBRANCH   5   6
ENDBRANCH   1   5
BRANCH   1  14
ATOM     14  C   UNL     1      -2.714   8.511  13.664  0.00  0.00    +0.000 C 
ATOM     15  H   UNL     1      -2.140   8.286  14.569  0.00  0.00    +0.000 HD
BRANCH  14  16
ATOM     16  C   UNL     1      -4.204   8.464  13.982  0.00  0.00    +0.000 C 
ATOM     17  H   UNL     1      -4.466   9.259  14.689  0.00  0.00    +0.000 HD
ATOM     18  H   UNL     1      -4.475   7.516  14.460  0.00  0.00    +0.000 HD
ATOM     19  H   UNL     1      -4.808   8.588  13.077  0.00  0.00    +0.000 HD
ENDBRANCH  14  16
BRANCH  14  20
ATOM     20  O   UNL     1      -2.424   7.505  12.697  0.00  0.00    +0.000 OA
ATOM     21  H   UNL     1      -1.473   7.547  12.498  0.00  0.00    +0.000 HD
ENDBRANCH  14  20
ENDBRANCH   1  14
TORSDOF 7
ENDMDL
MODEL 5
REMARK VINA RESULT:    -3.155     25.455     26.824
REMARK INTER + INTRA:          -4.672
REMARK INTER:                  -4.337
REMARK INTRA:                  -0.335
REMARK UNBOUND:                -0.502
REMARK  Name = 62572
REMARK  7 active torsions:
REMARK  status: ('A' for Active; 'I' for Inactive)
REMARK    1  A    between atoms: O_1  and  C_7
REMARK    2  A    between atoms: O_1  and  C_8
REMARK    3  A    between atoms: O_2  and  C_4
REMARK    4  A    between atoms: C_4  and  C_5
REMARK    5  A    between atoms: C_4  and  C_6
REMARK    6  A    between atoms: C_5  and  C_7
REMARK    7  A    between atoms: C_8  and  C_9
REMARK                            x       y       z     vdW  Elec       q    Type
REMARK                         _______ _______ _______ _____ _____    ______ ____
ROOT
ATOM      1  C   UNL     1       7.037   0.839   0.036  0.00  0.00    +0.000 C 
ATOM      2  H   UNL     1       7.076   0.732   1.128  0.00  0.00    +0.000 HD
ATOM      3  H   UNL     1       6.027   0.590  -0.304  0.00  0.00    +0.000 HD
ENDROOT
BRANCH   1   5
ATOM      4  O   UNL     1       9.200   0.012  -0.717  0.00  0.00    +0.000 OA
ATOM      5  C   UNL     1       8.000  -0.166  -0.559  0.00  0.00    +0.000 C 
BRANCH   5   6
ATOM      6  O   UNL     1       7.308  -1.296  -0.891  0.00  0.00    +0.000 OA
BRANCH   6   7
ATOM      7  C   UNL     1       6.350  -1.146  -1.944  0.00  0.00    +0.000 C 
ATOM      8  H   UNL     1       5.416  -0.747  -1.534  0.00  0.00    +0.000 HD
ATOM      9  H   UNL     1       6.742  -0.454  -2.697  0.00  0.00    +0.000 HD
BRANCH   7  10
ATOM     10  C   UNL     1       6.095  -2.498  -2.574  0.00  0.00    +0.000 C 
ATOM     11  H   UNL     1       5.023  -2.681  -2.689  0.00  0.00    +0.000 HD
ATOM     12  H   UNL     1       6.571  -2.560  -3.559  0.00  0.00    +0.000 HD
ATOM     13  H   UNL     1       6.527  -3.297  -1.962  0.00  0.00    +0.000 HD
ENDBRANCH   7  10
ENDBRANCH   6   7
ENDBRANCH   5   6
ENDBRANCH   1   5
BRANCH   1  14
ATOM     14  C   UNL     1       7.399   2.280  -0.328  0.00  0.00    +0.000 C 
ATOM     15  H   UNL     1       7.624   2.368  -1.397  0.00  0.00    +0.000 HD
BRANCH  14  16
ATOM     16  C   UNL     1       6.270   3.238   0.034  0.00  0.00    +0.000 C 
ATOM     17  H   UNL     1       5.319   2.697   0.095  0.00  0.00    +0.000 HD
ATOM     18  H   UNL     1       6.145   4.008  -0.735  0.00  0.00    +0.000 HD
ATOM     19  H   UNL     1       6.457   3.726   0.996  0.00  0.00    +0.000 HD
ENDBRANCH  14  16
BRANCH  14  20
ATOM     20  O   UNL     1       8.565   2.656   0.399  0.00  0.00    +0.000 OA
ATOM     21  H   UNL     1       9.042   1.844   0.639  0.00  0.00    +0.000 HD
ENDBRANCH  14  20
ENDBRANCH   1  14
TORSDOF 7
ENDMDL
MODEL 6
REMARK VINA RESULT:    -3.135     26.045     27.233
REMARK INTER + INTRA:          -4.645
REMARK INTER:                  -4.057
REMARK INTRA:                  -0.589
REMARK UNBOUND:                -0.502
REMARK  Name = 62572
REMARK  7 active torsions:
REMARK  status: ('A' for Active; 'I' for Inactive)
REMARK    1  A    between atoms: O_1  and  C_7
REMARK    2  A    between atoms: O_1  and  C_8
REMARK    3  A    between atoms: O_2  and  C_4
REMARK    4  A    between atoms: C_4  and  C_5
REMARK    5  A    between atoms: C_4  and  C_6
REMARK    6  A    between atoms: C_5  and  C_7
REMARK    7  A    between atoms: C_8  and  C_9
REMARK                            x       y       z     vdW  Elec       q    Type
REMARK                         _______ _______ _______ _____ _____    ______ ____
ROOT
ATOM      1  C   UNL     1       7.368   0.206   0.026  0.00  0.00    +0.000 C 
ATOM      2  H   UNL     1       7.794   0.291   1.034  0.00  0.00    +0.000 HD
ATOM      3  H   UNL     1       6.276   0.186   0.107  0.00  0.00    +0.000 HD
ENDROOT
BRANCH   1   5
ATOM      4  O   UNL     1       7.258  -1.727  -1.452  0.00  0.00    +0.000 OA
ATOM      5  C   UNL     1       7.823  -1.116  -0.555  0.00  0.00    +0.000 C 
BRANCH   5   6
ATOM      6  O   UNL     1       8.962  -1.512   0.089  0.00  0.00    +0.000 OA
BRANCH   6   7
ATOM      7  C   UNL     1       8.980  -1.289   1.503  0.00  0.00    +0.000 C 
ATOM      8  H   UNL     1       9.473  -0.333   1.714  0.00  0.00    +0.000 HD
ATOM      9  H   UNL     1       7.953  -1.259   1.881  0.00  0.00    +0.000 HD
BRANCH   7  10
ATOM     10  C   UNL     1       9.741  -2.414   2.169  0.00  0.00    +0.000 C 
ATOM     11  H   UNL     1       9.156  -3.339   2.164  0.00  0.00    +0.000 HD
ATOM     12  H   UNL     1      10.691  -2.595   1.654  0.00  0.00    +0.000 HD
ATOM     13  H   UNL     1       9.984  -2.156   3.205  0.00  0.00    +0.000 HD
ENDBRANCH   7  10
ENDBRANCH   6   7
ENDBRANCH   5   6
ENDBRANCH   1   5
BRANCH   1  14
ATOM     14  C   UNL     1       7.836   1.400  -0.806  0.00  0.00    +0.000 C 
ATOM     15  H   UNL     1       6.988   1.891  -1.297  0.00  0.00    +0.000 HD
BRANCH  14  16
ATOM     16  C   UNL     1       8.580   2.413   0.056  0.00  0.00    +0.000 C 
ATOM     17  H   UNL     1       8.292   2.299   1.107  0.00  0.00    +0.000 HD
ATOM     18  H   UNL     1       8.324   3.438  -0.231  0.00  0.00    +0.000 HD
ATOM     19  H   UNL     1       9.664   2.284  -0.025  0.00  0.00    +0.000 HD
ENDBRANCH  14  16
BRANCH  14  20
ATOM     20  O   UNL     1       8.720   0.931  -1.821  0.00  0.00    +0.000 OA
ATOM     21  H   UNL     1       8.525  -0.008  -1.976  0.00  0.00    +0.000 HD
ENDBRANCH  14  20
ENDBRANCH   1  14
TORSDOF 7
ENDMDL
MODEL 7
REMARK VINA RESULT:    -3.114     40.706     42.235
REMARK INTER + INTRA:          -4.617
REMARK INTER:                  -4.053
REMARK INTRA:                  -0.564
REMARK UNBOUND:                -0.502
REMARK  Name = 62572
REMARK  7 active torsions:
REMARK  status: ('A' for Active; 'I' for Inactive)
REMARK    1  A    between atoms: O_1  and  C_7
REMARK    2  A    between atoms: O_1  and  C_8
REMARK    3  A    between atoms: O_2  and  C_4
REMARK    4  A    between atoms: C_4  and  C_5
REMARK    5  A    between atoms: C_4  and  C_6
REMARK    6  A    between atoms: C_5  and  C_7
REMARK    7  A    between atoms: C_8  and  C_9
REMARK                            x       y       z     vdW  Elec       q    Type
REMARK                         _______ _______ _______ _____ _____    ______ ____
ROOT
ATOM      1  C   UNL     1      -0.317  10.269  10.753  0.00  0.00    +0.000 C 
ATOM      2  H   UNL     1       0.225  10.707  11.602  0.00  0.00    +0.000 HD
ATOM      3  H   UNL     1      -0.396  11.022   9.962  0.00  0.00    +0.000 HD
ENDROOT
BRANCH   1   5
ATOM      4  O   UNL     1      -2.716   9.920  10.522  0.00  0.00    +0.000 OA
ATOM      5  C   UNL     1      -1.715   9.930  11.225  0.00  0.00    +0.000 C 
BRANCH   5   6
ATOM      6  O   UNL     1      -1.672   9.642  12.560  0.00  0.00    +0.000 OA
BRANCH   6   7
ATOM      7  C   UNL     1      -2.894   9.158  13.126  0.00  0.00    +0.000 C 
ATOM      8  H   UNL     1      -3.155   9.762  14.002  0.00  0.00    +0.000 HD
ATOM      9  H   UNL     1      -3.694   9.231  12.382  0.00  0.00    +0.000 HD
BRANCH   7  10
ATOM     10  C   UNL     1      -2.707   7.714  13.539  0.00  0.00    +0.000 C 
ATOM     11  H   UNL     1      -2.138   7.162  12.785  0.00  0.00    +0.000 HD
ATOM     12  H   UNL     1      -2.177   7.653  14.496  0.00  0.00    +0.000 HD
ATOM     13  H   UNL     1      -3.675   7.224  13.680  0.00  0.00    +0.000 HD
ENDBRANCH   7  10
ENDBRANCH   6   7
ENDBRANCH   5   6
ENDBRANCH   1   5
BRANCH   1  14
ATOM     14  C   UNL     1       0.448   9.038  10.265  0.00  0.00    +0.000 C 
ATOM     15  H   UNL     1       0.520   9.030   9.172  0.00  0.00    +0.000 HD
BRANCH  14  16
ATOM     16  C   UNL     1       1.848   8.988  10.866  0.00  0.00    +0.000 C 
ATOM     17  H   UNL     1       1.804   8.618  11.897  0.00  0.00    +0.000 HD
ATOM     18  H   UNL     1       2.294   9.987  10.910  0.00  0.00    +0.000 HD
ATOM     19  H   UNL     1       2.506   8.332  10.288  0.00  0.00    +0.000 HD
ENDBRANCH  14  16
BRANCH  14  20
ATOM     20  O   UNL     1      -0.262   7.870  10.668  0.00  0.00    +0.000 OA
ATOM     21  H   UNL     1       0.387   7.222  10.990  0.00  0.00    +0.000 HD
ENDBRANCH  14  20
ENDBRANCH   1  14
TORSDOF 7
ENDMDL
MODEL 8
REMARK VINA RESULT:    -3.109     33.855     35.699
REMARK INTER + INTRA:          -4.611
REMARK INTER:                  -3.934
REMARK INTRA:                  -0.677
REMARK UNBOUND:                -0.502
REMARK  Name = 62572
REMARK  7 active torsions:
REMARK  status: ('A' for Active; 'I' for Inactive)
REMARK    1  A    between atoms: O_1  and  C_7
REMARK    2  A    between atoms: O_1  and  C_8
REMARK    3  A    between atoms: O_2  and  C_4
REMARK    4  A    between atoms: C_4  and  C_5
REMARK    5  A    between atoms: C_4  and  C_6
REMARK    6  A    between atoms: C_5  and  C_7
REMARK    7  A    between atoms: C_8  and  C_9
REMARK                            x       y       z     vdW  Elec       q    Type
REMARK                         _______ _______ _______ _____ _____    ______ ____
ROOT
ATOM      1  C   UNL     1     -16.294  -8.704   1.792  0.00  0.00    +0.000 C 
ATOM      2  H   UNL     1     -15.213  -8.695   1.984  0.00  0.00    +0.000 HD
ATOM      3  H   UNL     1     -16.643  -7.670   1.701  0.00  0.00    +0.000 HD
ENDROOT
BRANCH   1   5
ATOM      4  O   UNL     1     -18.070  -9.015   3.429  0.00  0.00    +0.000 OA
ATOM      5  C   UNL     1     -16.970  -9.327   2.995  0.00  0.00    +0.000 C 
BRANCH   5   6
ATOM      6  O   UNL     1     -16.148 -10.288   3.513  0.00  0.00    +0.000 OA
BRANCH   6   7
ATOM      7  C   UNL     1     -16.783 -11.527   3.848  0.00  0.00    +0.000 C 
ATOM      8  H   UNL     1     -16.726 -11.685   4.931  0.00  0.00    +0.000 HD
ATOM      9  H   UNL     1     -17.833 -11.493   3.540  0.00  0.00    +0.000 HD
BRANCH   7  10
ATOM     10  C   UNL     1     -16.073 -12.654   3.129  0.00  0.00    +0.000 C 
ATOM     11  H   UNL     1     -15.126 -12.311   2.703  0.00  0.00    +0.000 HD
ATOM     12  H   UNL     1     -15.871 -13.483   3.817  0.00  0.00    +0.000 HD
ATOM     13  H   UNL     1     -16.699 -13.053   2.324  0.00  0.00    +0.000 HD
ENDBRANCH   7  10
ENDBRANCH   6   7
ENDBRANCH   5   6
ENDBRANCH   1   5
BRANCH   1  14
ATOM     14  C   UNL     1     -16.557  -9.487   0.505  0.00  0.00    +0.000 C 
ATOM     15  H   UNL     1     -16.795  -8.810  -0.323  0.00  0.00    +0.000 HD
BRANCH  14  16
ATOM     16  C   UNL     1     -15.356 -10.347   0.131  0.00  0.00    +0.000 C 
ATOM     17  H   UNL     1     -15.690 -11.314  -0.262  0.00  0.00    +0.000 HD
ATOM     18  H   UNL     1     -14.737 -10.561   1.008  0.00  0.00    +0.000 HD
ATOM     19  H   UNL     1     -14.737  -9.857  -0.627  0.00  0.00    +0.000 HD
ENDBRANCH  14  16
BRANCH  14  20
ATOM     20  O   UNL     1     -17.680 -10.340   0.711  0.00  0.00    +0.000 OA
ATOM     21  H   UNL     1     -18.484  -9.799   0.632  0.00  0.00    +0.000 HD
ENDBRANCH  14  20
ENDBRANCH   1  14
TORSDOF 7
ENDMDL
MODEL 9
REMARK VINA RESULT:    -3.103     30.781     32.011
REMARK INTER + INTRA:          -4.602
REMARK INTER:                  -3.918
REMARK INTRA:                  -0.684
REMARK UNBOUND:                -0.502
REMARK  Name = 62572
REMARK  7 active torsions:
REMARK  status: ('A' for Active; 'I' for Inactive)
REMARK    1  A    between atoms: O_1  and  C_7
REMARK    2  A    between atoms: O_1  and  C_8
REMARK    3  A    between atoms: O_2  and  C_4
REMARK    4  A    between atoms: C_4  and  C_5
REMARK    5  A    between atoms: C_4  and  C_6
REMARK    6  A    between atoms: C_5  and  C_7
REMARK    7  A    between atoms: C_8  and  C_9
REMARK                            x       y       z     vdW  Elec       q    Type
REMARK                         _______ _______ _______ _____ _____    ______ ____
ROOT
ATOM      1  C   UNL     1      19.431  15.246 -12.446  0.00  0.00    +0.000 C 
ATOM      2  H   UNL     1      18.921  16.098 -11.978  0.00  0.00    +0.000 HD
ATOM      3  H   UNL     1      19.066  15.141 -13.473  0.00  0.00    +0.000 HD
ENDROOT
BRANCH   1   5
ATOM      4  O   UNL     1      18.955  12.876 -12.151  0.00  0.00    +0.000 OA
ATOM      5  C   UNL     1      19.045  14.000 -11.677  0.00  0.00    +0.000 C 
BRANCH   5   6
ATOM      6  O   UNL     1      18.814  14.341 -10.374  0.00  0.00    +0.000 OA
BRANCH   6   7
ATOM      7  C   UNL     1      18.040  15.529 -10.175  0.00  0.00    +0.000 C 
ATOM      8  H   UNL     1      18.075  16.143 -11.082  0.00  0.00    +0.000 HD
ATOM      9  H   UNL     1      17.001  15.256  -9.961  0.00  0.00    +0.000 HD
BRANCH   7  10
ATOM     10  C   UNL     1      18.618  16.304  -9.011  0.00  0.00    +0.000 C 
ATOM     11  H   UNL     1      18.629  17.377  -9.222  0.00  0.00    +0.000 HD
ATOM     12  H   UNL     1      18.030  16.129  -8.103  0.00  0.00    +0.000 HD
ATOM     13  H   UNL     1      19.640  15.974  -8.797  0.00  0.00    +0.000 HD
ENDBRANCH   7  10
ENDBRANCH   6   7
ENDBRANCH   5   6
ENDBRANCH   1   5
BRANCH   1  14
ATOM     14  C   UNL     1      20.938  15.503 -12.422  0.00  0.00    +0.000 C 
ATOM     15  H   UNL     1      21.357  15.468 -13.434  0.00  0.00    +0.000 HD
BRANCH  14  16
ATOM     16  C   UNL     1      21.255  16.852 -11.787  0.00  0.00    +0.000 C 
ATOM     17  H   UNL     1      22.069  17.345 -12.330  0.00  0.00    +0.000 HD
ATOM     18  H   UNL     1      21.596  16.729 -10.753  0.00  0.00    +0.000 HD
ATOM     19  H   UNL     1      20.381  17.510 -11.795  0.00  0.00    +0.000 HD
ENDBRANCH  14  16
BRANCH  14  20
ATOM     20  O   UNL     1      21.563  14.480 -11.652  0.00  0.00    +0.000 OA
ATOM     21  H   UNL     1      21.194  13.626 -11.934  0.00  0.00    +0.000 HD
ENDBRANCH  14  20
ENDBRANCH   1  14
TORSDOF 7
ENDMDL
MODEL 10
REMARK VINA RESULT:    -3.070     33.195     34.664
REMARK INTER + INTRA:          -4.559
REMARK INTER:                  -4.057
REMARK INTRA:                  -0.502
REMARK UNBOUND:                -0.502
REMARK  Name = 62572
REMARK  7 active torsions:
REMARK  status: ('A' for Active; 'I' for Inactive)
REMARK    1  A    between atoms: O_1  and  C_7
REMARK    2  A    between atoms: O_1  and  C_8
REMARK    3  A    between atoms: O_2  and  C_4
REMARK    4  A    between atoms: C_4  and  C_5
REMARK    5  A    between atoms: C_4  and  C_6
REMARK    6  A    between atoms: C_5  and  C_7
REMARK    7  A    between atoms: C_8  and  C_9
REMARK                            x       y       z     vdW  Elec       q    Type
REMARK                         _______ _______ _______ _____ _____    ______ ____
ROOT
ATOM      1  C   UNL     1     -16.292  -8.814   1.364  0.00  0.00    +0.000 C 
ATOM      2  H   UNL     1     -17.098  -8.075   1.273  0.00  0.00    +0.000 HD
ATOM      3  H   UNL     1     -15.333  -8.287   1.396  0.00  0.00    +0.000 HD
ENDROOT
BRANCH   1   5
ATOM      4  O   UNL     1     -15.352 -10.260  -0.355  0.00  0.00    +0.000 OA
ATOM      5  C   UNL     1     -16.316  -9.676   0.120  0.00  0.00    +0.000 C 
BRANCH   5   6
ATOM      6  O   UNL     1     -17.587  -9.690  -0.382  0.00  0.00    +0.000 OA
BRANCH   6   7
ATOM      7  C   UNL     1     -17.705  -9.375  -1.774  0.00  0.00    +0.000 C 
ATOM      8  H   UNL     1     -17.425  -8.328  -1.935  0.00  0.00    +0.000 HD
ATOM      9  H   UNL     1     -17.037 -10.023  -2.352  0.00  0.00    +0.000 HD
BRANCH   7  10
ATOM     10  C   UNL     1     -19.137  -9.595  -2.209  0.00  0.00    +0.000 C 
ATOM     11  H   UNL     1     -19.399  -8.932  -3.039  0.00  0.00    +0.000 HD
ATOM     12  H   UNL     1     -19.289 -10.633  -2.525  0.00  0.00    +0.000 HD
ATOM     13  H   UNL     1     -19.826  -9.411  -1.378  0.00  0.00    +0.000 HD
ENDBRANCH   7  10
ENDBRANCH   6   7
ENDBRANCH   5   6
ENDBRANCH   1   5
BRANCH   1  14
ATOM     14  C   UNL     1     -16.514  -9.627   2.641  0.00  0.00    +0.000 C 
ATOM     15  H   UNL     1     -15.645  -9.557   3.305  0.00  0.00    +0.000 HD
BRANCH  14  16
ATOM     16  C   UNL     1     -17.759  -9.155   3.382  0.00  0.00    +0.000 C 
ATOM     17  H   UNL     1     -17.881  -9.716   4.315  0.00  0.00    +0.000 HD
ATOM     18  H   UNL     1     -18.662  -9.334   2.788  0.00  0.00    +0.000 HD
ATOM     19  H   UNL     1     -17.700  -8.089   3.621  0.00  0.00    +0.000 HD
ENDBRANCH  14  16
BRANCH  14  20
ATOM     20  O   UNL     1     -16.688 -10.996   2.286  0.00  0.00    +0.000 OA
ATOM     21  H   UNL     1     -17.609 -11.240   2.476  0.00  0.00    +0.000 HD
ENDBRANCH  14  20
ENDBRANCH   1  14
TORSDOF 7
ENDMDL
