MODEL 1
REMARK VINA RESULT:    -5.556      0.000      0.000
REMARK INTER + INTRA:         -11.185
REMARK INTER:                  -9.522
REMARK INTRA:                  -1.663
REMARK UNBOUND:                -0.919
REMARK  Name = 10390702
REMARK  19 active torsions:
REMARK  status: ('A' for Active; 'I' for Inactive)
REMARK    1  A    between atoms: O_3  and  C_26
REMARK    2  A    between atoms: O_4  and  C_27
REMARK    3  A    between atoms: O_5  and  C_33
REMARK    4  A    between atoms: C_8  and  C_11
REMARK    5  A    between atoms: C_9  and  C_14
REMARK    6  A    between atoms: C_9  and  C_15
REMARK    7  A    between atoms: C_10  and  C_13
REMARK    8  A    between atoms: C_12  and  C_18
REMARK    9  A    between atoms: C_12  and  C_20
REMARK   10  A    between atoms: C_13  and  C_21
REMARK   11  A    between atoms: C_18  and  C_22
REMARK   12  A    between atoms: C_18  and  C_23
REMARK   13  A    between atoms: C_21  and  C_25
REMARK   14  A    between atoms: C_22  and  C_24
REMARK   15  A    between atoms: C_24  and  C_28
REMARK   16  A    between atoms: C_24  and  C_29
REMARK   17  A    between atoms: C_25  and  C_30
REMARK   18  A    between atoms: C_31  and  C_35
REMARK   19  A    between atoms: C_32  and  C_34
REMARK                            x       y       z     vdW  Elec       q    Type
REMARK                         _______ _______ _______ _____ _____    ______ ____
ROOT
ATOM      1  O   UNL     1     -16.732  -8.724   3.507  0.00  0.00    +0.000 OA
ATOM      2  C   UNL     1     -17.018 -10.502   1.876  0.00  0.00    +0.000 C 
ATOM      3  C   UNL     1     -16.523 -10.463   0.407  0.00  0.00    +0.000 C 
ATOM      4  C   UNL     1     -16.869  -9.019  -0.018  0.00  0.00    +0.000 C 
ATOM      5  C   UNL     1     -16.753  -9.081   2.335  0.00  0.00    +0.000 C 
ATOM      6  C   UNL     1     -16.513  -8.145   1.179  0.00  0.00    +0.000 C 
ATOM      7  H   UNL     1     -18.106 -10.545   1.861  0.00  0.00    +0.000 HD
ATOM      8  H   UNL     1     -16.244  -8.586  -0.793  0.00  0.00    +0.000 HD
ATOM      9  H   UNL     1     -17.916  -8.791  -0.219  0.00  0.00    +0.000 HD
ATOM     10  H   UNL     1     -15.459  -7.851   1.174  0.00  0.00    +0.000 HD
ATOM     11  H   UNL     1     -17.155  -7.265   1.249  0.00  0.00    +0.000 HD
ENDROOT
BRANCH   2  12
ATOM     12  C   UNL     1     -16.395 -11.544   2.750  0.00  0.00    +0.000 C 
ATOM     13  C   UNL     1     -16.981 -12.923   2.834  0.00  0.00    +0.000 C 
ATOM     14  C   UNL     1     -17.118 -11.977   3.991  0.00  0.00    +0.000 C 
ATOM     15  H   UNL     1     -15.327 -11.421   2.879  0.00  0.00    +0.000 HD
ATOM     16  H   UNL     1     -16.516 -12.147   4.877  0.00  0.00    +0.000 HD
BRANCH  13  17
ATOM     17  C   UNL     1     -18.176 -13.212   1.990  0.00  0.00    +0.000 C 
ATOM     18  H   UNL     1     -18.619 -12.259   1.671  0.00  0.00    +0.000 HD
ATOM     19  H   UNL     1     -18.038 -13.780   1.071  0.00  0.00    +0.000 HD
ATOM     20  H   UNL     1     -18.940 -13.713   2.587  0.00  0.00    +0.000 HD
ENDBRANCH  13  17
BRANCH  13  21
ATOM     21  C   UNL     1     -16.067 -14.088   3.002  0.00  0.00    +0.000 C 
ATOM     22  H   UNL     1     -16.062 -14.708   2.099  0.00  0.00    +0.000 HD
ATOM     23  H   UNL     1     -15.043 -13.751   3.192  0.00  0.00    +0.000 HD
ATOM     24  H   UNL     1     -16.363 -14.729   3.841  0.00  0.00    +0.000 HD
ENDBRANCH  13  21
BRANCH  14  25
ATOM     25  C   UNL     1     -18.429 -11.357   4.309  0.00  0.00    +0.000 C 
ATOM     26  H   UNL     1     -19.206 -11.431   3.547  0.00  0.00    +0.000 HD
ATOM     27  H   UNL     1     -18.260 -10.302   4.530  0.00  0.00    +0.000 HD
BRANCH  25  28
ATOM     28  C   UNL     1     -18.980 -11.829   5.658  0.00  0.00    +0.000 C 
ATOM     29  H   UNL     1     -18.176 -11.841   6.401  0.00  0.00    +0.000 HD
ATOM     30  H   UNL     1     -19.756 -11.140   6.010  0.00  0.00    +0.000 HD
BRANCH  28  32
ATOM     31  O   UNL     1     -20.292 -13.607   4.674  0.00  0.00    +0.000 OA
ATOM     32  C   UNL     1     -19.577 -13.224   5.599  0.00  0.00    +0.000 C 
BRANCH  32  33
ATOM     33  C   UNL     1     -19.246 -14.135   6.753  0.00  0.00    +0.000 C 
ATOM     34  H   UNL     1     -18.931 -15.109   6.372  0.00  0.00    +0.000 HD
ATOM     35  H   UNL     1     -20.123 -14.245   7.396  0.00  0.00    +0.000 HD
ATOM     36  H   UNL     1     -18.429 -13.705   7.340  0.00  0.00    +0.000 HD
ENDBRANCH  32  33
ENDBRANCH  28  32
ENDBRANCH  25  28
ENDBRANCH  14  25
ENDBRANCH   2  12
BRANCH   3  37
ATOM     37  C   UNL     1     -15.009 -10.709   0.254  0.00  0.00    +0.000 C 
ATOM     38  H   UNL     1     -14.638 -11.493   0.924  0.00  0.00    +0.000 HD
ATOM     39  H   UNL     1     -14.679 -10.921  -0.767  0.00  0.00    +0.000 HD
ATOM     40  H   UNL     1     -14.452  -9.802   0.525  0.00  0.00    +0.000 HD
ENDBRANCH   3  37
BRANCH   3  41
ATOM     41  C   UNL     1     -17.279 -11.473  -0.466  0.00  0.00    +0.000 C 
ATOM     42  H   UNL     1     -17.503 -12.333   0.167  0.00  0.00    +0.000 HD
BRANCH  41  43
ATOM     43  C   UNL     1     -16.400 -11.940  -1.613  0.00  0.00    +0.000 A 
ATOM     44  C   UNL     1     -15.674 -13.126  -1.498  0.00  0.00    +0.000 A 
ATOM     45  C   UNL     1     -16.317 -11.183  -2.783  0.00  0.00    +0.000 A 
ATOM     46  C   UNL     1     -14.868 -13.556  -2.552  0.00  0.00    +0.000 A 
ATOM     47  C   UNL     1     -15.511 -11.612  -3.836  0.00  0.00    +0.000 A 
ATOM     48  C   UNL     1     -14.786 -12.799  -3.721  0.00  0.00    +0.000 A 
BRANCH  46  50
ATOM     49  O   UNL     1     -13.282 -14.990  -1.541  0.00  0.00    +0.000 OA
ATOM     50  C   UNL     1     -14.110 -14.796  -2.432  0.00  0.00    +0.000 C 
ATOM     51  H   UNL     1     -14.307 -15.587  -3.173  0.00  0.00    +0.000 HD
ENDBRANCH  46  50
BRANCH  47  53
ATOM     52  O   UNL     1     -15.811 -11.235  -6.153  0.00  0.00    +0.000 OA
ATOM     53  C   UNL     1     -15.425 -10.821  -5.058  0.00  0.00    +0.000 C 
ATOM     54  H   UNL     1     -14.992  -9.810  -4.982  0.00  0.00    +0.000 HD
ENDBRANCH  47  53
BRANCH  48  55
ATOM     55  O   UNL     1     -13.997 -13.219  -4.752  0.00  0.00    +0.000 OA
ATOM     56  H   UNL     1     -13.081 -13.330  -4.450  0.00  0.00    +0.000 HD
ENDBRANCH  48  55
BRANCH  45  57
ATOM     57  O   UNL     1     -17.028 -10.023  -2.892  0.00  0.00    +0.000 OA
ATOM     58  H   UNL     1     -17.941 -10.142  -2.591  0.00  0.00    +0.000 HD
ENDBRANCH  45  57
BRANCH  44  59
ATOM     59  O   UNL     1     -15.758 -13.864  -0.354  0.00  0.00    +0.000 OA
ATOM     60  H   UNL     1     -14.877 -14.137  -0.050  0.00  0.00    +0.000 HD
ENDBRANCH  44  59
ENDBRANCH  41  43
BRANCH  41  61
ATOM     61  C   UNL     1     -18.624 -10.870  -0.933  0.00  0.00    +0.000 C 
ATOM     62  H   UNL     1     -18.918 -10.043  -0.276  0.00  0.00    +0.000 HD
ATOM     63  H   UNL     1     -18.575 -10.475  -1.951  0.00  0.00    +0.000 HD
BRANCH  61  64
ATOM     64  C   UNL     1     -19.813 -11.854  -0.974  0.00  0.00    +0.000 C 
ATOM     65  H   UNL     1     -19.471 -12.849  -0.665  0.00  0.00    +0.000 HD
BRANCH  64  66
ATOM     66  C   UNL     1     -20.953 -11.431  -0.047  0.00  0.00    +0.000 C 
ATOM     67  H   UNL     1     -21.139 -10.355  -0.095  0.00  0.00    +0.000 HD
ATOM     68  H   UNL     1     -20.705 -11.661   0.995  0.00  0.00    +0.000 HD
ATOM     69  H   UNL     1     -21.880 -11.961  -0.290  0.00  0.00    +0.000 HD
ENDBRANCH  64  66
BRANCH  64  70
ATOM     70  C   UNL     1     -20.336 -11.971  -2.409  0.00  0.00    +0.000 C 
ATOM     71  H   UNL     1     -19.905 -11.197  -3.054  0.00  0.00    +0.000 HD
ATOM     72  H   UNL     1     -21.425 -11.866  -2.436  0.00  0.00    +0.000 HD
ATOM     73  H   UNL     1     -20.086 -12.947  -2.838  0.00  0.00    +0.000 HD
ENDBRANCH  64  70
ENDBRANCH  61  64
ENDBRANCH  41  61
ENDBRANCH   3  41
TORSDOF 19
ENDMDL
MODEL 2
REMARK VINA RESULT:    -5.551      1.015      2.523
REMARK INTER + INTRA:         -11.175
REMARK INTER:                  -9.614
REMARK INTRA:                  -1.561
REMARK UNBOUND:                -0.919
REMARK  Name = 10390702
REMARK  19 active torsions:
REMARK  status: ('A' for Active; 'I' for Inactive)
REMARK    1  A    between atoms: O_3  and  C_26
REMARK    2  A    between atoms: O_4  and  C_27
REMARK    3  A    between atoms: O_5  and  C_33
REMARK    4  A    between atoms: C_8  and  C_11
REMARK    5  A    between atoms: C_9  and  C_14
REMARK    6  A    between atoms: C_9  and  C_15
REMARK    7  A    between atoms: C_10  and  C_13
REMARK    8  A    between atoms: C_12  and  C_18
REMARK    9  A    between atoms: C_12  and  C_20
REMARK   10  A    between atoms: C_13  and  C_21
REMARK   11  A    between atoms: C_18  and  C_22
REMARK   12  A    between atoms: C_18  and  C_23
REMARK   13  A    between atoms: C_21  and  C_25
REMARK   14  A    between atoms: C_22  and  C_24
REMARK   15  A    between atoms: C_24  and  C_28
REMARK   16  A    between atoms: C_24  and  C_29
REMARK   17  A    between atoms: C_25  and  C_30
REMARK   18  A    between atoms: C_31  and  C_35
REMARK   19  A    between atoms: C_32  and  C_34
REMARK                            x       y       z     vdW  Elec       q    Type
REMARK                         _______ _______ _______ _____ _____    ______ ____
ROOT
ATOM      1  O   UNL     1     -16.541  -9.409   3.703  0.00  0.00    +0.000 OA
ATOM      2  C   UNL     1     -17.299 -10.761   1.832  0.00  0.00    +0.000 C 
ATOM      3  C   UNL     1     -16.830 -10.606   0.362  0.00  0.00    +0.000 C 
ATOM      4  C   UNL     1     -16.797  -9.072   0.189  0.00  0.00    +0.000 C 
ATOM      5  C   UNL     1     -16.669  -9.550   2.493  0.00  0.00    +0.000 C 
ATOM      6  C   UNL     1     -16.212  -8.527   1.486  0.00  0.00    +0.000 C 
ATOM      7  H   UNL     1     -18.361 -10.525   1.872  0.00  0.00    +0.000 HD
ATOM      8  H   UNL     1     -16.092  -8.688  -0.542  0.00  0.00    +0.000 HD
ATOM      9  H   UNL     1     -17.752  -8.556   0.085  0.00  0.00    +0.000 HD
ATOM     10  H   UNL     1     -15.117  -8.512   1.468  0.00  0.00    +0.000 HD
ATOM     11  H   UNL     1     -16.603  -7.537   1.729  0.00  0.00    +0.000 HD
ENDROOT
BRANCH   2  12
ATOM     12  C   UNL     1     -16.954 -12.057   2.496  0.00  0.00    +0.000 C 
ATOM     13  C   UNL     1     -17.946 -13.183   2.538  0.00  0.00    +0.000 C 
ATOM     14  C   UNL     1     -17.631 -12.414   3.787  0.00  0.00    +0.000 C 
ATOM     15  H   UNL     1     -15.898 -12.292   2.470  0.00  0.00    +0.000 HD
ATOM     16  H   UNL     1     -17.020 -12.884   4.549  0.00  0.00    +0.000 HD
BRANCH  13  17
ATOM     17  C   UNL     1     -19.258 -12.965   1.864  0.00  0.00    +0.000 C 
ATOM     18  H   UNL     1     -19.113 -12.263   1.032  0.00  0.00    +0.000 HD
ATOM     19  H   UNL     1     -19.765 -13.822   1.424  0.00  0.00    +0.000 HD
ATOM     20  H   UNL     1     -19.952 -12.476   2.551  0.00  0.00    +0.000 HD
ENDBRANCH  13  17
BRANCH  13  21
ATOM     21  C   UNL     1     -17.450 -14.586   2.450  0.00  0.00    +0.000 C 
ATOM     22  H   UNL     1     -18.247 -15.294   2.702  0.00  0.00    +0.000 HD
ATOM     23  H   UNL     1     -17.102 -14.809   1.436  0.00  0.00    +0.000 HD
ATOM     24  H   UNL     1     -16.614 -14.773   3.133  0.00  0.00    +0.000 HD
ENDBRANCH  13  21
BRANCH  14  25
ATOM     25  C   UNL     1     -18.621 -11.468   4.361  0.00  0.00    +0.000 C 
ATOM     26  H   UNL     1     -19.482 -11.219   3.738  0.00  0.00    +0.000 HD
ATOM     27  H   UNL     1     -18.099 -10.545   4.615  0.00  0.00    +0.000 HD
BRANCH  25  28
ATOM     28  C   UNL     1     -19.096 -11.901   5.751  0.00  0.00    +0.000 C 
ATOM     29  H   UNL     1     -18.245 -11.925   6.440  0.00  0.00    +0.000 HD
ATOM     30  H   UNL     1     -19.826 -11.183   6.141  0.00  0.00    +0.000 HD
BRANCH  28  32
ATOM     31  O   UNL     1     -20.648 -13.594   4.995  0.00  0.00    +0.000 OA
ATOM     32  C   UNL     1     -19.736 -13.278   5.758  0.00  0.00    +0.000 C 
BRANCH  32  33
ATOM     33  C   UNL     1     -19.191 -14.257   6.764  0.00  0.00    +0.000 C 
ATOM     34  H   UNL     1     -18.359 -14.811   6.323  0.00  0.00    +0.000 HD
ATOM     35  H   UNL     1     -19.983 -14.944   7.073  0.00  0.00    +0.000 HD
ATOM     36  H   UNL     1     -18.828 -13.718   7.645  0.00  0.00    +0.000 HD
ENDBRANCH  32  33
ENDBRANCH  28  32
ENDBRANCH  25  28
ENDBRANCH  14  25
ENDBRANCH   2  12
BRANCH   3  37
ATOM     37  C   UNL     1     -15.434 -11.198   0.088  0.00  0.00    +0.000 C 
ATOM     38  H   UNL     1     -15.459 -12.031  -0.624  0.00  0.00    +0.000 HD
ATOM     39  H   UNL     1     -14.682 -10.472  -0.233  0.00  0.00    +0.000 HD
ATOM     40  H   UNL     1     -15.015 -11.614   1.014  0.00  0.00    +0.000 HD
ENDBRANCH   3  37
BRANCH   3  41
ATOM     41  C   UNL     1     -17.833 -11.232  -0.614  0.00  0.00    +0.000 C 
ATOM     42  H   UNL     1     -18.363 -12.013  -0.067  0.00  0.00    +0.000 HD
BRANCH  41  43
ATOM     43  C   UNL     1     -17.102 -11.877  -1.780  0.00  0.00    +0.000 A 
ATOM     44  C   UNL     1     -16.638 -11.089  -2.834  0.00  0.00    +0.000 A 
ATOM     45  C   UNL     1     -16.896 -13.257  -1.797  0.00  0.00    +0.000 A 
ATOM     46  C   UNL     1     -15.966 -11.681  -3.903  0.00  0.00    +0.000 A 
ATOM     47  C   UNL     1     -16.225 -13.848  -2.867  0.00  0.00    +0.000 A 
ATOM     48  C   UNL     1     -15.760 -13.060  -3.920  0.00  0.00    +0.000 A 
BRANCH  46  50
ATOM     49  O   UNL     1     -15.853 -11.010  -6.169  0.00  0.00    +0.000 OA
ATOM     50  C   UNL     1     -15.480 -10.858  -5.005  0.00  0.00    +0.000 C 
ATOM     51  H   UNL     1     -14.756 -10.062  -4.765  0.00  0.00    +0.000 HD
ENDBRANCH  46  50
BRANCH  47  53
ATOM     52  O   UNL     1     -15.419 -15.890  -1.985  0.00  0.00    +0.000 OA
ATOM     53  C   UNL     1     -16.010 -15.291  -2.884  0.00  0.00    +0.000 C 
ATOM     54  H   UNL     1     -16.397 -15.854  -3.748  0.00  0.00    +0.000 HD
ENDBRANCH  47  53
BRANCH  48  55
ATOM     55  O   UNL     1     -15.103 -13.640  -4.967  0.00  0.00    +0.000 OA
ATOM     56  H   UNL     1     -15.635 -14.361  -5.338  0.00  0.00    +0.000 HD
ENDBRANCH  48  55
BRANCH  45  57
ATOM     57  O   UNL     1     -17.352 -14.024  -0.765  0.00  0.00    +0.000 OA
ATOM     58  H   UNL     1     -18.303 -14.193  -0.847  0.00  0.00    +0.000 HD
ENDBRANCH  45  57
BRANCH  44  59
ATOM     59  O   UNL     1     -16.841  -9.740  -2.812  0.00  0.00    +0.000 OA
ATOM     60  H   UNL     1     -17.180  -9.453  -1.949  0.00  0.00    +0.000 HD
ENDBRANCH  44  59
ENDBRANCH  41  43
BRANCH  41  61
ATOM     61  C   UNL     1     -18.876 -10.179  -1.056  0.00  0.00    +0.000 C 
ATOM     62  H   UNL     1     -19.238  -9.616  -0.187  0.00  0.00    +0.000 HD
ATOM     63  H   UNL     1     -18.466  -9.455  -1.764  0.00  0.00    +0.000 HD
BRANCH  61  64
ATOM     64  C   UNL     1     -20.121 -10.740  -1.777  0.00  0.00    +0.000 C 
ATOM     65  H   UNL     1     -19.830 -11.606  -2.381  0.00  0.00    +0.000 HD
BRANCH  64  66
ATOM     66  C   UNL     1     -21.212 -11.182  -0.800  0.00  0.00    +0.000 C 
ATOM     67  H   UNL     1     -21.491 -12.228  -0.948  0.00  0.00    +0.000 HD
ATOM     68  H   UNL     1     -22.122 -10.590  -0.948  0.00  0.00    +0.000 HD
ATOM     69  H   UNL     1     -20.893 -11.044   0.238  0.00  0.00    +0.000 HD
ENDBRANCH  64  66
BRANCH  64  70
ATOM     70  C   UNL     1     -20.685  -9.680  -2.729  0.00  0.00    +0.000 C 
ATOM     71  H   UNL     1     -21.780  -9.687  -2.730  0.00  0.00    +0.000 HD
ATOM     72  H   UNL     1     -20.343  -9.857  -3.754  0.00  0.00    +0.000 HD
ATOM     73  H   UNL     1     -20.353  -8.677  -2.438  0.00  0.00    +0.000 HD
ENDBRANCH  64  70
ENDBRANCH  61  64
ENDBRANCH  41  61
ENDBRANCH   3  41
TORSDOF 19
ENDMDL
MODEL 3
REMARK VINA RESULT:    -5.291     24.760     27.089
REMARK INTER + INTRA:         -10.696
REMARK INTER:                  -9.048
REMARK INTRA:                  -1.648
REMARK UNBOUND:                -0.919
REMARK  Name = 10390702
REMARK  19 active torsions:
REMARK  status: ('A' for Active; 'I' for Inactive)
REMARK    1  A    between atoms: O_3  and  C_26
REMARK    2  A    between atoms: O_4  and  C_27
REMARK    3  A    between atoms: O_5  and  C_33
REMARK    4  A    between atoms: C_8  and  C_11
REMARK    5  A    between atoms: C_9  and  C_14
REMARK    6  A    between atoms: C_9  and  C_15
REMARK    7  A    between atoms: C_10  and  C_13
REMARK    8  A    between atoms: C_12  and  C_18
REMARK    9  A    between atoms: C_12  and  C_20
REMARK   10  A    between atoms: C_13  and  C_21
REMARK   11  A    between atoms: C_18  and  C_22
REMARK   12  A    between atoms: C_18  and  C_23
REMARK   13  A    between atoms: C_21  and  C_25
REMARK   14  A    between atoms: C_22  and  C_24
REMARK   15  A    between atoms: C_24  and  C_28
REMARK   16  A    between atoms: C_24  and  C_29
REMARK   17  A    between atoms: C_25  and  C_30
REMARK   18  A    between atoms: C_31  and  C_35
REMARK   19  A    between atoms: C_32  and  C_34
REMARK                            x       y       z     vdW  Elec       q    Type
REMARK                         _______ _______ _______ _____ _____    ______ ____
ROOT
ATOM      1  O   UNL     1      -1.331   4.734 -12.732  0.00  0.00    +0.000 OA
ATOM      2  C   UNL     1      -2.639   4.603 -14.775  0.00  0.00    +0.000 C 
ATOM      3  C   UNL     1      -2.332   3.677 -15.981  0.00  0.00    +0.000 C 
ATOM      4  C   UNL     1      -0.797   3.794 -16.102  0.00  0.00    +0.000 C 
ATOM      5  C   UNL     1      -1.406   4.413 -13.912  0.00  0.00    +0.000 C 
ATOM      6  C   UNL     1      -0.272   3.776 -14.671  0.00  0.00    +0.000 C 
ATOM      7  H   UNL     1      -2.535   5.634 -15.110  0.00  0.00    +0.000 HD
ATOM      8  H   UNL     1      -0.285   2.936 -16.529  0.00  0.00    +0.000 HD
ATOM      9  H   UNL     1      -0.395   4.713 -16.528  0.00  0.00    +0.000 HD
ATOM     10  H   UNL     1      -0.125   2.757 -14.300  0.00  0.00    +0.000 HD
ATOM     11  H   UNL     1       0.646   4.358 -14.564  0.00  0.00    +0.000 HD
ENDROOT
BRANCH   2  12
ATOM     12  C   UNL     1      -3.924   4.339 -14.056  0.00  0.00    +0.000 C 
ATOM     13  C   UNL     1      -5.173   5.086 -14.425  0.00  0.00    +0.000 C 
ATOM     14  C   UNL     1      -4.470   5.391 -13.135  0.00  0.00    +0.000 C 
ATOM     15  H   UNL     1      -4.011   3.329 -13.677  0.00  0.00    +0.000 HD
ATOM     16  H   UNL     1      -4.912   5.049 -12.206  0.00  0.00    +0.000 HD
BRANCH  13  17
ATOM     17  C   UNL     1      -5.082   6.062 -15.548  0.00  0.00    +0.000 C 
ATOM     18  H   UNL     1      -4.070   6.488 -15.562  0.00  0.00    +0.000 HD
ATOM     19  H   UNL     1      -5.250   5.703 -16.563  0.00  0.00    +0.000 HD
ATOM     20  H   UNL     1      -5.758   6.900 -15.368  0.00  0.00    +0.000 HD
ENDBRANCH  13  17
BRANCH  13  21
ATOM     21  C   UNL     1      -6.485   4.383 -14.343  0.00  0.00    +0.000 C 
ATOM     22  H   UNL     1      -6.914   4.480 -13.340  0.00  0.00    +0.000 HD
ATOM     23  H   UNL     1      -7.196   4.808 -15.061  0.00  0.00    +0.000 HD
ATOM     24  H   UNL     1      -6.397   3.313 -14.564  0.00  0.00    +0.000 HD
ENDBRANCH  13  21
BRANCH  14  25
ATOM     25  C   UNL     1      -3.714   6.658 -12.968  0.00  0.00    +0.000 C 
ATOM     26  H   UNL     1      -4.030   7.504 -13.581  0.00  0.00    +0.000 HD
ATOM     27  H   UNL     1      -2.663   6.455 -13.175  0.00  0.00    +0.000 HD
BRANCH  25  28
ATOM     28  C   UNL     1      -3.622   7.088 -11.501  0.00  0.00    +0.000 C 
ATOM     29  H   UNL     1      -4.572   7.534 -11.188  0.00  0.00    +0.000 HD
ATOM     30  H   UNL     1      -3.432   6.217 -10.863  0.00  0.00    +0.000 HD
BRANCH  28  32
ATOM     31  O   UNL     1      -2.449   8.763 -10.211  0.00  0.00    +0.000 OA
ATOM     32  C   UNL     1      -2.526   8.107 -11.249  0.00  0.00    +0.000 C 
BRANCH  32  33
ATOM     33  C   UNL     1      -1.516   8.282 -12.354  0.00  0.00    +0.000 C 
ATOM     34  H   UNL     1      -1.560   9.306 -12.732  0.00  0.00    +0.000 HD
ATOM     35  H   UNL     1      -1.728   7.573 -13.159  0.00  0.00    +0.000 HD
ATOM     36  H   UNL     1      -0.511   8.089 -11.970  0.00  0.00    +0.000 HD
ENDBRANCH  32  33
ENDBRANCH  28  32
ENDBRANCH  25  28
ENDBRANCH  14  25
ENDBRANCH   2  12
BRANCH   3  37
ATOM     37  C   UNL     1      -2.733   2.207 -15.754  0.00  0.00    +0.000 C 
ATOM     38  H   UNL     1      -3.326   2.065 -14.843  0.00  0.00    +0.000 HD
ATOM     39  H   UNL     1      -3.248   1.736 -16.596  0.00  0.00    +0.000 HD
ATOM     40  H   UNL     1      -1.835   1.589 -15.619  0.00  0.00    +0.000 HD
ENDBRANCH   3  37
BRANCH   3  41
ATOM     41  C   UNL     1      -3.009   4.182 -17.261  0.00  0.00    +0.000 C 
ATOM     42  H   UNL     1      -3.920   4.700 -16.954  0.00  0.00    +0.000 HD
BRANCH  41  43
ATOM     43  C   UNL     1      -3.400   3.013 -18.148  0.00  0.00    +0.000 A 
ATOM     44  C   UNL     1      -2.430   2.365 -18.915  0.00  0.00    +0.000 A 
ATOM     45  C   UNL     1      -4.727   2.586 -18.197  0.00  0.00    +0.000 A 
ATOM     46  C   UNL     1      -2.788   1.290 -19.729  0.00  0.00    +0.000 A 
ATOM     47  C   UNL     1      -5.085   1.513 -19.012  0.00  0.00    +0.000 A 
ATOM     48  C   UNL     1      -4.116   0.864 -19.777  0.00  0.00    +0.000 A 
BRANCH  46  50
ATOM     49  O   UNL     1      -1.638  -0.612 -20.538  0.00  0.00    +0.000 OA
ATOM     50  C   UNL     1      -1.775   0.613 -20.530  0.00  0.00    +0.000 C 
ATOM     51  H   UNL     1      -1.120   1.238 -21.157  0.00  0.00    +0.000 HD
ENDBRANCH  46  50
BRANCH  47  53
ATOM     52  O   UNL     1      -7.409   1.823 -19.329  0.00  0.00    +0.000 OA
ATOM     53  C   UNL     1      -6.473   1.067 -19.063  0.00  0.00    +0.000 C 
ATOM     54  H   UNL     1      -6.677   0.006 -18.850  0.00  0.00    +0.000 HD
ENDBRANCH  47  53
BRANCH  48  55
ATOM     55  O   UNL     1      -4.467  -0.187 -20.574  0.00  0.00    +0.000 OA
ATOM     56  H   UNL     1      -4.983   0.127 -21.334  0.00  0.00    +0.000 HD
ENDBRANCH  48  55
BRANCH  45  57
ATOM     57  O   UNL     1      -5.673   3.223 -17.447  0.00  0.00    +0.000 OA
ATOM     58  H   UNL     1      -5.474   4.167 -17.360  0.00  0.00    +0.000 HD
ENDBRANCH  45  57
BRANCH  44  59
ATOM     59  O   UNL     1      -1.133   2.784 -18.863  0.00  0.00    +0.000 OA
ATOM     60  H   UNL     1      -1.060   3.632 -18.396  0.00  0.00    +0.000 HD
ENDBRANCH  44  59
ENDBRANCH  41  43
BRANCH  41  61
ATOM     61  C   UNL     1      -2.101   5.212 -17.973  0.00  0.00    +0.000 C 
ATOM     62  H   UNL     1      -1.054   5.055 -17.689  0.00  0.00    +0.000 HD
ATOM     63  H   UNL     1      -2.158   5.137 -19.062  0.00  0.00    +0.000 HD
BRANCH  61  64
ATOM     64  C   UNL     1      -2.426   6.694 -17.685  0.00  0.00    +0.000 C 
ATOM     65  H   UNL     1      -3.392   6.760 -17.171  0.00  0.00    +0.000 HD
BRANCH  64  66
ATOM     66  C   UNL     1      -1.369   7.363 -16.806  0.00  0.00    +0.000 C 
ATOM     67  H   UNL     1      -1.589   8.420 -16.638  0.00  0.00    +0.000 HD
ATOM     68  H   UNL     1      -0.386   7.320 -17.288  0.00  0.00    +0.000 HD
ATOM     69  H   UNL     1      -1.284   6.861 -15.837  0.00  0.00    +0.000 HD
ENDBRANCH  64  66
BRANCH  64  70
ATOM     70  C   UNL     1      -2.553   7.458 -19.006  0.00  0.00    +0.000 C 
ATOM     71  H   UNL     1      -2.515   6.779 -19.865  0.00  0.00    +0.000 HD
ATOM     72  H   UNL     1      -1.743   8.187 -19.114  0.00  0.00    +0.000 HD
ATOM     73  H   UNL     1      -3.500   8.008 -19.051  0.00  0.00    +0.000 HD
ENDBRANCH  64  70
ENDBRANCH  61  64
ENDBRANCH  41  61
ENDBRANCH   3  41
TORSDOF 19
ENDMDL
MODEL 4
REMARK VINA RESULT:    -5.274     24.891     27.169
REMARK INTER + INTRA:         -10.664
REMARK INTER:                  -9.004
REMARK INTRA:                  -1.660
REMARK UNBOUND:                -0.919
REMARK  Name = 10390702
REMARK  19 active torsions:
REMARK  status: ('A' for Active; 'I' for Inactive)
REMARK    1  A    between atoms: O_3  and  C_26
REMARK    2  A    between atoms: O_4  and  C_27
REMARK    3  A    between atoms: O_5  and  C_33
REMARK    4  A    between atoms: C_8  and  C_11
REMARK    5  A    between atoms: C_9  and  C_14
REMARK    6  A    between atoms: C_9  and  C_15
REMARK    7  A    between atoms: C_10  and  C_13
REMARK    8  A    between atoms: C_12  and  C_18
REMARK    9  A    between atoms: C_12  and  C_20
REMARK   10  A    between atoms: C_13  and  C_21
REMARK   11  A    between atoms: C_18  and  C_22
REMARK   12  A    between atoms: C_18  and  C_23
REMARK   13  A    between atoms: C_21  and  C_25
REMARK   14  A    between atoms: C_22  and  C_24
REMARK   15  A    between atoms: C_24  and  C_28
REMARK   16  A    between atoms: C_24  and  C_29
REMARK   17  A    between atoms: C_25  and  C_30
REMARK   18  A    between atoms: C_31  and  C_35
REMARK   19  A    between atoms: C_32  and  C_34
REMARK                            x       y       z     vdW  Elec       q    Type
REMARK                         _______ _______ _______ _____ _____    ______ ____
ROOT
ATOM      1  O   UNL     1      -1.356   4.715 -12.792  0.00  0.00    +0.000 OA
ATOM      2  C   UNL     1      -2.647   4.606 -14.847  0.00  0.00    +0.000 C 
ATOM      3  C   UNL     1      -2.348   3.672 -16.049  0.00  0.00    +0.000 C 
ATOM      4  C   UNL     1      -0.810   3.758 -16.156  0.00  0.00    +0.000 C 
ATOM      5  C   UNL     1      -1.427   4.393 -13.972  0.00  0.00    +0.000 C 
ATOM      6  C   UNL     1      -0.298   3.732 -14.720  0.00  0.00    +0.000 C 
ATOM      7  H   UNL     1      -2.519   5.635 -15.183  0.00  0.00    +0.000 HD
ATOM      8  H   UNL     1      -0.310   2.889 -16.576  0.00  0.00    +0.000 HD
ATOM      9  H   UNL     1      -0.384   4.668 -16.579  0.00  0.00    +0.000 HD
ATOM     10  H   UNL     1      -0.176   2.710 -14.346  0.00  0.00    +0.000 HD
ATOM     11  H   UNL     1       0.630   4.295 -14.605  0.00  0.00    +0.000 HD
ENDROOT
BRANCH   2  12
ATOM     12  C   UNL     1      -3.944   4.370 -14.141  0.00  0.00    +0.000 C 
ATOM     13  C   UNL     1      -5.168   5.159 -14.505  0.00  0.00    +0.000 C 
ATOM     14  C   UNL     1      -4.464   5.423 -13.207  0.00  0.00    +0.000 C 
ATOM     15  H   UNL     1      -4.064   3.357 -13.778  0.00  0.00    +0.000 HD
ATOM     16  H   UNL     1      -4.923   5.080 -12.285  0.00  0.00    +0.000 HD
BRANCH  13  17
ATOM     17  C   UNL     1      -5.041   6.148 -15.613  0.00  0.00    +0.000 C 
ATOM     18  H   UNL     1      -6.035   6.322 -16.044  0.00  0.00    +0.000 HD
ATOM     19  H   UNL     1      -4.656   7.140 -15.382  0.00  0.00    +0.000 HD
ATOM     20  H   UNL     1      -4.434   5.728 -16.418  0.00  0.00    +0.000 HD
ENDBRANCH  13  17
BRANCH  13  21
ATOM     21  C   UNL     1      -6.501   4.494 -14.442  0.00  0.00    +0.000 C 
ATOM     22  H   UNL     1      -7.140   4.979 -13.696  0.00  0.00    +0.000 HD
ATOM     23  H   UNL     1      -7.006   4.549 -15.413  0.00  0.00    +0.000 HD
ATOM     24  H   UNL     1      -6.423   3.434 -14.173  0.00  0.00    +0.000 HD
ENDBRANCH  13  21
BRANCH  14  25
ATOM     25  C   UNL     1      -3.673   6.664 -13.016  0.00  0.00    +0.000 C 
ATOM     26  H   UNL     1      -3.920   7.510 -13.660  0.00  0.00    +0.000 HD
ATOM     27  H   UNL     1      -2.619   6.420 -13.156  0.00  0.00    +0.000 HD
BRANCH  25  28
ATOM     28  C   UNL     1      -3.652   7.118 -11.553  0.00  0.00    +0.000 C 
ATOM     29  H   UNL     1      -4.599   7.610 -11.307  0.00  0.00    +0.000 HD
ATOM     30  H   UNL     1      -3.538   6.253 -10.891  0.00  0.00    +0.000 HD
BRANCH  28  32
ATOM     31  O   UNL     1      -2.435   8.693 -10.180  0.00  0.00    +0.000 OA
ATOM     32  C   UNL     1      -2.530   8.096 -11.251  0.00  0.00    +0.000 C 
BRANCH  32  33
ATOM     33  C   UNL     1      -1.520   8.305 -12.350  0.00  0.00    +0.000 C 
ATOM     34  H   UNL     1      -1.299   7.350 -12.831  0.00  0.00    +0.000 HD
ATOM     35  H   UNL     1      -0.607   8.738 -11.931  0.00  0.00    +0.000 HD
ATOM     36  H   UNL     1      -1.925   8.993 -13.098  0.00  0.00    +0.000 HD
ENDBRANCH  32  33
ENDBRANCH  28  32
ENDBRANCH  25  28
ENDBRANCH  14  25
ENDBRANCH   2  12
BRANCH   3  37
ATOM     37  C   UNL     1      -2.781   2.211 -15.823  0.00  0.00    +0.000 C 
ATOM     38  H   UNL     1      -2.988   1.681 -16.760  0.00  0.00    +0.000 HD
ATOM     39  H   UNL     1      -2.092   1.616 -15.217  0.00  0.00    +0.000 HD
ATOM     40  H   UNL     1      -3.720   2.181 -15.255  0.00  0.00    +0.000 HD
ENDBRANCH   3  37
BRANCH   3  41
ATOM     41  C   UNL     1      -3.002   4.189 -17.336  0.00  0.00    +0.000 C 
ATOM     42  H   UNL     1      -3.890   4.748 -17.037  0.00  0.00    +0.000 HD
BRANCH  41  43
ATOM     43  C   UNL     1      -3.442   3.025 -18.208  0.00  0.00    +0.000 A 
ATOM     44  C   UNL     1      -4.783   2.640 -18.234  0.00  0.00    +0.000 A 
ATOM     45  C   UNL     1      -2.505   2.341 -18.983  0.00  0.00    +0.000 A 
ATOM     46  C   UNL     1      -5.187   1.573 -19.035  0.00  0.00    +0.000 A 
ATOM     47  C   UNL     1      -2.909   1.273 -19.783  0.00  0.00    +0.000 A 
ATOM     48  C   UNL     1      -4.250   0.889 -19.809  0.00  0.00    +0.000 A 
BRANCH  46  50
ATOM     49  O   UNL     1      -7.255   1.137 -20.098  0.00  0.00    +0.000 OA
ATOM     50  C   UNL     1      -6.589   1.170 -19.062  0.00  0.00    +0.000 C 
ATOM     51  H   UNL     1      -7.052   0.877 -18.107  0.00  0.00    +0.000 HD
ENDBRANCH  46  50
BRANCH  47  53
ATOM     52  O   UNL     1      -0.857   0.151 -20.143  0.00  0.00    +0.000 OA
ATOM     53  C   UNL     1      -1.929   0.557 -20.593  0.00  0.00    +0.000 C 
ATOM     54  H   UNL     1      -2.174   0.382 -21.653  0.00  0.00    +0.000 HD
ENDBRANCH  47  53
BRANCH  48  55
ATOM     55  O   UNL     1      -4.645  -0.157 -20.593  0.00  0.00    +0.000 OA
ATOM     56  H   UNL     1      -5.038  -0.856 -20.046  0.00  0.00    +0.000 HD
ENDBRANCH  48  55
BRANCH  45  57
ATOM     57  O   UNL     1      -1.195   2.719 -18.955  0.00  0.00    +0.000 OA
ATOM     58  H   UNL     1      -0.733   2.444 -19.761  0.00  0.00    +0.000 HD
ENDBRANCH  45  57
BRANCH  44  59
ATOM     59  O   UNL     1      -5.696   3.313 -17.475  0.00  0.00    +0.000 OA
ATOM     60  H   UNL     1      -6.581   3.265 -17.871  0.00  0.00    +0.000 HD
ENDBRANCH  44  59
ENDBRANCH  41  43
BRANCH  41  61
ATOM     61  C   UNL     1      -2.051   5.170 -18.061  0.00  0.00    +0.000 C 
ATOM     62  H   UNL     1      -1.019   5.017 -17.722  0.00  0.00    +0.000 HD
ATOM     63  H   UNL     1      -2.060   5.037 -19.146  0.00  0.00    +0.000 HD
BRANCH  61  64
ATOM     64  C   UNL     1      -2.370   6.668 -17.867  0.00  0.00    +0.000 C 
ATOM     65  H   UNL     1      -3.400   6.776 -17.509  0.00  0.00    +0.000 HD
BRANCH  64  66
ATOM     66  C   UNL     1      -1.438   7.337 -16.855  0.00  0.00    +0.000 C 
ATOM     67  H   UNL     1      -0.609   7.853 -17.344  0.00  0.00    +0.000 HD
ATOM     68  H   UNL     1      -0.994   6.587 -16.190  0.00  0.00    +0.000 HD
ATOM     69  H   UNL     1      -1.981   8.052 -16.230  0.00  0.00    +0.000 HD
ENDBRANCH  64  66
BRANCH  64  70
ATOM     70  C   UNL     1      -2.270   7.393 -19.213  0.00  0.00    +0.000 C 
ATOM     71  H   UNL     1      -1.236   7.680 -19.435  0.00  0.00    +0.000 HD
ATOM     72  H   UNL     1      -2.881   8.302 -19.212  0.00  0.00    +0.000 HD
ATOM     73  H   UNL     1      -2.627   6.755 -20.028  0.00  0.00    +0.000 HD
ENDBRANCH  64  70
ENDBRANCH  61  64
ENDBRANCH  41  61
ENDBRANCH   3  41
TORSDOF 19
ENDMDL
MODEL 5
REMARK VINA RESULT:    -5.186     14.259     20.709
REMARK INTER + INTRA:         -10.502
REMARK INTER:                  -8.921
REMARK INTRA:                  -1.581
REMARK UNBOUND:                -0.919
REMARK  Name = 10390702
REMARK  19 active torsions:
REMARK  status: ('A' for Active; 'I' for Inactive)
REMARK    1  A    between atoms: O_3  and  C_26
REMARK    2  A    between atoms: O_4  and  C_27
REMARK    3  A    between atoms: O_5  and  C_33
REMARK    4  A    between atoms: C_8  and  C_11
REMARK    5  A    between atoms: C_9  and  C_14
REMARK    6  A    between atoms: C_9  and  C_15
REMARK    7  A    between atoms: C_10  and  C_13
REMARK    8  A    between atoms: C_12  and  C_18
REMARK    9  A    between atoms: C_12  and  C_20
REMARK   10  A    between atoms: C_13  and  C_21
REMARK   11  A    between atoms: C_18  and  C_22
REMARK   12  A    between atoms: C_18  and  C_23
REMARK   13  A    between atoms: C_21  and  C_25
REMARK   14  A    between atoms: C_22  and  C_24
REMARK   15  A    between atoms: C_24  and  C_28
REMARK   16  A    between atoms: C_24  and  C_29
REMARK   17  A    between atoms: C_25  and  C_30
REMARK   18  A    between atoms: C_31  and  C_35
REMARK   19  A    between atoms: C_32  and  C_34
REMARK                            x       y       z     vdW  Elec       q    Type
REMARK                         _______ _______ _______ _____ _____    ______ ____
ROOT
ATOM      1  O   UNL     1     -16.142 -10.711  16.997  0.00  0.00    +0.000 OA
ATOM      2  C   UNL     1     -16.034 -12.889  18.069  0.00  0.00    +0.000 C 
ATOM      3  C   UNL     1     -15.478 -13.165  19.491  0.00  0.00    +0.000 C 
ATOM      4  C   UNL     1     -14.222 -12.268  19.531  0.00  0.00    +0.000 C 
ATOM      5  C   UNL     1     -15.663 -11.433  17.864  0.00  0.00    +0.000 C 
ATOM      6  C   UNL     1     -14.629 -10.964  18.854  0.00  0.00    +0.000 C 
ATOM      7  H   UNL     1     -15.391 -13.399  17.353  0.00  0.00    +0.000 HD
ATOM      8  H   UNL     1     -13.918 -11.914  20.512  0.00  0.00    +0.000 HD
ATOM      9  H   UNL     1     -13.347 -12.601  18.973  0.00  0.00    +0.000 HD
ATOM     10  H   UNL     1     -15.101 -10.267  19.555  0.00  0.00    +0.000 HD
ATOM     11  H   UNL     1     -13.789 -10.485  18.347  0.00  0.00    +0.000 HD
ENDROOT
BRANCH   2  12
ATOM     12  C   UNL     1     -17.489 -13.174  17.868  0.00  0.00    +0.000 C 
ATOM     13  C   UNL     1     -17.944 -14.515  17.371  0.00  0.00    +0.000 C 
ATOM     14  C   UNL     1     -18.014 -13.317  16.470  0.00  0.00    +0.000 C 
ATOM     15  H   UNL     1     -18.137 -12.614  18.530  0.00  0.00    +0.000 HD
ATOM     16  H   UNL     1     -18.983 -12.877  16.261  0.00  0.00    +0.000 HD
BRANCH  13  17
ATOM     17  C   UNL     1     -16.896 -15.546  17.125  0.00  0.00    +0.000 C 
ATOM     18  H   UNL     1     -16.411 -15.332  16.164  0.00  0.00    +0.000 HD
ATOM     19  H   UNL     1     -16.078 -15.637  17.839  0.00  0.00    +0.000 HD
ATOM     20  H   UNL     1     -17.360 -16.528  17.015  0.00  0.00    +0.000 HD
ENDBRANCH  13  17
BRANCH  13  21
ATOM     21  C   UNL     1     -19.231 -15.073  17.875  0.00  0.00    +0.000 C 
ATOM     22  H   UNL     1     -19.323 -14.920  18.955  0.00  0.00    +0.000 HD
ATOM     23  H   UNL     1     -20.081 -14.585  17.386  0.00  0.00    +0.000 HD
ATOM     24  H   UNL     1     -19.318 -16.150  17.685  0.00  0.00    +0.000 HD
ENDBRANCH  13  21
BRANCH  14  25
ATOM     25  C   UNL     1     -17.071 -13.171  15.333  0.00  0.00    +0.000 C 
ATOM     26  H   UNL     1     -16.110 -13.680  15.423  0.00  0.00    +0.000 HD
ATOM     27  H   UNL     1     -16.885 -12.108  15.181  0.00  0.00    +0.000 HD
BRANCH  25  28
ATOM     28  C   UNL     1     -17.721 -13.526  13.993  0.00  0.00    +0.000 C 
ATOM     29  H   UNL     1     -18.804 -13.626  14.123  0.00  0.00    +0.000 HD
ATOM     30  H   UNL     1     -17.541 -12.729  13.263  0.00  0.00    +0.000 HD
BRANCH  28  32
ATOM     31  O   UNL     1     -17.910 -15.594  12.754  0.00  0.00    +0.000 OA
ATOM     32  C   UNL     1     -17.203 -14.829  13.408  0.00  0.00    +0.000 C 
BRANCH  32  33
ATOM     33  C   UNL     1     -15.755 -15.145  13.675  0.00  0.00    +0.000 C 
ATOM     34  H   UNL     1     -15.178 -14.218  13.711  0.00  0.00    +0.000 HD
ATOM     35  H   UNL     1     -15.371 -15.799  12.888  0.00  0.00    +0.000 HD
ATOM     36  H   UNL     1     -15.660 -15.658  14.637  0.00  0.00    +0.000 HD
ENDBRANCH  32  33
ENDBRANCH  28  32
ENDBRANCH  25  28
ENDBRANCH  14  25
ENDBRANCH   2  12
BRANCH   3  37
ATOM     37  C   UNL     1     -16.444 -12.771  20.624  0.00  0.00    +0.000 C 
ATOM     38  H   UNL     1     -15.980 -12.116  21.369  0.00  0.00    +0.000 HD
ATOM     39  H   UNL     1     -17.387 -12.328  20.291  0.00  0.00    +0.000 HD
ATOM     40  H   UNL     1     -16.760 -13.667  21.176  0.00  0.00    +0.000 HD
ENDBRANCH   3  37
BRANCH   3  41
ATOM     41  C   UNL     1     -15.088 -14.638  19.663  0.00  0.00    +0.000 C 
ATOM     42  H   UNL     1     -15.711 -15.213  18.976  0.00  0.00    +0.000 HD
BRANCH  41  43
ATOM     43  C   UNL     1     -15.385 -15.100  21.079  0.00  0.00    +0.000 A 
ATOM     44  C   UNL     1     -14.481 -14.827  22.106  0.00  0.00    +0.000 A 
ATOM     45  C   UNL     1     -16.562 -15.799  21.353  0.00  0.00    +0.000 A 
ATOM     46  C   UNL     1     -14.755 -15.251  23.407  0.00  0.00    +0.000 A 
ATOM     47  C   UNL     1     -16.834 -16.223  22.653  0.00  0.00    +0.000 A 
ATOM     48  C   UNL     1     -15.931 -15.949  23.680  0.00  0.00    +0.000 A 
BRANCH  46  50
ATOM     49  O   UNL     1     -13.478 -15.804  25.320  0.00  0.00    +0.000 OA
ATOM     50  C   UNL     1     -13.810 -14.965  24.481  0.00  0.00    +0.000 C 
ATOM     51  H   UNL     1     -13.377 -13.953  24.521  0.00  0.00    +0.000 HD
ENDBRANCH  46  50
BRANCH  47  53
ATOM     52  O   UNL     1     -18.074 -18.082  23.431  0.00  0.00    +0.000 OA
ATOM     53  C   UNL     1     -18.064 -16.953  22.938  0.00  0.00    +0.000 C 
ATOM     54  H   UNL     1     -19.019 -16.459  22.695  0.00  0.00    +0.000 HD
ENDBRANCH  47  53
BRANCH  48  55
ATOM     55  O   UNL     1     -16.199 -16.364  24.952  0.00  0.00    +0.000 OA
ATOM     56  H   UNL     1     -16.867 -17.068  24.942  0.00  0.00    +0.000 HD
ENDBRANCH  48  55
BRANCH  45  57
ATOM     57  O   UNL     1     -17.443 -16.065  20.346  0.00  0.00    +0.000 OA
ATOM     58  H   UNL     1     -18.276 -16.417  20.692  0.00  0.00    +0.000 HD
ENDBRANCH  45  57
BRANCH  44  59
ATOM     59  O   UNL     1     -13.333 -14.144  21.834  0.00  0.00    +0.000 OA
ATOM     60  H   UNL     1     -12.632 -14.745  21.534  0.00  0.00    +0.000 HD
ENDBRANCH  44  59
ENDBRANCH  41  43
BRANCH  41  61
ATOM     61  C   UNL     1     -13.613 -14.851  19.248  0.00  0.00    +0.000 C 
ATOM     62  H   UNL     1     -13.369 -14.225  18.381  0.00  0.00    +0.000 HD
ATOM     63  H   UNL     1     -12.912 -14.589  20.045  0.00  0.00    +0.000 HD
BRANCH  61  64
ATOM     64  C   UNL     1     -13.230 -16.300  18.878  0.00  0.00    +0.000 C 
ATOM     65  H   UNL     1     -13.897 -16.995  19.400  0.00  0.00    +0.000 HD
BRANCH  64  66
ATOM     66  C   UNL     1     -13.341 -16.567  17.376  0.00  0.00    +0.000 C 
ATOM     67  H   UNL     1     -13.086 -15.685  16.786  0.00  0.00    +0.000 HD
ATOM     68  H   UNL     1     -14.370 -16.837  17.110  0.00  0.00    +0.000 HD
ATOM     69  H   UNL     1     -12.694 -17.396  17.072  0.00  0.00    +0.000 HD
ENDBRANCH  64  66
BRANCH  64  70
ATOM     70  C   UNL     1     -11.801 -16.590  19.346  0.00  0.00    +0.000 C 
ATOM     71  H   UNL     1     -11.076 -16.422  18.541  0.00  0.00    +0.000 HD
ATOM     72  H   UNL     1     -11.703 -17.629  19.678  0.00  0.00    +0.000 HD
ATOM     73  H   UNL     1     -11.527 -15.945  20.188  0.00  0.00    +0.000 HD
ENDBRANCH  64  70
ENDBRANCH  61  64
ENDBRANCH  41  61
ENDBRANCH   3  41
TORSDOF 19
ENDMDL
MODEL 6
REMARK VINA RESULT:    -5.121      2.070      3.765
REMARK INTER + INTRA:         -10.381
REMARK INTER:                  -8.969
REMARK INTRA:                  -1.412
REMARK UNBOUND:                -0.919
REMARK  Name = 10390702
REMARK  19 active torsions:
REMARK  status: ('A' for Active; 'I' for Inactive)
REMARK    1  A    between atoms: O_3  and  C_26
REMARK    2  A    between atoms: O_4  and  C_27
REMARK    3  A    between atoms: O_5  and  C_33
REMARK    4  A    between atoms: C_8  and  C_11
REMARK    5  A    between atoms: C_9  and  C_14
REMARK    6  A    between atoms: C_9  and  C_15
REMARK    7  A    between atoms: C_10  and  C_13
REMARK    8  A    between atoms: C_12  and  C_18
REMARK    9  A    between atoms: C_12  and  C_20
REMARK   10  A    between atoms: C_13  and  C_21
REMARK   11  A    between atoms: C_18  and  C_22
REMARK   12  A    between atoms: C_18  and  C_23
REMARK   13  A    between atoms: C_21  and  C_25
REMARK   14  A    between atoms: C_22  and  C_24
REMARK   15  A    between atoms: C_24  and  C_28
REMARK   16  A    between atoms: C_24  and  C_29
REMARK   17  A    between atoms: C_25  and  C_30
REMARK   18  A    between atoms: C_31  and  C_35
REMARK   19  A    between atoms: C_32  and  C_34
REMARK                            x       y       z     vdW  Elec       q    Type
REMARK                         _______ _______ _______ _____ _____    ______ ____
ROOT
ATOM      1  O   UNL     1     -17.138 -15.230   3.809  0.00  0.00    +0.000 OA
ATOM      2  C   UNL     1     -17.660 -13.446   2.245  0.00  0.00    +0.000 C 
ATOM      3  C   UNL     1     -16.876 -13.132   0.944  0.00  0.00    +0.000 C 
ATOM      4  C   UNL     1     -15.409 -13.302   1.397  0.00  0.00    +0.000 C 
ATOM      5  C   UNL     1     -16.779 -14.494   2.898  0.00  0.00    +0.000 C 
ATOM      6  C   UNL     1     -15.399 -14.532   2.297  0.00  0.00    +0.000 C 
ATOM      7  H   UNL     1     -17.550 -12.595   2.916  0.00  0.00    +0.000 HD
ATOM      8  H   UNL     1     -14.702 -13.594   0.626  0.00  0.00    +0.000 HD
ATOM      9  H   UNL     1     -14.978 -12.512   2.012  0.00  0.00    +0.000 HD
ATOM     10  H   UNL     1     -15.287 -15.459   1.724  0.00  0.00    +0.000 HD
ATOM     11  H   UNL     1     -14.632 -14.467   3.072  0.00  0.00    +0.000 HD
ENDROOT
BRANCH   2  12
ATOM     12  C   UNL     1     -19.081 -13.880   2.066  0.00  0.00    +0.000 C 
ATOM     13  C   UNL     1     -20.183 -12.866   1.969  0.00  0.00    +0.000 C 
ATOM     14  C   UNL     1     -20.042 -13.706   3.204  0.00  0.00    +0.000 C 
ATOM     15  H   UNL     1     -19.185 -14.818   1.536  0.00  0.00    +0.000 HD
ATOM     16  H   UNL     1     -20.753 -14.508   3.375  0.00  0.00    +0.000 HD
BRANCH  13  17
ATOM     17  C   UNL     1     -19.798 -11.427   2.023  0.00  0.00    +0.000 C 
ATOM     18  H   UNL     1     -20.138 -10.938   1.102  0.00  0.00    +0.000 HD
ATOM     19  H   UNL     1     -20.193 -10.813   2.831  0.00  0.00    +0.000 HD
ATOM     20  H   UNL     1     -18.710 -11.334   2.028  0.00  0.00    +0.000 HD
ENDBRANCH  13  17
BRANCH  13  21
ATOM     21  C   UNL     1     -21.345 -13.145   1.077  0.00  0.00    +0.000 C 
ATOM     22  H   UNL     1     -21.103 -13.942   0.366  0.00  0.00    +0.000 HD
ATOM     23  H   UNL     1     -22.215 -13.460   1.663  0.00  0.00    +0.000 HD
ATOM     24  H   UNL     1     -21.642 -12.263   0.497  0.00  0.00    +0.000 HD
ENDBRANCH  13  21
BRANCH  14  25
ATOM     25  C   UNL     1     -19.550 -13.109   4.472  0.00  0.00    +0.000 C 
ATOM     26  H   UNL     1     -19.828 -12.072   4.667  0.00  0.00    +0.000 HD
ATOM     27  H   UNL     1     -18.462 -13.183   4.481  0.00  0.00    +0.000 HD
BRANCH  25  28
ATOM     28  C   UNL     1     -19.890 -13.974   5.689  0.00  0.00    +0.000 C 
ATOM     29  H   UNL     1     -20.916 -14.349   5.600  0.00  0.00    +0.000 HD
ATOM     30  H   UNL     1     -19.217 -14.838   5.739  0.00  0.00    +0.000 HD
BRANCH  28  32
ATOM     31  O   UNL     1     -19.228 -13.678   7.996  0.00  0.00    +0.000 OA
ATOM     32  C   UNL     1     -19.787 -13.217   7.002  0.00  0.00    +0.000 C 
BRANCH  32  33
ATOM     33  C   UNL     1     -20.415 -11.848   7.028  0.00  0.00    +0.000 C 
ATOM     34  H   UNL     1     -21.464 -11.933   7.322  0.00  0.00    +0.000 HD
ATOM     35  H   UNL     1     -20.335 -11.389   6.040  0.00  0.00    +0.000 HD
ATOM     36  H   UNL     1     -19.894 -11.217   7.754  0.00  0.00    +0.000 HD
ENDBRANCH  32  33
ENDBRANCH  28  32
ENDBRANCH  25  28
ENDBRANCH  14  25
ENDBRANCH   2  12
BRANCH   3  37
ATOM     37  C   UNL     1     -17.185 -14.098  -0.216  0.00  0.00    +0.000 C 
ATOM     38  H   UNL     1     -16.462 -14.918  -0.290  0.00  0.00    +0.000 HD
ATOM     39  H   UNL     1     -18.198 -14.510  -0.213  0.00  0.00    +0.000 HD
ATOM     40  H   UNL     1     -17.124 -13.564  -1.174  0.00  0.00    +0.000 HD
ENDBRANCH   3  37
BRANCH   3  41
ATOM     41  C   UNL     1     -17.127 -11.695   0.472  0.00  0.00    +0.000 C 
ATOM     42  H   UNL     1     -18.174 -11.471   0.683  0.00  0.00    +0.000 HD
BRANCH  41  43
ATOM     43  C   UNL     1     -16.908 -11.587  -1.027  0.00  0.00    +0.000 A 
ATOM     44  C   UNL     1     -15.619 -11.412  -1.533  0.00  0.00    +0.000 A 
ATOM     45  C   UNL     1     -17.994 -11.661  -1.899  0.00  0.00    +0.000 A 
ATOM     46  C   UNL     1     -15.417 -11.313  -2.909  0.00  0.00    +0.000 A 
ATOM     47  C   UNL     1     -17.792 -11.561  -3.275  0.00  0.00    +0.000 A 
ATOM     48  C   UNL     1     -16.504 -11.388  -3.780  0.00  0.00    +0.000 A 
BRANCH  46  50
ATOM     49  O   UNL     1     -13.143 -11.903  -3.186  0.00  0.00    +0.000 OA
ATOM     50  C   UNL     1     -14.070 -11.131  -3.438  0.00  0.00    +0.000 C 
ATOM     51  H   UNL     1     -13.895 -10.267  -4.098  0.00  0.00    +0.000 HD
ENDBRANCH  46  50
BRANCH  47  53
ATOM     52  O   UNL     1     -19.929 -10.927  -4.071  0.00  0.00    +0.000 OA
ATOM     53  C   UNL     1     -18.929 -11.638  -4.186  0.00  0.00    +0.000 C 
ATOM     54  H   UNL     1     -18.876 -12.372  -5.007  0.00  0.00    +0.000 HD
ENDBRANCH  47  53
BRANCH  48  55
ATOM     55  O   UNL     1     -16.307 -11.290  -5.128  0.00  0.00    +0.000 OA
ATOM     56  H   UNL     1     -16.587 -12.109  -5.567  0.00  0.00    +0.000 HD
ENDBRANCH  48  55
BRANCH  45  57
ATOM     57  O   UNL     1     -19.253 -11.831  -1.401  0.00  0.00    +0.000 OA
ATOM     58  H   UNL     1     -19.251 -12.430  -0.640  0.00  0.00    +0.000 HD
ENDBRANCH  45  57
BRANCH  44  59
ATOM     59  O   UNL     1     -14.559 -11.341  -0.677  0.00  0.00    +0.000 OA
ATOM     60  H   UNL     1     -14.181 -12.221  -0.516  0.00  0.00    +0.000 HD
ENDBRANCH  44  59
ENDBRANCH  41  43
BRANCH  41  61
ATOM     61  C   UNL     1     -16.261 -10.707   1.289  0.00  0.00    +0.000 C 
ATOM     62  H   UNL     1     -15.934 -11.174   2.225  0.00  0.00    +0.000 HD
ATOM     63  H   UNL     1     -15.363 -10.394   0.751  0.00  0.00    +0.000 HD
BRANCH  61  64
ATOM     64  C   UNL     1     -16.950  -9.378   1.668  0.00  0.00    +0.000 C 
ATOM     65  H   UNL     1     -17.954  -9.352   1.228  0.00  0.00    +0.000 HD
BRANCH  64  66
ATOM     66  C   UNL     1     -17.085  -9.201   3.181  0.00  0.00    +0.000 C 
ATOM     67  H   UNL     1     -16.906 -10.135   3.717  0.00  0.00    +0.000 HD
ATOM     68  H   UNL     1     -18.100  -8.878   3.439  0.00  0.00    +0.000 HD
ATOM     69  H   UNL     1     -16.392  -8.441   3.554  0.00  0.00    +0.000 HD
ENDBRANCH  64  66
BRANCH  64  70
ATOM     70  C   UNL     1     -16.159  -8.204   1.082  0.00  0.00    +0.000 C 
ATOM     71  H   UNL     1     -16.231  -8.181  -0.011  0.00  0.00    +0.000 HD
ATOM     72  H   UNL     1     -15.100  -8.277   1.350  0.00  0.00    +0.000 HD
ATOM     73  H   UNL     1     -16.534  -7.249   1.467  0.00  0.00    +0.000 HD
ENDBRANCH  64  70
ENDBRANCH  61  64
ENDBRANCH  41  61
ENDBRANCH   3  41
TORSDOF 19
ENDMDL
MODEL 7
REMARK VINA RESULT:    -5.119      1.959      7.705
REMARK INTER + INTRA:         -10.377
REMARK INTER:                  -9.042
REMARK INTRA:                  -1.335
REMARK UNBOUND:                -0.919
REMARK  Name = 10390702
REMARK  19 active torsions:
REMARK  status: ('A' for Active; 'I' for Inactive)
REMARK    1  A    between atoms: O_3  and  C_26
REMARK    2  A    between atoms: O_4  and  C_27
REMARK    3  A    between atoms: O_5  and  C_33
REMARK    4  A    between atoms: C_8  and  C_11
REMARK    5  A    between atoms: C_9  and  C_14
REMARK    6  A    between atoms: C_9  and  C_15
REMARK    7  A    between atoms: C_10  and  C_13
REMARK    8  A    between atoms: C_12  and  C_18
REMARK    9  A    between atoms: C_12  and  C_20
REMARK   10  A    between atoms: C_13  and  C_21
REMARK   11  A    between atoms: C_18  and  C_22
REMARK   12  A    between atoms: C_18  and  C_23
REMARK   13  A    between atoms: C_21  and  C_25
REMARK   14  A    between atoms: C_22  and  C_24
REMARK   15  A    between atoms: C_24  and  C_28
REMARK   16  A    between atoms: C_24  and  C_29
REMARK   17  A    between atoms: C_25  and  C_30
REMARK   18  A    between atoms: C_31  and  C_35
REMARK   19  A    between atoms: C_32  and  C_34
REMARK                            x       y       z     vdW  Elec       q    Type
REMARK                         _______ _______ _______ _____ _____    ______ ____
ROOT
ATOM      1  O   UNL     1     -16.464  -8.319   0.205  0.00  0.00    +0.000 OA
ATOM      2  C   UNL     1     -17.297 -10.528   0.779  0.00  0.00    +0.000 C 
ATOM      3  C   UNL     1     -17.748 -10.979   2.193  0.00  0.00    +0.000 C 
ATOM      4  C   UNL     1     -16.670 -10.346   3.099  0.00  0.00    +0.000 C 
ATOM      5  C   UNL     1     -16.699  -9.163   1.061  0.00  0.00    +0.000 C 
ATOM      6  C   UNL     1     -16.421  -8.955   2.527  0.00  0.00    +0.000 C 
ATOM      7  H   UNL     1     -16.422 -11.116   0.504  0.00  0.00    +0.000 HD
ATOM      8  H   UNL     1     -16.977 -10.108   4.114  0.00  0.00    +0.000 HD
ATOM      9  H   UNL     1     -15.686 -10.813   3.113  0.00  0.00    +0.000 HD
ATOM     10  H   UNL     1     -17.128  -8.217   2.920  0.00  0.00    +0.000 HD
ATOM     11  H   UNL     1     -15.394  -8.623   2.688  0.00  0.00    +0.000 HD
ENDROOT
BRANCH   2  12
ATOM     12  C   UNL     1     -18.359 -10.514  -0.275  0.00  0.00    +0.000 C 
ATOM     13  C   UNL     1     -18.561 -11.700  -1.172  0.00  0.00    +0.000 C 
ATOM     14  C   UNL     1     -17.949 -10.444  -1.716  0.00  0.00    +0.000 C 
ATOM     15  H   UNL     1     -19.211  -9.896  -0.025  0.00  0.00    +0.000 HD
ATOM     16  H   UNL     1     -18.545  -9.812  -2.366  0.00  0.00    +0.000 HD
BRANCH  13  17
ATOM     17  C   UNL     1     -17.691 -12.889  -0.942  0.00  0.00    +0.000 C 
ATOM     18  H   UNL     1     -17.759 -13.548  -1.817  0.00  0.00    +0.000 HD
ATOM     19  H   UNL     1     -16.624 -12.731  -0.790  0.00  0.00    +0.000 HD
ATOM     20  H   UNL     1     -18.071 -13.470  -0.099  0.00  0.00    +0.000 HD
ENDBRANCH  13  17
BRANCH  13  21
ATOM     21  C   UNL     1     -19.942 -12.043  -1.617  0.00  0.00    +0.000 C 
ATOM     22  H   UNL     1     -20.685 -11.610  -0.938  0.00  0.00    +0.000 HD
ATOM     23  H   UNL     1     -20.130 -11.654  -2.623  0.00  0.00    +0.000 HD
ATOM     24  H   UNL     1     -20.111 -13.125  -1.646  0.00  0.00    +0.000 HD
ENDBRANCH  13  21
BRANCH  14  25
ATOM     25  C   UNL     1     -16.503 -10.389  -2.048  0.00  0.00    +0.000 C 
ATOM     26  H   UNL     1     -15.831 -10.971  -1.415  0.00  0.00    +0.000 HD
ATOM     27  H   UNL     1     -16.188  -9.346  -2.019  0.00  0.00    +0.000 HD
BRANCH  25  28
ATOM     28  C   UNL     1     -16.234 -10.712  -3.521  0.00  0.00    +0.000 C 
ATOM     29  H   UNL     1     -17.053 -11.321  -3.919  0.00  0.00    +0.000 HD
ATOM     30  H   UNL     1     -16.185  -9.787  -4.107  0.00  0.00    +0.000 HD
BRANCH  28  32
ATOM     31  O   UNL     1     -14.632 -11.979  -4.814  0.00  0.00    +0.000 OA
ATOM     32  C   UNL     1     -14.941 -11.477  -3.734  0.00  0.00    +0.000 C 
BRANCH  32  33
ATOM     33  C   UNL     1     -14.036 -11.596  -2.535  0.00  0.00    +0.000 C 
ATOM     34  H   UNL     1     -14.083 -10.676  -1.948  0.00  0.00    +0.000 HD
ATOM     35  H   UNL     1     -13.010 -11.780  -2.867  0.00  0.00    +0.000 HD
ATOM     36  H   UNL     1     -14.360 -12.432  -1.909  0.00  0.00    +0.000 HD
ENDBRANCH  32  33
ENDBRANCH  28  32
ENDBRANCH  25  28
ENDBRANCH  14  25
ENDBRANCH   2  12
BRANCH   3  37
ATOM     37  C   UNL     1     -19.144 -10.464   2.594  0.00  0.00    +0.000 C 
ATOM     38  H   UNL     1     -19.211 -10.205   3.657  0.00  0.00    +0.000 HD
ATOM     39  H   UNL     1     -19.514  -9.627   1.995  0.00  0.00    +0.000 HD
ATOM     40  H   UNL     1     -19.894 -11.250   2.434  0.00  0.00    +0.000 HD
ENDBRANCH   3  37
BRANCH   3  41
ATOM     41  C   UNL     1     -17.728 -12.507   2.326  0.00  0.00    +0.000 C 
ATOM     42  H   UNL     1     -17.956 -12.913   1.340  0.00  0.00    +0.000 HD
BRANCH  41  43
ATOM     43  C   UNL     1     -18.805 -12.966   3.293  0.00  0.00    +0.000 A 
ATOM     44  C   UNL     1     -18.667 -12.720   4.660  0.00  0.00    +0.000 A 
ATOM     45  C   UNL     1     -19.933 -13.635   2.817  0.00  0.00    +0.000 A 
ATOM     46  C   UNL     1     -19.656 -13.140   5.548  0.00  0.00    +0.000 A 
ATOM     47  C   UNL     1     -20.922 -14.056   3.705  0.00  0.00    +0.000 A 
ATOM     48  C   UNL     1     -20.783 -13.809   5.071  0.00  0.00    +0.000 A 
BRANCH  46  50
ATOM     49  O   UNL     1     -20.263 -12.132   7.600  0.00  0.00    +0.000 OA
ATOM     50  C   UNL     1     -19.511 -12.883   6.977  0.00  0.00    +0.000 C 
ATOM     51  H   UNL     1     -18.696 -13.399   7.507  0.00  0.00    +0.000 HD
ENDBRANCH  46  50
BRANCH  47  53
ATOM     52  O   UNL     1     -23.249 -14.444   3.526  0.00  0.00    +0.000 OA
ATOM     53  C   UNL     1     -22.100 -14.756   3.206  0.00  0.00    +0.000 C 
ATOM     54  H   UNL     1     -21.939 -15.598   2.515  0.00  0.00    +0.000 HD
ENDBRANCH  47  53
BRANCH  48  55
ATOM     55  O   UNL     1     -21.751 -14.222   5.941  0.00  0.00    +0.000 OA
ATOM     56  H   UNL     1     -21.609 -13.823   6.814  0.00  0.00    +0.000 HD
ENDBRANCH  48  55
BRANCH  45  57
ATOM     57  O   UNL     1     -20.065 -13.875   1.480  0.00  0.00    +0.000 OA
ATOM     58  H   UNL     1     -19.234 -14.193   1.097  0.00  0.00    +0.000 HD
ENDBRANCH  45  57
BRANCH  44  59
ATOM     59  O   UNL     1     -17.563 -12.065   5.122  0.00  0.00    +0.000 OA
ATOM     60  H   UNL     1     -17.354 -12.333   6.031  0.00  0.00    +0.000 HD
ENDBRANCH  44  59
ENDBRANCH  41  43
BRANCH  41  61
ATOM     61  C   UNL     1     -16.311 -12.989   2.716  0.00  0.00    +0.000 C 
ATOM     62  H   UNL     1     -15.552 -12.344   2.258  0.00  0.00    +0.000 HD
ATOM     63  H   UNL     1     -16.145 -12.970   3.796  0.00  0.00    +0.000 HD
BRANCH  61  64
ATOM     64  C   UNL     1     -15.969 -14.439   2.312  0.00  0.00    +0.000 C 
ATOM     65  H   UNL     1     -16.891 -14.967   2.043  0.00  0.00    +0.000 HD
BRANCH  64  66
ATOM     66  C   UNL     1     -15.016 -14.504   1.119  0.00  0.00    +0.000 C 
ATOM     67  H   UNL     1     -15.474 -14.107   0.210  0.00  0.00    +0.000 HD
ATOM     68  H   UNL     1     -14.740 -15.543   0.904  0.00  0.00    +0.000 HD
ATOM     69  H   UNL     1     -14.092 -13.952   1.319  0.00  0.00    +0.000 HD
ENDBRANCH  64  66
BRANCH  64  70
ATOM     70  C   UNL     1     -15.348 -15.172   3.505  0.00  0.00    +0.000 C 
ATOM     71  H   UNL     1     -14.272 -15.320   3.366  0.00  0.00    +0.000 HD
ATOM     72  H   UNL     1     -15.810 -16.156   3.641  0.00  0.00    +0.000 HD
ATOM     73  H   UNL     1     -15.496 -14.606   4.432  0.00  0.00    +0.000 HD
ENDBRANCH  64  70
ENDBRANCH  61  64
ENDBRANCH  41  61
ENDBRANCH   3  41
TORSDOF 19
ENDMDL
MODEL 8
REMARK VINA RESULT:    -5.107      2.074      4.057
REMARK INTER + INTRA:         -10.356
REMARK INTER:                  -8.998
REMARK INTRA:                  -1.358
REMARK UNBOUND:                -0.919
REMARK  Name = 10390702
REMARK  19 active torsions:
REMARK  status: ('A' for Active; 'I' for Inactive)
REMARK    1  A    between atoms: O_3  and  C_26
REMARK    2  A    between atoms: O_4  and  C_27
REMARK    3  A    between atoms: O_5  and  C_33
REMARK    4  A    between atoms: C_8  and  C_11
REMARK    5  A    between atoms: C_9  and  C_14
REMARK    6  A    between atoms: C_9  and  C_15
REMARK    7  A    between atoms: C_10  and  C_13
REMARK    8  A    between atoms: C_12  and  C_18
REMARK    9  A    between atoms: C_12  and  C_20
REMARK   10  A    between atoms: C_13  and  C_21
REMARK   11  A    between atoms: C_18  and  C_22
REMARK   12  A    between atoms: C_18  and  C_23
REMARK   13  A    between atoms: C_21  and  C_25
REMARK   14  A    between atoms: C_22  and  C_24
REMARK   15  A    between atoms: C_24  and  C_28
REMARK   16  A    between atoms: C_24  and  C_29
REMARK   17  A    between atoms: C_25  and  C_30
REMARK   18  A    between atoms: C_31  and  C_35
REMARK   19  A    between atoms: C_32  and  C_34
REMARK                            x       y       z     vdW  Elec       q    Type
REMARK                         _______ _______ _______ _____ _____    ______ ____
ROOT
ATOM      1  O   UNL     1     -17.039 -15.294   3.761  0.00  0.00    +0.000 OA
ATOM      2  C   UNL     1     -17.599 -13.501   2.221  0.00  0.00    +0.000 C 
ATOM      3  C   UNL     1     -16.859 -13.193   0.892  0.00  0.00    +0.000 C 
ATOM      4  C   UNL     1     -15.379 -13.379   1.290  0.00  0.00    +0.000 C 
ATOM      5  C   UNL     1     -16.706 -14.560   2.839  0.00  0.00    +0.000 C 
ATOM      6  C   UNL     1     -15.349 -14.612   2.186  0.00  0.00    +0.000 C 
ATOM      7  H   UNL     1     -17.454 -12.652   2.888  0.00  0.00    +0.000 HD
ATOM      8  H   UNL     1     -14.704 -13.678   0.493  0.00  0.00    +0.000 HD
ATOM      9  H   UNL     1     -14.917 -12.596   1.890  0.00  0.00    +0.000 HD
ATOM     10  H   UNL     1     -15.269 -15.538   1.608  0.00  0.00    +0.000 HD
ATOM     11  H   UNL     1     -14.554 -14.557   2.932  0.00  0.00    +0.000 HD
ENDROOT
BRANCH   2  12
ATOM     12  C   UNL     1     -19.030 -13.919   2.093  0.00  0.00    +0.000 C 
ATOM     13  C   UNL     1     -20.123 -12.892   2.030  0.00  0.00    +0.000 C 
ATOM     14  C   UNL     1     -19.949 -13.728   3.264  0.00  0.00    +0.000 C 
ATOM     15  H   UNL     1     -19.164 -14.858   1.572  0.00  0.00    +0.000 HD
ATOM     16  H   UNL     1     -20.662 -14.521   3.462  0.00  0.00    +0.000 HD
BRANCH  13  17
ATOM     17  C   UNL     1     -19.719 -11.457   2.064  0.00  0.00    +0.000 C 
ATOM     18  H   UNL     1     -19.319 -11.182   1.079  0.00  0.00    +0.000 HD
ATOM     19  H   UNL     1     -20.479 -10.708   2.278  0.00  0.00    +0.000 HD
ATOM     20  H   UNL     1     -18.898 -11.320   2.771  0.00  0.00    +0.000 HD
ENDBRANCH  13  17
BRANCH  13  21
ATOM     21  C   UNL     1     -21.318 -13.161   1.180  0.00  0.00    +0.000 C 
ATOM     22  H   UNL     1     -22.210 -13.302   1.801  0.00  0.00    +0.000 HD
ATOM     23  H   UNL     1     -21.503 -12.323   0.499  0.00  0.00    +0.000 HD
ATOM     24  H   UNL     1     -21.196 -14.062   0.567  0.00  0.00    +0.000 HD
ENDBRANCH  13  21
BRANCH  14  25
ATOM     25  C   UNL     1     -19.406 -13.131   4.510  0.00  0.00    +0.000 C 
ATOM     26  H   UNL     1     -19.737 -12.121   4.757  0.00  0.00    +0.000 HD
ATOM     27  H   UNL     1     -18.318 -13.130   4.439  0.00  0.00    +0.000 HD
BRANCH  25  28
ATOM     28  C   UNL     1     -19.596 -14.048   5.721  0.00  0.00    +0.000 C 
ATOM     29  H   UNL     1     -20.533 -14.606   5.618  0.00  0.00    +0.000 HD
ATOM     30  H   UNL     1     -18.776 -14.774   5.779  0.00  0.00    +0.000 HD
BRANCH  28  32
ATOM     31  O   UNL     1     -19.172 -13.731   8.081  0.00  0.00    +0.000 OA
ATOM     32  C   UNL     1     -19.651 -13.291   7.036  0.00  0.00    +0.000 C 
BRANCH  32  33
ATOM     33  C   UNL     1     -20.335 -11.949   7.000  0.00  0.00    +0.000 C 
ATOM     34  H   UNL     1     -21.118 -11.958   6.237  0.00  0.00    +0.000 HD
ATOM     35  H   UNL     1     -19.601 -11.169   6.780  0.00  0.00    +0.000 HD
ATOM     36  H   UNL     1     -20.791 -11.740   7.972  0.00  0.00    +0.000 HD
ENDBRANCH  32  33
ENDBRANCH  28  32
ENDBRANCH  25  28
ENDBRANCH  14  25
ENDBRANCH   2  12
BRANCH   3  37
ATOM     37  C   UNL     1     -17.222 -14.152  -0.258  0.00  0.00    +0.000 C 
ATOM     38  H   UNL     1     -17.071 -15.205   0.005  0.00  0.00    +0.000 HD
ATOM     39  H   UNL     1     -18.229 -14.022  -0.664  0.00  0.00    +0.000 HD
ATOM     40  H   UNL     1     -16.568 -13.967  -1.121  0.00  0.00    +0.000 HD
ENDBRANCH   3  37
BRANCH   3  41
ATOM     41  C   UNL     1     -17.112 -11.752   0.433  0.00  0.00    +0.000 C 
ATOM     42  H   UNL     1     -18.158 -11.529   0.649  0.00  0.00    +0.000 HD
BRANCH  41  43
ATOM     43  C   UNL     1     -16.897 -11.631  -1.066  0.00  0.00    +0.000 A 
ATOM     44  C   UNL     1     -17.988 -11.695  -1.935  0.00  0.00    +0.000 A 
ATOM     45  C   UNL     1     -15.610 -11.456  -1.576  0.00  0.00    +0.000 A 
ATOM     46  C   UNL     1     -17.792 -11.584  -3.311  0.00  0.00    +0.000 A 
ATOM     47  C   UNL     1     -15.414 -11.346  -2.952  0.00  0.00    +0.000 A 
ATOM     48  C   UNL     1     -16.505 -11.409  -3.819  0.00  0.00    +0.000 A 
BRANCH  46  50
ATOM     49  O   UNL     1     -19.888 -10.877  -4.149  0.00  0.00    +0.000 OA
ATOM     50  C   UNL     1     -18.931 -11.650  -4.218  0.00  0.00    +0.000 C 
ATOM     51  H   UNL     1     -18.914 -12.425  -5.001  0.00  0.00    +0.000 HD
ENDBRANCH  46  50
BRANCH  47  53
ATOM     52  O   UNL     1     -13.135 -11.925  -3.221  0.00  0.00    +0.000 OA
ATOM     53  C   UNL     1     -14.068 -11.163  -3.484  0.00  0.00    +0.000 C 
ATOM     54  H   UNL     1     -13.894 -10.301  -4.147  0.00  0.00    +0.000 HD
ENDBRANCH  47  53
BRANCH  48  55
ATOM     55  O   UNL     1     -16.312 -11.301  -5.167  0.00  0.00    +0.000 OA
ATOM     56  H   UNL     1     -16.984 -11.813  -5.644  0.00  0.00    +0.000 HD
ENDBRANCH  48  55
BRANCH  45  57
ATOM     57  O   UNL     1     -14.546 -11.395  -0.724  0.00  0.00    +0.000 OA
ATOM     58  H   UNL     1     -14.618 -10.634  -0.128  0.00  0.00    +0.000 HD
ENDBRANCH  45  57
BRANCH  44  59
ATOM     59  O   UNL     1     -19.245 -11.865  -1.432  0.00  0.00    +0.000 OA
ATOM     60  H   UNL     1     -19.742 -12.519  -1.951  0.00  0.00    +0.000 HD
ENDBRANCH  44  59
ENDBRANCH  41  43
BRANCH  41  61
ATOM     61  C   UNL     1     -16.243 -10.770   1.254  0.00  0.00    +0.000 C 
ATOM     62  H   UNL     1     -15.946 -11.231   2.204  0.00  0.00    +0.000 HD
ATOM     63  H   UNL     1     -15.328 -10.483   0.731  0.00  0.00    +0.000 HD
BRANCH  61  64
ATOM     64  C   UNL     1     -16.912  -9.422   1.601  0.00  0.00    +0.000 C 
ATOM     65  H   UNL     1     -17.926  -9.403   1.184  0.00  0.00    +0.000 HD
BRANCH  64  66
ATOM     66  C   UNL     1     -17.010  -9.190   3.109  0.00  0.00    +0.000 C 
ATOM     67  H   UNL     1     -16.031  -9.011   3.558  0.00  0.00    +0.000 HD
ATOM     68  H   UNL     1     -17.428 -10.073   3.606  0.00  0.00    +0.000 HD
ATOM     69  H   UNL     1     -17.664  -8.343   3.337  0.00  0.00    +0.000 HD
ENDBRANCH  64  66
BRANCH  64  70
ATOM     70  C   UNL     1     -16.125  -8.278   0.955  0.00  0.00    +0.000 C 
ATOM     71  H   UNL     1     -15.065  -8.320   1.227  0.00  0.00    +0.000 HD
ATOM     72  H   UNL     1     -16.519  -7.307   1.274  0.00  0.00    +0.000 HD
ATOM     73  H   UNL     1     -16.197  -8.321  -0.137  0.00  0.00    +0.000 HD
ENDBRANCH  64  70
ENDBRANCH  61  64
ENDBRANCH  41  61
ENDBRANCH   3  41
TORSDOF 19
ENDMDL
MODEL 9
REMARK VINA RESULT:    -5.098      1.934      7.766
REMARK INTER + INTRA:         -10.340
REMARK INTER:                  -8.873
REMARK INTRA:                  -1.466
REMARK UNBOUND:                -0.919
REMARK  Name = 10390702
REMARK  19 active torsions:
REMARK  status: ('A' for Active; 'I' for Inactive)
REMARK    1  A    between atoms: O_3  and  C_26
REMARK    2  A    between atoms: O_4  and  C_27
REMARK    3  A    between atoms: O_5  and  C_33
REMARK    4  A    between atoms: C_8  and  C_11
REMARK    5  A    between atoms: C_9  and  C_14
REMARK    6  A    between atoms: C_9  and  C_15
REMARK    7  A    between atoms: C_10  and  C_13
REMARK    8  A    between atoms: C_12  and  C_18
REMARK    9  A    between atoms: C_12  and  C_20
REMARK   10  A    between atoms: C_13  and  C_21
REMARK   11  A    between atoms: C_18  and  C_22
REMARK   12  A    between atoms: C_18  and  C_23
REMARK   13  A    between atoms: C_21  and  C_25
REMARK   14  A    between atoms: C_22  and  C_24
REMARK   15  A    between atoms: C_24  and  C_28
REMARK   16  A    between atoms: C_24  and  C_29
REMARK   17  A    between atoms: C_25  and  C_30
REMARK   18  A    between atoms: C_31  and  C_35
REMARK   19  A    between atoms: C_32  and  C_34
REMARK                            x       y       z     vdW  Elec       q    Type
REMARK                         _______ _______ _______ _____ _____    ______ ____
ROOT
ATOM      1  O   UNL     1     -16.362  -8.231   0.344  0.00  0.00    +0.000 OA
ATOM      2  C   UNL     1     -17.219 -10.450   0.839  0.00  0.00    +0.000 C 
ATOM      3  C   UNL     1     -17.685 -10.944   2.233  0.00  0.00    +0.000 C 
ATOM      4  C   UNL     1     -16.607 -10.352   3.168  0.00  0.00    +0.000 C 
ATOM      5  C   UNL     1     -16.610  -9.101   1.170  0.00  0.00    +0.000 C 
ATOM      6  C   UNL     1     -16.341  -8.945   2.644  0.00  0.00    +0.000 C 
ATOM      7  H   UNL     1     -16.348 -11.037   0.550  0.00  0.00    +0.000 HD
ATOM      8  H   UNL     1     -16.919 -10.145   4.187  0.00  0.00    +0.000 HD
ATOM      9  H   UNL     1     -15.627 -10.829   3.172  0.00  0.00    +0.000 HD
ATOM     10  H   UNL     1     -17.044  -8.214   3.057  0.00  0.00    +0.000 HD
ATOM     11  H   UNL     1     -15.312  -8.628   2.823  0.00  0.00    +0.000 HD
ENDROOT
BRANCH   2  12
ATOM     12  C   UNL     1     -18.273 -10.391  -0.221  0.00  0.00    +0.000 C 
ATOM     13  C   UNL     1     -18.502 -11.558  -1.138  0.00  0.00    +0.000 C 
ATOM     14  C   UNL     1     -17.853 -10.309  -1.659  0.00  0.00    +0.000 C 
ATOM     15  H   UNL     1     -19.111  -9.754   0.033  0.00  0.00    +0.000 HD
ATOM     16  H   UNL     1     -18.428  -9.652  -2.303  0.00  0.00    +0.000 HD
BRANCH  13  17
ATOM     17  C   UNL     1     -17.666 -12.773  -0.922  0.00  0.00    +0.000 C 
ATOM     18  H   UNL     1     -17.719 -13.052   0.138  0.00  0.00    +0.000 HD
ATOM     19  H   UNL     1     -17.919 -13.682  -1.466  0.00  0.00    +0.000 HD
ATOM     20  H   UNL     1     -16.617 -12.542  -1.119  0.00  0.00    +0.000 HD
ENDBRANCH  13  17
BRANCH  13  21
ATOM     21  C   UNL     1     -19.889 -11.855  -1.597  0.00  0.00    +0.000 C 
ATOM     22  H   UNL     1     -20.369 -12.579  -0.930  0.00  0.00    +0.000 HD
ATOM     23  H   UNL     1     -20.496 -10.944  -1.607  0.00  0.00    +0.000 HD
ATOM     24  H   UNL     1     -19.909 -12.275  -2.609  0.00  0.00    +0.000 HD
ENDBRANCH  13  21
BRANCH  14  25
ATOM     25  C   UNL     1     -16.404 -10.289  -1.981  0.00  0.00    +0.000 C 
ATOM     26  H   UNL     1     -15.752 -10.901  -1.355  0.00  0.00    +0.000 HD
ATOM     27  H   UNL     1     -16.060  -9.256  -1.931  0.00  0.00    +0.000 HD
BRANCH  25  28
ATOM     28  C   UNL     1     -16.135 -10.592  -3.458  0.00  0.00    +0.000 C 
ATOM     29  H   UNL     1     -17.008 -11.085  -3.898  0.00  0.00    +0.000 HD
ATOM     30  H   UNL     1     -15.959  -9.661  -4.009  0.00  0.00    +0.000 HD
BRANCH  28  32
ATOM     31  O   UNL     1     -14.654 -11.990  -4.761  0.00  0.00    +0.000 OA
ATOM     32  C   UNL     1     -14.936 -11.499  -3.669  0.00  0.00    +0.000 C 
BRANCH  32  33
ATOM     33  C   UNL     1     -14.092 -11.776  -2.452  0.00  0.00    +0.000 C 
ATOM     34  H   UNL     1     -13.284 -12.464  -2.714  0.00  0.00    +0.000 HD
ATOM     35  H   UNL     1     -14.716 -12.208  -1.664  0.00  0.00    +0.000 HD
ATOM     36  H   UNL     1     -13.656 -10.842  -2.084  0.00  0.00    +0.000 HD
ENDBRANCH  32  33
ENDBRANCH  28  32
ENDBRANCH  25  28
ENDBRANCH  14  25
ENDBRANCH   2  12
BRANCH   3  37
ATOM     37  C   UNL     1     -19.078 -10.429   2.642  0.00  0.00    +0.000 C 
ATOM     38  H   UNL     1     -19.757 -11.236   2.942  0.00  0.00    +0.000 HD
ATOM     39  H   UNL     1     -19.074  -9.655   3.414  0.00  0.00    +0.000 HD
ATOM     40  H   UNL     1     -19.563  -9.940   1.786  0.00  0.00    +0.000 HD
ENDBRANCH   3  37
BRANCH   3  41
ATOM     41  C   UNL     1     -17.680 -12.475   2.315  0.00  0.00    +0.000 C 
ATOM     42  H   UNL     1     -17.914 -12.847   1.317  0.00  0.00    +0.000 HD
BRANCH  41  43
ATOM     43  C   UNL     1     -18.760 -12.956   3.270  0.00  0.00    +0.000 A 
ATOM     44  C   UNL     1     -19.901 -13.586   2.771  0.00  0.00    +0.000 A 
ATOM     45  C   UNL     1     -18.611 -12.767   4.644  0.00  0.00    +0.000 A 
ATOM     46  C   UNL     1     -20.892 -14.028   3.647  0.00  0.00    +0.000 A 
ATOM     47  C   UNL     1     -19.603 -13.209   5.520  0.00  0.00    +0.000 A 
ATOM     48  C   UNL     1     -20.743 -13.839   5.021  0.00  0.00    +0.000 A 
BRANCH  46  50
ATOM     49  O   UNL     1     -22.444 -15.807   3.494  0.00  0.00    +0.000 OA
ATOM     50  C   UNL     1     -22.084 -14.687   3.127  0.00  0.00    +0.000 C 
ATOM     51  H   UNL     1     -22.684 -14.141   2.382  0.00  0.00    +0.000 HD
ENDBRANCH  46  50
BRANCH  47  53
ATOM     52  O   UNL     1     -20.208 -12.305   7.621  0.00  0.00    +0.000 OA
ATOM     53  C   UNL     1     -19.447 -13.011   6.956  0.00  0.00    +0.000 C 
ATOM     54  H   UNL     1     -18.607 -13.521   7.453  0.00  0.00    +0.000 HD
ENDBRANCH  47  53
BRANCH  48  55
ATOM     55  O   UNL     1     -21.713 -14.271   5.879  0.00  0.00    +0.000 OA
ATOM     56  H   UNL     1     -21.474 -15.137   6.247  0.00  0.00    +0.000 HD
ENDBRANCH  48  55
BRANCH  45  57
ATOM     57  O   UNL     1     -17.495 -12.150   5.127  0.00  0.00    +0.000 OA
ATOM     58  H   UNL     1     -16.747 -12.250   4.519  0.00  0.00    +0.000 HD
ENDBRANCH  45  57
BRANCH  44  59
ATOM     59  O   UNL     1     -20.041 -13.769   1.427  0.00  0.00    +0.000 OA
ATOM     60  H   UNL     1     -20.507 -14.600   1.236  0.00  0.00    +0.000 HD
ENDBRANCH  44  59
ENDBRANCH  41  43
BRANCH  41  61
ATOM     61  C   UNL     1     -16.267 -12.985   2.686  0.00  0.00    +0.000 C 
ATOM     62  H   UNL     1     -15.502 -12.361   2.208  0.00  0.00    +0.000 HD
ATOM     63  H   UNL     1     -16.082 -12.958   3.763  0.00  0.00    +0.000 HD
BRANCH  61  64
ATOM     64  C   UNL     1     -15.964 -14.447   2.293  0.00  0.00    +0.000 C 
ATOM     65  H   UNL     1     -16.900 -14.952   2.028  0.00  0.00    +0.000 HD
BRANCH  64  66
ATOM     66  C   UNL     1     -15.013 -14.545   1.099  0.00  0.00    +0.000 C 
ATOM     67  H   UNL     1     -15.542 -14.454   0.148  0.00  0.00    +0.000 HD
ATOM     68  H   UNL     1     -14.512 -15.520   1.088  0.00  0.00    +0.000 HD
ATOM     69  H   UNL     1     -14.236 -13.776   1.147  0.00  0.00    +0.000 HD
ENDBRANCH  64  66
BRANCH  64  70
ATOM     70  C   UNL     1     -15.362 -15.187   3.491  0.00  0.00    +0.000 C 
ATOM     71  H   UNL     1     -14.681 -15.982   3.168  0.00  0.00    +0.000 HD
ATOM     72  H   UNL     1     -16.149 -15.643   4.102  0.00  0.00    +0.000 HD
ATOM     73  H   UNL     1     -14.800 -14.500   4.133  0.00  0.00    +0.000 HD
ENDBRANCH  64  70
ENDBRANCH  61  64
ENDBRANCH  41  61
ENDBRANCH   3  41
TORSDOF 19
ENDMDL
MODEL 10
REMARK VINA RESULT:    -4.999     15.261     20.972
REMARK INTER + INTRA:         -10.156
REMARK INTER:                  -9.236
REMARK INTRA:                  -0.919
REMARK UNBOUND:                -0.919
REMARK  Name = 10390702
REMARK  19 active torsions:
REMARK  status: ('A' for Active; 'I' for Inactive)
REMARK    1  A    between atoms: O_3  and  C_26
REMARK    2  A    between atoms: O_4  and  C_27
REMARK    3  A    between atoms: O_5  and  C_33
REMARK    4  A    between atoms: C_8  and  C_11
REMARK    5  A    between atoms: C_9  and  C_14
REMARK    6  A    between atoms: C_9  and  C_15
REMARK    7  A    between atoms: C_10  and  C_13
REMARK    8  A    between atoms: C_12  and  C_18
REMARK    9  A    between atoms: C_12  and  C_20
REMARK   10  A    between atoms: C_13  and  C_21
REMARK   11  A    between atoms: C_18  and  C_22
REMARK   12  A    between atoms: C_18  and  C_23
REMARK   13  A    between atoms: C_21  and  C_25
REMARK   14  A    between atoms: C_22  and  C_24
REMARK   15  A    between atoms: C_24  and  C_28
REMARK   16  A    between atoms: C_24  and  C_29
REMARK   17  A    between atoms: C_25  and  C_30
REMARK   18  A    between atoms: C_31  and  C_35
REMARK   19  A    between atoms: C_32  and  C_34
REMARK                            x       y       z     vdW  Elec       q    Type
REMARK                         _______ _______ _______ _____ _____    ______ ____
ROOT
ATOM      1  O   UNL     1     -15.834 -18.986  22.290  0.00  0.00    +0.000 OA
ATOM      2  C   UNL     1     -15.041 -16.956  21.216  0.00  0.00    +0.000 C 
ATOM      3  C   UNL     1     -15.201 -16.613  19.712  0.00  0.00    +0.000 C 
ATOM      4  C   UNL     1     -14.896 -17.966  19.033  0.00  0.00    +0.000 C 
ATOM      5  C   UNL     1     -15.523 -18.393  21.264  0.00  0.00    +0.000 C 
ATOM      6  C   UNL     1     -15.581 -19.019  19.895  0.00  0.00    +0.000 C 
ATOM      7  H   UNL     1     -13.977 -17.057  21.425  0.00  0.00    +0.000 HD
ATOM      8  H   UNL     1     -15.369 -18.135  18.070  0.00  0.00    +0.000 HD
ATOM      9  H   UNL     1     -13.854 -18.284  18.992  0.00  0.00    +0.000 HD
ATOM     10  H   UNL     1     -16.630 -19.160  19.614  0.00  0.00    +0.000 HD
ATOM     11  H   UNL     1     -15.050 -19.973  19.878  0.00  0.00    +0.000 HD
ENDROOT
BRANCH   2  12
ATOM     12  C   UNL     1     -15.750 -16.050  22.173  0.00  0.00    +0.000 C 
ATOM     13  C   UNL     1     -15.016 -14.930  22.852  0.00  0.00    +0.000 C 
ATOM     14  C   UNL     1     -15.425 -16.143  23.635  0.00  0.00    +0.000 C 
ATOM     15  H   UNL     1     -16.804 -15.931  21.960  0.00  0.00    +0.000 HD
ATOM     16  H   UNL     1     -16.255 -16.061  24.329  0.00  0.00    +0.000 HD
BRANCH  13  17
ATOM     17  C   UNL     1     -13.579 -14.743  22.504  0.00  0.00    +0.000 C 
ATOM     18  H   UNL     1     -12.966 -15.277  23.242  0.00  0.00    +0.000 HD
ATOM     19  H   UNL     1     -13.227 -15.097  21.536  0.00  0.00    +0.000 HD
ATOM     20  H   UNL     1     -13.309 -13.689  22.598  0.00  0.00    +0.000 HD
ENDBRANCH  13  17
BRANCH  13  21
ATOM     21  C   UNL     1     -15.739 -13.656  23.129  0.00  0.00    +0.000 C 
ATOM     22  H   UNL     1     -16.725 -13.660  22.652  0.00  0.00    +0.000 HD
ATOM     23  H   UNL     1     -15.881 -13.519  24.206  0.00  0.00    +0.000 HD
ATOM     24  H   UNL     1     -15.194 -12.781  22.755  0.00  0.00    +0.000 HD
ENDBRANCH  13  21
BRANCH  14  25
ATOM     25  C   UNL     1     -14.411 -17.131  24.082  0.00  0.00    +0.000 C 
ATOM     26  H   UNL     1     -13.372 -16.920  23.823  0.00  0.00    +0.000 HD
ATOM     27  H   UNL     1     -14.680 -18.103  23.669  0.00  0.00    +0.000 HD
BRANCH  25  28
ATOM     28  C   UNL     1     -14.519 -17.435  25.579  0.00  0.00    +0.000 C 
ATOM     29  H   UNL     1     -14.551 -16.496  26.144  0.00  0.00    +0.000 HD
ATOM     30  H   UNL     1     -15.443 -17.986  25.787  0.00  0.00    +0.000 HD
BRANCH  28  32
ATOM     31  O   UNL     1     -13.106 -19.393  25.715  0.00  0.00    +0.000 OA
ATOM     32  C   UNL     1     -13.352 -18.252  26.105  0.00  0.00    +0.000 C 
BRANCH  32  33
ATOM     33  C   UNL     1     -12.494 -17.585  27.148  0.00  0.00    +0.000 C 
ATOM     34  H   UNL     1     -12.823 -16.553  27.289  0.00  0.00    +0.000 HD
ATOM     35  H   UNL     1     -11.447 -17.609  26.832  0.00  0.00    +0.000 HD
ATOM     36  H   UNL     1     -12.587 -18.119  28.099  0.00  0.00    +0.000 HD
ENDBRANCH  32  33
ENDBRANCH  28  32
ENDBRANCH  25  28
ENDBRANCH  14  25
ENDBRANCH   2  12
BRANCH   3  37
ATOM     37  C   UNL     1     -16.616 -16.138  19.329  0.00  0.00    +0.000 C 
ATOM     38  H   UNL     1     -16.826 -15.117  19.668  0.00  0.00    +0.000 HD
ATOM     39  H   UNL     1     -16.857 -16.222  18.266  0.00  0.00    +0.000 HD
ATOM     40  H   UNL     1     -17.369 -16.770  19.818  0.00  0.00    +0.000 HD
ENDBRANCH   3  37
BRANCH   3  41
ATOM     41  C   UNL     1     -14.186 -15.551  19.269  0.00  0.00    +0.000 C 
ATOM     42  H   UNL     1     -13.886 -15.006  20.165  0.00  0.00    +0.000 HD
BRANCH  41  43
ATOM     43  C   UNL     1     -14.835 -14.570  18.307  0.00  0.00    +0.000 A 
ATOM     44  C   UNL     1     -15.038 -14.930  16.974  0.00  0.00    +0.000 A 
ATOM     45  C   UNL     1     -15.228 -13.309  18.756  0.00  0.00    +0.000 A 
ATOM     46  C   UNL     1     -15.635 -14.030  16.092  0.00  0.00    +0.000 A 
ATOM     47  C   UNL     1     -15.824 -12.409  17.873  0.00  0.00    +0.000 A 
ATOM     48  C   UNL     1     -16.027 -12.770  16.541  0.00  0.00    +0.000 A 
BRANCH  46  50
ATOM     49  O   UNL     1     -15.308 -13.821  13.758  0.00  0.00    +0.000 OA
ATOM     50  C   UNL     1     -15.847 -14.407  14.699  0.00  0.00    +0.000 C 
ATOM     51  H   UNL     1     -16.513 -15.261  14.498  0.00  0.00    +0.000 HD
ENDBRANCH  46  50
BRANCH  47  53
ATOM     52  O   UNL     1     -15.438 -10.258  18.781  0.00  0.00    +0.000 OA
ATOM     53  C   UNL     1     -16.234 -11.091  18.343  0.00  0.00    +0.000 C 
ATOM     54  H   UNL     1     -17.307 -10.845  18.300  0.00  0.00    +0.000 HD
ENDBRANCH  47  53
BRANCH  48  55
ATOM     55  O   UNL     1     -16.611 -11.888  15.677  0.00  0.00    +0.000 OA
ATOM     56  H   UNL     1     -15.984 -11.186  15.442  0.00  0.00    +0.000 HD
ENDBRANCH  48  55
BRANCH  45  57
ATOM     57  O   UNL     1     -15.028 -12.960  20.060  0.00  0.00    +0.000 OA
ATOM     58  H   UNL     1     -15.565 -12.192  20.304  0.00  0.00    +0.000 HD
ENDBRANCH  45  57
BRANCH  44  59
ATOM     59  O   UNL     1     -14.653 -16.165  16.540  0.00  0.00    +0.000 OA
ATOM     60  H   UNL     1     -15.424 -16.731  16.372  0.00  0.00    +0.000 HD
ENDBRANCH  44  59
ENDBRANCH  41  43
BRANCH  41  61
ATOM     61  C   UNL     1     -12.924 -16.231  18.688  0.00  0.00    +0.000 C 
ATOM     62  H   UNL     1     -13.188 -17.191  18.228  0.00  0.00    +0.000 HD
ATOM     63  H   UNL     1     -12.439 -15.624  17.919  0.00  0.00    +0.000 HD
BRANCH  61  64
ATOM     64  C   UNL     1     -11.797 -16.515  19.704  0.00  0.00    +0.000 C 
ATOM     65  H   UNL     1     -12.202 -17.092  20.543  0.00  0.00    +0.000 HD
BRANCH  64  66
ATOM     66  C   UNL     1     -10.644 -17.309  19.089  0.00  0.00    +0.000 C 
ATOM     67  H   UNL     1     -10.999 -18.061  18.381  0.00  0.00    +0.000 HD
ATOM     68  H   UNL     1     -10.091 -17.847  19.868  0.00  0.00    +0.000 HD
ATOM     69  H   UNL     1      -9.936 -16.649  18.579  0.00  0.00    +0.000 HD
ENDBRANCH  64  66
BRANCH  64  70
ATOM     70  C   UNL     1     -11.266 -15.193  20.266  0.00  0.00    +0.000 C 
ATOM     71  H   UNL     1     -11.195 -14.427  19.486  0.00  0.00    +0.000 HD
ATOM     72  H   UNL     1     -10.270 -15.326  20.701  0.00  0.00    +0.000 HD
ATOM     73  H   UNL     1     -11.924 -14.811  21.055  0.00  0.00    +0.000 HD
ENDBRANCH  64  70
ENDBRANCH  61  64
ENDBRANCH  41  61
ENDBRANCH   3  41
TORSDOF 19
ENDMDL
