MODEL 1
REMARK VINA RESULT:    -4.380      0.000      0.000
REMARK INTER + INTRA:          -6.342
REMARK INTER:                  -5.896
REMARK INTRA:                  -0.446
REMARK UNBOUND:                -0.426
REMARK  Name = 637566
REMARK  8 active torsions:
REMARK  status: ('A' for Active; 'I' for Inactive)
REMARK    1  A    between atoms: O_1  and  C_11
REMARK    2  A    between atoms: C_2  and  C_3
REMARK    3  A    between atoms: C_2  and  C_4
REMARK    4  A    between atoms: C_3  and  C_5
REMARK    5  A    between atoms: C_4  and  C_7
REMARK    6  A    between atoms: C_6  and  C_9
REMARK    7  A    between atoms: C_6  and  C_10
REMARK    8  A    between atoms: C_8  and  C_11
REMARK                            x       y       z     vdW  Elec       q    Type
REMARK                         _______ _______ _______ _____ _____    ______ ____
ROOT
ATOM      1  C   UNL     1       9.775  14.641   2.276  0.00  0.00    +0.000 C 
ATOM      2  H   UNL     1       9.210  13.700   2.244  0.00  0.00    +0.000 HD
ATOM      3  H   UNL     1       9.719  15.058   1.261  0.00  0.00    +0.000 HD
ENDROOT
BRANCH   1   4
ATOM      4  C   UNL     1       9.105  15.616   3.253  0.00  0.00    +0.000 C 
ATOM      5  H   UNL     1       9.859  16.067   3.908  0.00  0.00    +0.000 HD
ATOM      6  H   UNL     1       8.424  15.074   3.921  0.00  0.00    +0.000 HD
BRANCH   4   7
ATOM      7  C   UNL     1       8.301  16.676   2.553  0.00  0.00    +0.000 C 
ATOM      8  C   UNL     1       8.684  17.921   2.214  0.00  0.00    +0.000 C 
ATOM      9  H   UNL     1       7.288  16.367   2.299  0.00  0.00    +0.000 HD
BRANCH   8  10
ATOM     10  C   UNL     1       7.726  18.850   1.518  0.00  0.00    +0.000 C 
ATOM     11  H   UNL     1       7.924  19.888   1.808  0.00  0.00    +0.000 HD
ATOM     12  H   UNL     1       7.804  18.790   0.427  0.00  0.00    +0.000 HD
ATOM     13  H   UNL     1       6.695  18.603   1.790  0.00  0.00    +0.000 HD
ENDBRANCH   8  10
BRANCH   8  14
ATOM     14  C   UNL     1      10.046  18.508   2.457  0.00  0.00    +0.000 C 
ATOM     15  H   UNL     1      10.112  19.507   2.012  0.00  0.00    +0.000 HD
ATOM     16  H   UNL     1      10.292  18.597   3.518  0.00  0.00    +0.000 HD
ATOM     17  H   UNL     1      10.815  17.876   2.001  0.00  0.00    +0.000 HD
ENDBRANCH   8  14
ENDBRANCH   4   7
ENDBRANCH   1   4
BRANCH   1  18
ATOM     18  C   UNL     1      11.216  14.328   2.617  0.00  0.00    +0.000 C 
ATOM     19  C   UNL     1      11.847  13.178   2.310  0.00  0.00    +0.000 C 
ATOM     20  H   UNL     1      11.263  12.422   1.788  0.00  0.00    +0.000 HD
BRANCH  18  21
ATOM     21  C   UNL     1      11.941  15.404   3.384  0.00  0.00    +0.000 C 
ATOM     22  H   UNL     1      12.884  15.013   3.783  0.00  0.00    +0.000 HD
ATOM     23  H   UNL     1      11.330  15.750   4.224  0.00  0.00    +0.000 HD
ATOM     24  H   UNL     1      12.207  16.272   2.775  0.00  0.00    +0.000 HD
ENDBRANCH  18  21
BRANCH  19  25
ATOM     25  C   UNL     1      13.252  12.784   2.639  0.00  0.00    +0.000 C 
ATOM     26  H   UNL     1      13.278  12.131   3.516  0.00  0.00    +0.000 HD
ATOM     27  H   UNL     1      13.899  13.648   2.811  0.00  0.00    +0.000 HD
BRANCH  25  28
ATOM     28  O   UNL     1      13.793  12.072   1.534  0.00  0.00    +0.000 OA
ATOM     29  H   UNL     1      13.070  11.568   1.122  0.00  0.00    +0.000 HD
ENDBRANCH  25  28
ENDBRANCH  19  25
ENDBRANCH   1  18
TORSDOF 8
ENDMDL
MODEL 2
REMARK VINA RESULT:    -4.171     14.267     15.341
REMARK INTER + INTRA:          -6.061
REMARK INTER:                  -5.607
REMARK INTRA:                  -0.454
REMARK UNBOUND:                -0.426
REMARK  Name = 637566
REMARK  8 active torsions:
REMARK  status: ('A' for Active; 'I' for Inactive)
REMARK    1  A    between atoms: O_1  and  C_11
REMARK    2  A    between atoms: C_2  and  C_3
REMARK    3  A    between atoms: C_2  and  C_4
REMARK    4  A    between atoms: C_3  and  C_5
REMARK    5  A    between atoms: C_4  and  C_7
REMARK    6  A    between atoms: C_6  and  C_9
REMARK    7  A    between atoms: C_6  and  C_10
REMARK    8  A    between atoms: C_8  and  C_11
REMARK                            x       y       z     vdW  Elec       q    Type
REMARK                         _______ _______ _______ _____ _____    ______ ____
ROOT
ATOM      1  C   UNL     1       3.117  13.273  -9.993  0.00  0.00    +0.000 C 
ATOM      2  H   UNL     1       2.328  13.763 -10.579  0.00  0.00    +0.000 HD
ATOM      3  H   UNL     1       2.622  12.873  -9.098  0.00  0.00    +0.000 HD
ENDROOT
BRANCH   1   4
ATOM      4  C   UNL     1       3.713  12.110 -10.796  0.00  0.00    +0.000 C 
ATOM      5  H   UNL     1       3.576  11.169 -10.252  0.00  0.00    +0.000 HD
ATOM      6  H   UNL     1       4.799  12.235 -10.895  0.00  0.00    +0.000 HD
BRANCH   4   7
ATOM      7  C   UNL     1       3.141  12.012 -12.184  0.00  0.00    +0.000 C 
ATOM      8  C   UNL     1       3.761  12.241 -13.356  0.00  0.00    +0.000 C 
ATOM      9  H   UNL     1       2.094  11.713 -12.210  0.00  0.00    +0.000 HD
BRANCH   8  10
ATOM     10  C   UNL     1       3.012  12.099 -14.654  0.00  0.00    +0.000 C 
ATOM     11  H   UNL     1       3.607  11.528 -15.376  0.00  0.00    +0.000 HD
ATOM     12  H   UNL     1       2.055  11.579 -14.529  0.00  0.00    +0.000 HD
ATOM     13  H   UNL     1       2.801  13.085 -15.079  0.00  0.00    +0.000 HD
ENDBRANCH   8  10
BRANCH   8  14
ATOM     14  C   UNL     1       5.203  12.631 -13.515  0.00  0.00    +0.000 C 
ATOM     15  H   UNL     1       5.854  11.831 -13.145  0.00  0.00    +0.000 HD
ATOM     16  H   UNL     1       5.481  12.835 -14.552  0.00  0.00    +0.000 HD
ATOM     17  H   UNL     1       5.414  13.540 -12.942  0.00  0.00    +0.000 HD
ENDBRANCH   8  14
ENDBRANCH   4   7
ENDBRANCH   1   4
BRANCH   1  18
ATOM     18  C   UNL     1       4.134  14.318  -9.585  0.00  0.00    +0.000 C 
ATOM     19  C   UNL     1       4.395  14.683  -8.315  0.00  0.00    +0.000 C 
ATOM     20  H   UNL     1       3.817  14.190  -7.534  0.00  0.00    +0.000 HD
BRANCH  18  21
ATOM     21  C   UNL     1       4.855  14.990 -10.725  0.00  0.00    +0.000 C 
ATOM     22  H   UNL     1       5.731  14.398 -11.018  0.00  0.00    +0.000 HD
ATOM     23  H   UNL     1       5.198  15.985 -10.425  0.00  0.00    +0.000 HD
ATOM     24  H   UNL     1       4.246  15.095 -11.626  0.00  0.00    +0.000 HD
ENDBRANCH  18  21
BRANCH  19  25
ATOM     25  C   UNL     1       5.356  15.724  -7.836  0.00  0.00    +0.000 C 
ATOM     26  H   UNL     1       5.074  16.088  -6.844  0.00  0.00    +0.000 HD
ATOM     27  H   UNL     1       5.435  16.569  -8.524  0.00  0.00    +0.000 HD
BRANCH  25  28
ATOM     28  O   UNL     1       6.649  15.139  -7.745  0.00  0.00    +0.000 OA
ATOM     29  H   UNL     1       7.056  15.445  -6.917  0.00  0.00    +0.000 HD
ENDBRANCH  25  28
ENDBRANCH  19  25
ENDBRANCH   1  18
TORSDOF 8
ENDMDL
MODEL 3
REMARK VINA RESULT:    -4.109     24.525     25.931
REMARK INTER + INTRA:          -5.977
REMARK INTER:                  -5.722
REMARK INTRA:                  -0.255
REMARK UNBOUND:                -0.426
REMARK  Name = 637566
REMARK  8 active torsions:
REMARK  status: ('A' for Active; 'I' for Inactive)
REMARK    1  A    between atoms: O_1  and  C_11
REMARK    2  A    between atoms: C_2  and  C_3
REMARK    3  A    between atoms: C_2  and  C_4
REMARK    4  A    between atoms: C_3  and  C_5
REMARK    5  A    between atoms: C_4  and  C_7
REMARK    6  A    between atoms: C_6  and  C_9
REMARK    7  A    between atoms: C_6  and  C_10
REMARK    8  A    between atoms: C_8  and  C_11
REMARK                            x       y       z     vdW  Elec       q    Type
REMARK                         _______ _______ _______ _____ _____    ______ ____
ROOT
ATOM      1  C   UNL     1       2.943  -4.297  16.693  0.00  0.00    +0.000 C 
ATOM      2  H   UNL     1       1.859  -4.391  16.545  0.00  0.00    +0.000 HD
ATOM      3  H   UNL     1       3.084  -3.418  17.336  0.00  0.00    +0.000 HD
ENDROOT
BRANCH   1   4
ATOM      4  C   UNL     1       3.476  -5.538  17.422  0.00  0.00    +0.000 C 
ATOM      5  H   UNL     1       4.497  -5.356  17.774  0.00  0.00    +0.000 HD
ATOM      6  H   UNL     1       3.551  -6.382  16.726  0.00  0.00    +0.000 HD
BRANCH   4   7
ATOM      7  C   UNL     1       2.588  -5.967  18.558  0.00  0.00    +0.000 C 
ATOM      8  C   UNL     1       2.597  -5.529  19.831  0.00  0.00    +0.000 C 
ATOM      9  H   UNL     1       1.855  -6.725  18.284  0.00  0.00    +0.000 HD
BRANCH   8  10
ATOM     10  C   UNL     1       1.627  -6.090  20.836  0.00  0.00    +0.000 C 
ATOM     11  H   UNL     1       1.172  -7.010  20.453  0.00  0.00    +0.000 HD
ATOM     12  H   UNL     1       2.107  -6.330  21.791  0.00  0.00    +0.000 HD
ATOM     13  H   UNL     1       0.831  -5.366  21.038  0.00  0.00    +0.000 HD
ENDBRANCH   8  10
BRANCH   8  14
ATOM     14  C   UNL     1       3.513  -4.472  20.380  0.00  0.00    +0.000 C 
ATOM     15  H   UNL     1       4.526  -4.871  20.493  0.00  0.00    +0.000 HD
ATOM     16  H   UNL     1       3.572  -3.584  19.746  0.00  0.00    +0.000 HD
ATOM     17  H   UNL     1       3.161  -4.141  21.363  0.00  0.00    +0.000 HD
ENDBRANCH   8  14
ENDBRANCH   4   7
ENDBRANCH   1   4
BRANCH   1  18
ATOM     18  C   UNL     1       3.596  -4.052  15.349  0.00  0.00    +0.000 C 
ATOM     19  C   UNL     1       4.083  -2.866  14.935  0.00  0.00    +0.000 C 
ATOM     20  H   UNL     1       3.984  -2.028  15.624  0.00  0.00    +0.000 HD
BRANCH  18  21
ATOM     21  C   UNL     1       3.648  -5.249  14.434  0.00  0.00    +0.000 C 
ATOM     22  H   UNL     1       4.688  -5.481  14.177  0.00  0.00    +0.000 HD
ATOM     23  H   UNL     1       3.103  -5.043  13.508  0.00  0.00    +0.000 HD
ATOM     24  H   UNL     1       3.236  -6.157  14.879  0.00  0.00    +0.000 HD
ENDBRANCH  18  21
BRANCH  19  25
ATOM     25  C   UNL     1       4.710  -2.538  13.618  0.00  0.00    +0.000 C 
ATOM     26  H   UNL     1       3.946  -2.304  12.871  0.00  0.00    +0.000 HD
ATOM     27  H   UNL     1       5.345  -3.345  13.245  0.00  0.00    +0.000 HD
BRANCH  25  28
ATOM     28  O   UNL     1       5.539  -1.396  13.782  0.00  0.00    +0.000 OA
ATOM     29  H   UNL     1       6.427  -1.706  14.031  0.00  0.00    +0.000 HD
ENDBRANCH  25  28
ENDBRANCH  19  25
ENDBRANCH   1  18
TORSDOF 8
ENDMDL
MODEL 4
REMARK VINA RESULT:    -4.040     36.768     37.819
REMARK INTER + INTRA:          -5.883
REMARK INTER:                  -5.183
REMARK INTRA:                  -0.700
REMARK UNBOUND:                -0.426
REMARK  Name = 637566
REMARK  8 active torsions:
REMARK  status: ('A' for Active; 'I' for Inactive)
REMARK    1  A    between atoms: O_1  and  C_11
REMARK    2  A    between atoms: C_2  and  C_3
REMARK    3  A    between atoms: C_2  and  C_4
REMARK    4  A    between atoms: C_3  and  C_5
REMARK    5  A    between atoms: C_4  and  C_7
REMARK    6  A    between atoms: C_6  and  C_9
REMARK    7  A    between atoms: C_6  and  C_10
REMARK    8  A    between atoms: C_8  and  C_11
REMARK                            x       y       z     vdW  Elec       q    Type
REMARK                         _______ _______ _______ _____ _____    ______ ____
ROOT
ATOM      1  C   UNL     1     -15.069 -10.219   0.279  0.00  0.00    +0.000 C 
ATOM      2  H   UNL     1     -14.165 -10.752   0.604  0.00  0.00    +0.000 HD
ATOM      3  H   UNL     1     -14.715  -9.331  -0.263  0.00  0.00    +0.000 HD
ENDROOT
BRANCH   1   4
ATOM      4  C   UNL     1     -15.875 -11.102  -0.682  0.00  0.00    +0.000 C 
ATOM      5  H   UNL     1     -16.402 -11.882  -0.121  0.00  0.00    +0.000 HD
ATOM      6  H   UNL     1     -15.200 -11.636  -1.362  0.00  0.00    +0.000 HD
BRANCH   4   7
ATOM      7  C   UNL     1     -16.835 -10.311  -1.527  0.00  0.00    +0.000 C 
ATOM      8  C   UNL     1     -18.163 -10.165  -1.362  0.00  0.00    +0.000 C 
ATOM      9  H   UNL     1     -16.366  -9.801  -2.369  0.00  0.00    +0.000 HD
BRANCH   8  10
ATOM     10  C   UNL     1     -18.964  -9.332  -2.326  0.00  0.00    +0.000 C 
ATOM     11  H   UNL     1     -18.405  -9.186  -3.257  0.00  0.00    +0.000 HD
ATOM     12  H   UNL     1     -19.922  -9.796  -2.584  0.00  0.00    +0.000 HD
ATOM     13  H   UNL     1     -19.177  -8.350  -1.891  0.00  0.00    +0.000 HD
ENDBRANCH   8  10
BRANCH   8  14
ATOM     14  C   UNL     1     -18.971 -10.766  -0.247  0.00  0.00    +0.000 C 
ATOM     15  H   UNL     1     -19.253 -11.795  -0.497  0.00  0.00    +0.000 HD
ATOM     16  H   UNL     1     -18.437 -10.788   0.707  0.00  0.00    +0.000 HD
ATOM     17  H   UNL     1     -19.886 -10.187  -0.089  0.00  0.00    +0.000 HD
ENDBRANCH   8  14
ENDBRANCH   4   7
ENDBRANCH   1   4
BRANCH   1  18
ATOM     18  C   UNL     1     -15.843  -9.787   1.507  0.00  0.00    +0.000 C 
ATOM     19  C   UNL     1     -16.145 -10.589   2.547  0.00  0.00    +0.000 C 
ATOM     20  H   UNL     1     -15.812 -11.624   2.482  0.00  0.00    +0.000 HD
BRANCH  18  21
ATOM     21  C   UNL     1     -16.312  -8.355   1.498  0.00  0.00    +0.000 C 
ATOM     22  H   UNL     1     -15.742  -7.767   2.225  0.00  0.00    +0.000 HD
ATOM     23  H   UNL     1     -17.372  -8.300   1.768  0.00  0.00    +0.000 HD
ATOM     24  H   UNL     1     -16.179  -7.857   0.534  0.00  0.00    +0.000 HD
ENDBRANCH  18  21
BRANCH  19  25
ATOM     25  C   UNL     1     -16.929 -10.247   3.774  0.00  0.00    +0.000 C 
ATOM     26  H   UNL     1     -16.784  -9.198   4.049  0.00  0.00    +0.000 HD
ATOM     27  H   UNL     1     -16.673 -10.883   4.624  0.00  0.00    +0.000 HD
BRANCH  25  28
ATOM     28  O   UNL     1     -18.309 -10.450   3.501  0.00  0.00    +0.000 OA
ATOM     29  H   UNL     1     -18.501 -10.059   2.632  0.00  0.00    +0.000 HD
ENDBRANCH  25  28
ENDBRANCH  19  25
ENDBRANCH   1  18
TORSDOF 8
ENDMDL
MODEL 5
REMARK VINA RESULT:    -4.026     17.218     18.498
REMARK INTER + INTRA:          -5.864
REMARK INTER:                  -5.531
REMARK INTRA:                  -0.333
REMARK UNBOUND:                -0.426
REMARK  Name = 637566
REMARK  8 active torsions:
REMARK  status: ('A' for Active; 'I' for Inactive)
REMARK    1  A    between atoms: O_1  and  C_11
REMARK    2  A    between atoms: C_2  and  C_3
REMARK    3  A    between atoms: C_2  and  C_4
REMARK    4  A    between atoms: C_3  and  C_5
REMARK    5  A    between atoms: C_4  and  C_7
REMARK    6  A    between atoms: C_6  and  C_9
REMARK    7  A    between atoms: C_6  and  C_10
REMARK    8  A    between atoms: C_8  and  C_11
REMARK                            x       y       z     vdW  Elec       q    Type
REMARK                         _______ _______ _______ _____ _____    ______ ____
ROOT
ATOM      1  C   UNL     1      -3.603   8.588  14.303  0.00  0.00    +0.000 C 
ATOM      2  H   UNL     1      -4.329   9.286  13.864  0.00  0.00    +0.000 HD
ATOM      3  H   UNL     1      -4.191   7.740  14.679  0.00  0.00    +0.000 HD
ENDROOT
BRANCH   1   4
ATOM      4  C   UNL     1      -2.642   8.087  13.216  0.00  0.00    +0.000 C 
ATOM      5  H   UNL     1      -3.115   7.284  12.640  0.00  0.00    +0.000 HD
ATOM      6  H   UNL     1      -1.755   7.635  13.675  0.00  0.00    +0.000 HD
BRANCH   4   7
ATOM      7  C   UNL     1      -2.170   9.189  12.309  0.00  0.00    +0.000 C 
ATOM      8  C   UNL     1      -1.290   9.110  11.293  0.00  0.00    +0.000 C 
ATOM      9  H   UNL     1      -2.616  10.160  12.525  0.00  0.00    +0.000 HD
BRANCH   8  10
ATOM     10  C   UNL     1      -0.933  10.337  10.498  0.00  0.00    +0.000 C 
ATOM     11  H   UNL     1      -1.771  10.632   9.857  0.00  0.00    +0.000 HD
ATOM     12  H   UNL     1      -0.688  11.193  11.137  0.00  0.00    +0.000 HD
ATOM     13  H   UNL     1      -0.064  10.137   9.864  0.00  0.00    +0.000 HD
ENDBRANCH   8  10
BRANCH   8  14
ATOM     14  C   UNL     1      -0.602   7.855  10.836  0.00  0.00    +0.000 C 
ATOM     15  H   UNL     1      -0.812   7.675   9.776  0.00  0.00    +0.000 HD
ATOM     16  H   UNL     1       0.483   7.892  10.961  0.00  0.00    +0.000 HD
ATOM     17  H   UNL     1      -0.963   6.996  11.411  0.00  0.00    +0.000 HD
ENDBRANCH   8  14
ENDBRANCH   4   7
ENDBRANCH   1   4
BRANCH   1  18
ATOM     18  C   UNL     1      -2.911   9.276  15.461  0.00  0.00    +0.000 C 
ATOM     19  C   UNL     1      -1.831   8.796  16.107  0.00  0.00    +0.000 C 
ATOM     20  H   UNL     1      -1.443   7.836  15.768  0.00  0.00    +0.000 HD
BRANCH  18  21
ATOM     21  C   UNL     1      -3.538  10.574  15.902  0.00  0.00    +0.000 C 
ATOM     22  H   UNL     1      -3.222  10.816  16.923  0.00  0.00    +0.000 HD
ATOM     23  H   UNL     1      -4.629  10.492  15.891  0.00  0.00    +0.000 HD
ATOM     24  H   UNL     1      -3.252  11.429  15.286  0.00  0.00    +0.000 HD
ENDBRANCH  18  21
BRANCH  19  25
ATOM     25  C   UNL     1      -1.113   9.398  17.272  0.00  0.00    +0.000 C 
ATOM     26  H   UNL     1      -0.787   8.622  17.972  0.00  0.00    +0.000 HD
ATOM     27  H   UNL     1      -1.722  10.132  17.805  0.00  0.00    +0.000 HD
BRANCH  25  28
ATOM     28  O   UNL     1       0.038  10.080  16.793  0.00  0.00    +0.000 OA
ATOM     29  H   UNL     1      -0.256  10.733  16.135  0.00  0.00    +0.000 HD
ENDBRANCH  25  28
ENDBRANCH  19  25
ENDBRANCH   1  18
TORSDOF 8
ENDMDL
MODEL 6
REMARK VINA RESULT:    -3.995     15.056     16.455
REMARK INTER + INTRA:          -5.823
REMARK INTER:                  -5.551
REMARK INTRA:                  -0.272
REMARK UNBOUND:                -0.426
REMARK  Name = 637566
REMARK  8 active torsions:
REMARK  status: ('A' for Active; 'I' for Inactive)
REMARK    1  A    between atoms: O_1  and  C_11
REMARK    2  A    between atoms: C_2  and  C_3
REMARK    3  A    between atoms: C_2  and  C_4
REMARK    4  A    between atoms: C_3  and  C_5
REMARK    5  A    between atoms: C_4  and  C_7
REMARK    6  A    between atoms: C_6  and  C_9
REMARK    7  A    between atoms: C_6  and  C_10
REMARK    8  A    between atoms: C_8  and  C_11
REMARK                            x       y       z     vdW  Elec       q    Type
REMARK                         _______ _______ _______ _____ _____    ______ ____
ROOT
ATOM      1  C   UNL     1      -2.581  11.260  10.966  0.00  0.00    +0.000 C 
ATOM      2  H   UNL     1      -3.434  11.342  10.280  0.00  0.00    +0.000 HD
ATOM      3  H   UNL     1      -2.722  12.050  11.716  0.00  0.00    +0.000 HD
ENDROOT
BRANCH   1   4
ATOM      4  C   UNL     1      -2.609   9.896  11.668  0.00  0.00    +0.000 C 
ATOM      5  H   UNL     1      -1.798   9.263  11.290  0.00  0.00    +0.000 HD
ATOM      6  H   UNL     1      -3.536   9.363  11.422  0.00  0.00    +0.000 HD
BRANCH   4   7
ATOM      7  C   UNL     1      -2.540  10.014  13.166  0.00  0.00    +0.000 C 
ATOM      8  C   UNL     1      -2.677   9.039  14.084  0.00  0.00    +0.000 C 
ATOM      9  H   UNL     1      -2.352  11.027  13.521  0.00  0.00    +0.000 HD
BRANCH   8  10
ATOM     10  C   UNL     1      -2.583   9.357  15.552  0.00  0.00    +0.000 C 
ATOM     11  H   UNL     1      -1.586   9.738  15.796  0.00  0.00    +0.000 HD
ATOM     12  H   UNL     1      -3.312  10.115  15.862  0.00  0.00    +0.000 HD
ATOM     13  H   UNL     1      -2.767   8.457  16.147  0.00  0.00    +0.000 HD
ENDBRANCH   8  10
BRANCH   8  14
ATOM     14  C   UNL     1      -2.910   7.586  13.780  0.00  0.00    +0.000 C 
ATOM     15  H   UNL     1      -3.925   7.439  13.397  0.00  0.00    +0.000 HD
ATOM     16  H   UNL     1      -2.211   7.185  13.042  0.00  0.00    +0.000 HD
ATOM     17  H   UNL     1      -2.795   6.988  14.690  0.00  0.00    +0.000 HD
ENDBRANCH   8  14
ENDBRANCH   4   7
ENDBRANCH   1   4
BRANCH   1  18
ATOM     18  C   UNL     1      -1.308  11.521  10.189  0.00  0.00    +0.000 C 
ATOM     19  C   UNL     1      -0.485  10.564   9.716  0.00  0.00    +0.000 C 
ATOM     20  H   UNL     1      -0.762   9.532   9.926  0.00  0.00    +0.000 HD
BRANCH  18  21
ATOM     21  C   UNL     1      -0.969  12.975   9.985  0.00  0.00    +0.000 C 
ATOM     22  H   UNL     1      -1.514  13.372   9.121  0.00  0.00    +0.000 HD
ATOM     23  H   UNL     1       0.103  13.093   9.799  0.00  0.00    +0.000 HD
ATOM     24  H   UNL     1      -1.241  13.610  10.831  0.00  0.00    +0.000 HD
ENDBRANCH  18  21
BRANCH  19  25
ATOM     25  C   UNL     1       0.799  10.742   8.971  0.00  0.00    +0.000 C 
ATOM     26  H   UNL     1       1.476   9.903   9.156  0.00  0.00    +0.000 HD
ATOM     27  H   UNL     1       1.304  11.678   9.225  0.00  0.00    +0.000 HD
BRANCH  25  28
ATOM     28  O   UNL     1       0.512  10.787   7.580  0.00  0.00    +0.000 OA
ATOM     29  H   UNL     1      -0.436  10.603   7.465  0.00  0.00    +0.000 HD
ENDBRANCH  25  28
ENDBRANCH  19  25
ENDBRANCH   1  18
TORSDOF 8
ENDMDL
MODEL 7
REMARK VINA RESULT:    -3.991     36.768     37.829
REMARK INTER + INTRA:          -5.817
REMARK INTER:                  -5.258
REMARK INTRA:                  -0.558
REMARK UNBOUND:                -0.426
REMARK  Name = 637566
REMARK  8 active torsions:
REMARK  status: ('A' for Active; 'I' for Inactive)
REMARK    1  A    between atoms: O_1  and  C_11
REMARK    2  A    between atoms: C_2  and  C_3
REMARK    3  A    between atoms: C_2  and  C_4
REMARK    4  A    between atoms: C_3  and  C_5
REMARK    5  A    between atoms: C_4  and  C_7
REMARK    6  A    between atoms: C_6  and  C_9
REMARK    7  A    between atoms: C_6  and  C_10
REMARK    8  A    between atoms: C_8  and  C_11
REMARK                            x       y       z     vdW  Elec       q    Type
REMARK                         _______ _______ _______ _____ _____    ______ ____
ROOT
ATOM      1  C   UNL     1     -15.483  -9.565   1.309  0.00  0.00    +0.000 C 
ATOM      2  H   UNL     1     -14.628  -8.883   1.203  0.00  0.00    +0.000 HD
ATOM      3  H   UNL     1     -15.138 -10.380   1.959  0.00  0.00    +0.000 HD
ENDROOT
BRANCH   1   4
ATOM      4  C   UNL     1     -16.645  -8.836   1.997  0.00  0.00    +0.000 C 
ATOM      5  H   UNL     1     -17.470  -8.695   1.290  0.00  0.00    +0.000 HD
ATOM      6  H   UNL     1     -16.337  -7.826   2.292  0.00  0.00    +0.000 HD
BRANCH   4   7
ATOM      7  C   UNL     1     -17.119  -9.544   3.236  0.00  0.00    +0.000 C 
ATOM      8  C   UNL     1     -18.073 -10.488   3.341  0.00  0.00    +0.000 C 
ATOM      9  H   UNL     1     -16.604  -9.235   4.146  0.00  0.00    +0.000 HD
BRANCH   8  10
ATOM     10  C   UNL     1     -18.416 -11.078   4.683  0.00  0.00    +0.000 C 
ATOM     11  H   UNL     1     -18.558 -10.283   5.422  0.00  0.00    +0.000 HD
ATOM     12  H   UNL     1     -19.336 -11.673   4.655  0.00  0.00    +0.000 HD
ATOM     13  H   UNL     1     -17.609 -11.732   5.026  0.00  0.00    +0.000 HD
ENDBRANCH   8  10
BRANCH   8  14
ATOM     14  C   UNL     1     -18.863 -11.056   2.196  0.00  0.00    +0.000 C 
ATOM     15  H   UNL     1     -19.413 -10.259   1.685  0.00  0.00    +0.000 HD
ATOM     16  H   UNL     1     -18.240 -11.563   1.455  0.00  0.00    +0.000 HD
ATOM     17  H   UNL     1     -19.585 -11.792   2.565  0.00  0.00    +0.000 HD
ENDBRANCH   8  14
ENDBRANCH   4   7
ENDBRANCH   1   4
BRANCH   1  18
ATOM     18  C   UNL     1     -15.832 -10.118  -0.057  0.00  0.00    +0.000 C 
ATOM     19  C   UNL     1     -15.107 -11.038  -0.722  0.00  0.00    +0.000 C 
ATOM     20  H   UNL     1     -14.200 -11.394  -0.235  0.00  0.00    +0.000 HD
BRANCH  18  21
ATOM     21  C   UNL     1     -17.073  -9.537  -0.685  0.00  0.00    +0.000 C 
ATOM     22  H   UNL     1     -17.896 -10.260  -0.631  0.00  0.00    +0.000 HD
ATOM     23  H   UNL     1     -16.891  -9.301  -1.739  0.00  0.00    +0.000 HD
ATOM     24  H   UNL     1     -17.432  -8.632  -0.189  0.00  0.00    +0.000 HD
ENDBRANCH  18  21
BRANCH  19  25
ATOM     25  C   UNL     1     -15.368 -11.608  -2.080  0.00  0.00    +0.000 C 
ATOM     26  H   UNL     1     -14.434 -11.736  -2.634  0.00  0.00    +0.000 HD
ATOM     27  H   UNL     1     -16.055 -10.993  -2.666  0.00  0.00    +0.000 HD
BRANCH  25  28
ATOM     28  O   UNL     1     -15.976 -12.883  -1.927  0.00  0.00    +0.000 OA
ATOM     29  H   UNL     1     -16.824 -12.868  -2.405  0.00  0.00    +0.000 HD
ENDBRANCH  25  28
ENDBRANCH  19  25
ENDBRANCH   1  18
TORSDOF 8
ENDMDL
MODEL 8
REMARK VINA RESULT:    -3.956     14.539     15.746
REMARK INTER + INTRA:          -5.770
REMARK INTER:                  -5.312
REMARK INTRA:                  -0.458
REMARK UNBOUND:                -0.426
REMARK  Name = 637566
REMARK  8 active torsions:
REMARK  status: ('A' for Active; 'I' for Inactive)
REMARK    1  A    between atoms: O_1  and  C_11
REMARK    2  A    between atoms: C_2  and  C_3
REMARK    3  A    between atoms: C_2  and  C_4
REMARK    4  A    between atoms: C_3  and  C_5
REMARK    5  A    between atoms: C_4  and  C_7
REMARK    6  A    between atoms: C_6  and  C_9
REMARK    7  A    between atoms: C_6  and  C_10
REMARK    8  A    between atoms: C_8  and  C_11
REMARK                            x       y       z     vdW  Elec       q    Type
REMARK                         _______ _______ _______ _____ _____    ______ ____
ROOT
ATOM      1  C   UNL     1       2.401  12.948 -10.431  0.00  0.00    +0.000 C 
ATOM      2  H   UNL     1       2.025  13.483 -11.313  0.00  0.00    +0.000 HD
ATOM      3  H   UNL     1       1.557  12.350 -10.060  0.00  0.00    +0.000 HD
ENDROOT
BRANCH   1   4
ATOM      4  C   UNL     1       3.538  12.003 -10.843  0.00  0.00    +0.000 C 
ATOM      5  H   UNL     1       3.414  11.031 -10.352  0.00  0.00    +0.000 HD
ATOM      6  H   UNL     1       4.500  12.391 -10.486  0.00  0.00    +0.000 HD
BRANCH   4   7
ATOM      7  C   UNL     1       3.642  11.839 -12.334  0.00  0.00    +0.000 C 
ATOM      8  C   UNL     1       4.400  12.542 -13.197  0.00  0.00    +0.000 C 
ATOM      9  H   UNL     1       3.016  11.042 -12.736  0.00  0.00    +0.000 HD
BRANCH   8  10
ATOM     10  C   UNL     1       4.362  12.233 -14.669  0.00  0.00    +0.000 C 
ATOM     11  H   UNL     1       3.558  11.522 -14.888  0.00  0.00    +0.000 HD
ATOM     12  H   UNL     1       4.189  13.127 -15.279  0.00  0.00    +0.000 HD
ATOM     13  H   UNL     1       5.312  11.793 -14.988  0.00  0.00    +0.000 HD
ENDBRANCH   8  10
BRANCH   8  14
ATOM     14  C   UNL     1       5.341  13.652 -12.822  0.00  0.00    +0.000 C 
ATOM     15  H   UNL     1       5.188  13.939 -11.776  0.00  0.00    +0.000 HD
ATOM     16  H   UNL     1       6.392  13.382 -12.945  0.00  0.00    +0.000 HD
ATOM     17  H   UNL     1       5.158  14.529 -13.451  0.00  0.00    +0.000 HD
ENDBRANCH   8  14
ENDBRANCH   4   7
ENDBRANCH   1   4
BRANCH   1  18
ATOM     18  C   UNL     1       2.801  13.965  -9.383  0.00  0.00    +0.000 C 
ATOM     19  C   UNL     1       1.939  14.726  -8.681  0.00  0.00    +0.000 C 
ATOM     20  H   UNL     1       0.880  14.598  -8.901  0.00  0.00    +0.000 HD
BRANCH  18  21
ATOM     21  C   UNL     1       4.286  14.119  -9.175  0.00  0.00    +0.000 C 
ATOM     22  H   UNL     1       4.788  13.155  -9.318  0.00  0.00    +0.000 HD
ATOM     23  H   UNL     1       4.493  14.466  -8.157  0.00  0.00    +0.000 HD
ATOM     24  H   UNL     1       4.756  14.813  -9.875  0.00  0.00    +0.000 HD
ENDBRANCH  18  21
BRANCH  19  25
ATOM     25  C   UNL     1       2.257  15.769  -7.658  0.00  0.00    +0.000 C 
ATOM     26  H   UNL     1       2.005  16.767  -8.028  0.00  0.00    +0.000 HD
ATOM     27  H   UNL     1       3.306  15.750  -7.353  0.00  0.00    +0.000 HD
BRANCH  25  28
ATOM     28  O   UNL     1       1.480  15.515  -6.495  0.00  0.00    +0.000 OA
ATOM     29  H   UNL     1       0.544  15.643  -6.729  0.00  0.00    +0.000 HD
ENDBRANCH  25  28
ENDBRANCH  19  25
ENDBRANCH   1  18
TORSDOF 8
ENDMDL
MODEL 9
REMARK VINA RESULT:    -3.944     37.420     38.437
REMARK INTER + INTRA:          -5.753
REMARK INTER:                  -5.436
REMARK INTRA:                  -0.317
REMARK UNBOUND:                -0.426
REMARK  Name = 637566
REMARK  8 active torsions:
REMARK  status: ('A' for Active; 'I' for Inactive)
REMARK    1  A    between atoms: O_1  and  C_11
REMARK    2  A    between atoms: C_2  and  C_3
REMARK    3  A    between atoms: C_2  and  C_4
REMARK    4  A    between atoms: C_3  and  C_5
REMARK    5  A    between atoms: C_4  and  C_7
REMARK    6  A    between atoms: C_6  and  C_9
REMARK    7  A    between atoms: C_6  and  C_10
REMARK    8  A    between atoms: C_8  and  C_11
REMARK                            x       y       z     vdW  Elec       q    Type
REMARK                         _______ _______ _______ _____ _____    ______ ____
ROOT
ATOM      1  C   UNL     1     -16.821 -10.013  -1.773  0.00  0.00    +0.000 C 
ATOM      2  H   UNL     1     -16.948 -11.063  -2.066  0.00  0.00    +0.000 HD
ATOM      3  H   UNL     1     -15.988  -9.630  -2.377  0.00  0.00    +0.000 HD
ENDROOT
BRANCH   1   4
ATOM      4  C   UNL     1     -18.091  -9.222  -2.117  0.00  0.00    +0.000 C 
ATOM      5  H   UNL     1     -18.116  -9.003  -3.190  0.00  0.00    +0.000 HD
ATOM      6  H   UNL     1     -18.074  -8.245  -1.619  0.00  0.00    +0.000 HD
BRANCH   4   7
ATOM      7  C   UNL     1     -19.346  -9.928  -1.686  0.00  0.00    +0.000 C 
ATOM      8  C   UNL     1     -20.572  -9.855  -2.238  0.00  0.00    +0.000 C 
ATOM      9  H   UNL     1     -19.215 -10.573  -0.817  0.00  0.00    +0.000 HD
BRANCH   8  10
ATOM     10  C   UNL     1     -21.718 -10.637  -1.653  0.00  0.00    +0.000 C 
ATOM     11  H   UNL     1     -22.673 -10.191  -1.950  0.00  0.00    +0.000 HD
ATOM     12  H   UNL     1     -21.723 -11.681  -1.984  0.00  0.00    +0.000 HD
ATOM     13  H   UNL     1     -21.658 -10.636  -0.560  0.00  0.00    +0.000 HD
ENDBRANCH   8  10
BRANCH   8  14
ATOM     14  C   UNL     1     -20.932  -9.045  -3.450  0.00  0.00    +0.000 C 
ATOM     15  H   UNL     1     -20.312  -9.343  -4.302  0.00  0.00    +0.000 HD
ATOM     16  H   UNL     1     -21.979  -9.155  -3.744  0.00  0.00    +0.000 HD
ATOM     17  H   UNL     1     -20.764  -7.980  -3.256  0.00  0.00    +0.000 HD
ENDBRANCH   8  14
ENDBRANCH   4   7
ENDBRANCH   1   4
BRANCH   1  18
ATOM     18  C   UNL     1     -16.449  -9.962  -0.306  0.00  0.00    +0.000 C 
ATOM     19  C   UNL     1     -16.555  -8.871   0.477  0.00  0.00    +0.000 C 
ATOM     20  H   UNL     1     -16.928  -7.963   0.006  0.00  0.00    +0.000 HD
BRANCH  18  21
ATOM     21  C   UNL     1     -15.892 -11.244   0.258  0.00  0.00    +0.000 C 
ATOM     22  H   UNL     1     -15.593 -11.915  -0.556  0.00  0.00    +0.000 HD
ATOM     23  H   UNL     1     -16.650 -11.754   0.862  0.00  0.00    +0.000 HD
ATOM     24  H   UNL     1     -15.002 -11.101   0.875  0.00  0.00    +0.000 HD
ENDBRANCH  18  21
BRANCH  19  25
ATOM     25  C   UNL     1     -16.180  -8.734   1.918  0.00  0.00    +0.000 C 
ATOM     26  H   UNL     1     -15.796  -7.732   2.127  0.00  0.00    +0.000 HD
ATOM     27  H   UNL     1     -15.442  -9.477   2.231  0.00  0.00    +0.000 HD
BRANCH  25  28
ATOM     28  O   UNL     1     -17.342  -8.942   2.711  0.00  0.00    +0.000 OA
ATOM     29  H   UNL     1     -17.826  -9.699   2.337  0.00  0.00    +0.000 HD
ENDBRANCH  25  28
ENDBRANCH  19  25
ENDBRANCH   1  18
TORSDOF 8
ENDMDL
MODEL 10
REMARK VINA RESULT:    -3.879     40.568     41.598
REMARK INTER + INTRA:          -5.666
REMARK INTER:                  -5.240
REMARK INTRA:                  -0.426
REMARK UNBOUND:                -0.426
REMARK  Name = 637566
REMARK  8 active torsions:
REMARK  status: ('A' for Active; 'I' for Inactive)
REMARK    1  A    between atoms: O_1  and  C_11
REMARK    2  A    between atoms: C_2  and  C_3
REMARK    3  A    between atoms: C_2  and  C_4
REMARK    4  A    between atoms: C_3  and  C_5
REMARK    5  A    between atoms: C_4  and  C_7
REMARK    6  A    between atoms: C_6  and  C_9
REMARK    7  A    between atoms: C_6  and  C_10
REMARK    8  A    between atoms: C_8  and  C_11
REMARK                            x       y       z     vdW  Elec       q    Type
REMARK                         _______ _______ _______ _____ _____    ______ ____
ROOT
ATOM      1  C   UNL     1     -19.121 -13.403   6.219  0.00  0.00    +0.000 C 
ATOM      2  H   UNL     1     -18.161 -13.802   6.572  0.00  0.00    +0.000 HD
ATOM      3  H   UNL     1     -19.730 -14.277   5.951  0.00  0.00    +0.000 HD
ENDROOT
BRANCH   1   4
ATOM      4  C   UNL     1     -19.816 -12.641   7.356  0.00  0.00    +0.000 C 
ATOM      5  H   UNL     1     -19.265 -11.721   7.581  0.00  0.00    +0.000 HD
ATOM      6  H   UNL     1     -19.789 -13.233   8.279  0.00  0.00    +0.000 HD
BRANCH   4   7
ATOM      7  C   UNL     1     -21.258 -12.341   7.054  0.00  0.00    +0.000 C 
ATOM      8  C   UNL     1     -22.312 -13.176   7.115  0.00  0.00    +0.000 C 
ATOM      9  H   UNL     1     -21.441 -11.309   6.755  0.00  0.00    +0.000 HD
BRANCH   8  10
ATOM     10  C   UNL     1     -23.692 -12.688   6.763  0.00  0.00    +0.000 C 
ATOM     11  H   UNL     1     -23.720 -12.347   5.723  0.00  0.00    +0.000 HD
ATOM     12  H   UNL     1     -24.452 -13.469   6.877  0.00  0.00    +0.000 HD
ATOM     13  H   UNL     1     -23.974 -11.853   7.412  0.00  0.00    +0.000 HD
ENDBRANCH   8  10
BRANCH   8  14
ATOM     14  C   UNL     1     -22.254 -14.618   7.534  0.00  0.00    +0.000 C 
ATOM     15  H   UNL     1     -22.691 -15.255   6.757  0.00  0.00    +0.000 HD
ATOM     16  H   UNL     1     -21.237 -14.970   7.723  0.00  0.00    +0.000 HD
ATOM     17  H   UNL     1     -22.821 -14.765   8.459  0.00  0.00    +0.000 HD
ENDBRANCH   8  14
ENDBRANCH   4   7
ENDBRANCH   1   4
BRANCH   1  18
ATOM     18  C   UNL     1     -18.870 -12.563   4.985  0.00  0.00    +0.000 C 
ATOM     19  C   UNL     1     -18.186 -11.403   4.970  0.00  0.00    +0.000 C 
ATOM     20  H   UNL     1     -17.799 -11.049   5.924  0.00  0.00    +0.000 HD
BRANCH  18  21
ATOM     21  C   UNL     1     -19.482 -13.094   3.713  0.00  0.00    +0.000 C 
ATOM     22  H   UNL     1     -19.311 -12.391   2.890  0.00  0.00    +0.000 HD
ATOM     23  H   UNL     1     -20.562 -13.223   3.836  0.00  0.00    +0.000 HD
ATOM     24  H   UNL     1     -19.058 -14.048   3.389  0.00  0.00    +0.000 HD
ENDBRANCH  18  21
BRANCH  19  25
ATOM     25  C   UNL     1     -17.925 -10.504   3.803  0.00  0.00    +0.000 C 
ATOM     26  H   UNL     1     -18.529  -9.595   3.869  0.00  0.00    +0.000 HD
ATOM     27  H   UNL     1     -18.114 -10.996   2.846  0.00  0.00    +0.000 HD
BRANCH  25  28
ATOM     28  O   UNL     1     -16.553 -10.131   3.817  0.00  0.00    +0.000 OA
ATOM     29  H   UNL     1     -16.262 -10.103   4.744  0.00  0.00    +0.000 HD
ENDBRANCH  25  28
ENDBRANCH  19  25
ENDBRANCH   1  18
TORSDOF 8
ENDMDL
