MODEL 1
REMARK VINA RESULT:    -4.966      0.000      0.000
REMARK INTER + INTRA:          -7.664
REMARK INTER:                  -6.971
REMARK INTRA:                  -0.693
REMARK UNBOUND:                -0.376
REMARK  Name = 1549026
REMARK  10 active torsions:
REMARK  status: ('A' for Active; 'I' for Inactive)
REMARK    1  A    between atoms: O_1  and  C_10
REMARK    2  A    between atoms: O_1  and  C_13
REMARK    3  A    between atoms: C_3  and  C_4
REMARK    4  A    between atoms: C_3  and  C_5
REMARK    5  A    between atoms: C_4  and  C_6
REMARK    6  A    between atoms: C_5  and  C_8
REMARK    7  A    between atoms: C_7  and  C_10
REMARK    8  A    between atoms: C_9  and  C_11
REMARK    9  A    between atoms: C_9  and  C_12
REMARK   10  A    between atoms: C_13  and  C_14
REMARK                            x       y       z     vdW  Elec       q    Type
REMARK                         _______ _______ _______ _____ _____    ______ ____
ROOT
ATOM      1  C   UNL     1      -1.219 -14.823 -12.537  0.00  0.00    +0.000 C 
ATOM      2  H   UNL     1      -1.109 -14.492 -13.577  0.00  0.00    +0.000 HD
ATOM      3  H   UNL     1      -2.298 -14.941 -12.369  0.00  0.00    +0.000 HD
ENDROOT
BRANCH   1   4
ATOM      4  C   UNL     1      -0.535 -16.187 -12.371  0.00  0.00    +0.000 C 
ATOM      5  H   UNL     1       0.247 -16.118 -11.611  0.00  0.00    +0.000 HD
ATOM      6  H   UNL     1      -0.014 -16.422 -13.308  0.00  0.00    +0.000 HD
BRANCH   4   7
ATOM      7  C   UNL     1      -1.514 -17.297 -12.105  0.00  0.00    +0.000 C 
ATOM      8  C   UNL     1      -1.993 -17.715 -10.918  0.00  0.00    +0.000 C 
ATOM      9  H   UNL     1      -1.844 -17.823 -12.999  0.00  0.00    +0.000 HD
BRANCH   8  10
ATOM     10  C   UNL     1      -2.970 -18.859 -10.854  0.00  0.00    +0.000 C 
ATOM     11  H   UNL     1      -2.462 -19.804 -11.076  0.00  0.00    +0.000 HD
ATOM     12  H   UNL     1      -3.436 -18.957  -9.868  0.00  0.00    +0.000 HD
ATOM     13  H   UNL     1      -3.771 -18.714 -11.587  0.00  0.00    +0.000 HD
ENDBRANCH   8  10
BRANCH   8  14
ATOM     14  C   UNL     1      -1.648 -17.121  -9.583  0.00  0.00    +0.000 C 
ATOM     15  H   UNL     1      -2.348 -17.480  -8.821  0.00  0.00    +0.000 HD
ATOM     16  H   UNL     1      -0.644 -17.367  -9.233  0.00  0.00    +0.000 HD
ATOM     17  H   UNL     1      -1.723 -16.029  -9.629  0.00  0.00    +0.000 HD
ENDBRANCH   8  14
ENDBRANCH   4   7
ENDBRANCH   1   4
BRANCH   1  18
ATOM     18  C   UNL     1      -0.670 -13.750 -11.621  0.00  0.00    +0.000 C 
ATOM     19  C   UNL     1      -1.073 -13.539 -10.353  0.00  0.00    +0.000 C 
ATOM     20  H   UNL     1      -1.828 -14.212  -9.948  0.00  0.00    +0.000 HD
BRANCH  18  21
ATOM     21  C   UNL     1       0.381 -12.860 -12.235  0.00  0.00    +0.000 C 
ATOM     22  H   UNL     1       0.313 -11.855 -11.804  0.00  0.00    +0.000 HD
ATOM     23  H   UNL     1       0.233 -12.777 -13.315  0.00  0.00    +0.000 HD
ATOM     24  H   UNL     1       1.409 -13.198 -12.096  0.00  0.00    +0.000 HD
ENDBRANCH  18  21
BRANCH  19  25
ATOM     25  C   UNL     1      -0.604 -12.485  -9.401  0.00  0.00    +0.000 C 
ATOM     26  H   UNL     1      -0.576 -11.527  -9.936  0.00  0.00    +0.000 HD
ATOM     27  H   UNL     1       0.406 -12.671  -9.024  0.00  0.00    +0.000 HD
BRANCH  25  28
ATOM     28  O   UNL     1      -1.534 -12.394  -8.331  0.00  0.00    +0.000 OA
BRANCH  28  30
ATOM     29  O   UNL     1      -0.311 -12.059  -6.400  0.00  0.00    +0.000 OA
ATOM     30  C   UNL     1      -1.056 -12.736  -7.096  0.00  0.00    +0.000 C 
BRANCH  30  31
ATOM     31  C   UNL     1      -1.580 -14.083  -6.701  0.00  0.00    +0.000 C 
ATOM     32  H   UNL     1      -1.413 -14.798  -7.510  0.00  0.00    +0.000 HD
ATOM     33  H   UNL     1      -2.644 -14.011  -6.465  0.00  0.00    +0.000 HD
ATOM     34  H   UNL     1      -1.048 -14.434  -5.812  0.00  0.00    +0.000 HD
ENDBRANCH  30  31
ENDBRANCH  28  30
ENDBRANCH  25  28
ENDBRANCH  19  25
ENDBRANCH   1  18
TORSDOF 10
ENDMDL
MODEL 2
REMARK VINA RESULT:    -4.790     27.536     30.416
REMARK INTER + INTRA:          -7.405
REMARK INTER:                  -6.986
REMARK INTRA:                  -0.419
REMARK UNBOUND:                -0.376
REMARK  Name = 1549026
REMARK  10 active torsions:
REMARK  status: ('A' for Active; 'I' for Inactive)
REMARK    1  A    between atoms: O_1  and  C_10
REMARK    2  A    between atoms: O_1  and  C_13
REMARK    3  A    between atoms: C_3  and  C_4
REMARK    4  A    between atoms: C_3  and  C_5
REMARK    5  A    between atoms: C_4  and  C_6
REMARK    6  A    between atoms: C_5  and  C_8
REMARK    7  A    between atoms: C_7  and  C_10
REMARK    8  A    between atoms: C_9  and  C_11
REMARK    9  A    between atoms: C_9  and  C_12
REMARK   10  A    between atoms: C_13  and  C_14
REMARK                            x       y       z     vdW  Elec       q    Type
REMARK                         _______ _______ _______ _____ _____    ______ ____
ROOT
ATOM      1  C   UNL     1       2.061  -6.836  20.366  0.00  0.00    +0.000 C 
ATOM      2  H   UNL     1       1.990  -6.471  21.398  0.00  0.00    +0.000 HD
ATOM      3  H   UNL     1       2.798  -7.649  20.382  0.00  0.00    +0.000 HD
ENDROOT
BRANCH   1   4
ATOM      4  C   UNL     1       0.700  -7.402  19.939  0.00  0.00    +0.000 C 
ATOM      5  H   UNL     1       0.672  -8.478  20.128  0.00  0.00    +0.000 HD
ATOM      6  H   UNL     1       0.612  -7.292  18.851  0.00  0.00    +0.000 HD
BRANCH   4   7
ATOM      7  C   UNL     1      -0.454  -6.668  20.564  0.00  0.00    +0.000 C 
ATOM      8  C   UNL     1      -1.729  -7.081  20.695  0.00  0.00    +0.000 C 
ATOM      9  H   UNL     1      -0.202  -5.673  20.930  0.00  0.00    +0.000 HD
BRANCH   8  10
ATOM     10  C   UNL     1      -2.752  -6.191  21.350  0.00  0.00    +0.000 C 
ATOM     11  H   UNL     1      -3.763  -6.555  21.135  0.00  0.00    +0.000 HD
ATOM     12  H   UNL     1      -2.639  -6.154  22.439  0.00  0.00    +0.000 HD
ATOM     13  H   UNL     1      -2.662  -5.168  20.972  0.00  0.00    +0.000 HD
ENDBRANCH   8  10
BRANCH   8  14
ATOM     14  C   UNL     1      -2.262  -8.411  20.246  0.00  0.00    +0.000 C 
ATOM     15  H   UNL     1      -2.075  -9.168  21.015  0.00  0.00    +0.000 HD
ATOM     16  H   UNL     1      -3.335  -8.416  20.050  0.00  0.00    +0.000 HD
ATOM     17  H   UNL     1      -1.757  -8.726  19.326  0.00  0.00    +0.000 HD
ENDBRANCH   8  14
ENDBRANCH   4   7
ENDBRANCH   1   4
BRANCH   1  18
ATOM     18  C   UNL     1       2.557  -5.710  19.483  0.00  0.00    +0.000 C 
ATOM     19  C   UNL     1       2.376  -5.640  18.150  0.00  0.00    +0.000 C 
ATOM     20  H   UNL     1       1.804  -6.438  17.678  0.00  0.00    +0.000 HD
BRANCH  18  21
ATOM     21  C   UNL     1       3.330  -4.630  20.196  0.00  0.00    +0.000 C 
ATOM     22  H   UNL     1       2.687  -3.757  20.353  0.00  0.00    +0.000 HD
ATOM     23  H   UNL     1       4.190  -4.314  19.599  0.00  0.00    +0.000 HD
ATOM     24  H   UNL     1       3.727  -4.914  21.170  0.00  0.00    +0.000 HD
ENDBRANCH  18  21
BRANCH  19  25
ATOM     25  C   UNL     1       2.861  -4.582  17.209  0.00  0.00    +0.000 C 
ATOM     26  H   UNL     1       3.267  -3.754  17.804  0.00  0.00    +0.000 HD
ATOM     27  H   UNL     1       2.062  -4.169  16.587  0.00  0.00    +0.000 HD
BRANCH  25  28
ATOM     28  O   UNL     1       3.896  -5.131  16.405  0.00  0.00    +0.000 OA
BRANCH  28  30
ATOM     29  O   UNL     1       3.787  -5.499  14.127  0.00  0.00    +0.000 OA
ATOM     30  C   UNL     1       3.893  -4.752  15.091  0.00  0.00    +0.000 C 
BRANCH  30  31
ATOM     31  C   UNL     1       4.041  -3.264  14.989  0.00  0.00    +0.000 C 
ATOM     32  H   UNL     1       5.100  -2.999  14.951  0.00  0.00    +0.000 HD
ATOM     33  H   UNL     1       3.554  -2.785  15.840  0.00  0.00    +0.000 HD
ATOM     34  H   UNL     1       3.562  -2.914  14.070  0.00  0.00    +0.000 HD
ENDBRANCH  30  31
ENDBRANCH  28  30
ENDBRANCH  25  28
ENDBRANCH  19  25
ENDBRANCH   1  18
TORSDOF 10
ENDMDL
MODEL 3
REMARK VINA RESULT:    -4.713     31.553     34.407
REMARK INTER + INTRA:          -7.292
REMARK INTER:                  -6.872
REMARK INTRA:                  -0.420
REMARK UNBOUND:                -0.376
REMARK  Name = 1549026
REMARK  10 active torsions:
REMARK  status: ('A' for Active; 'I' for Inactive)
REMARK    1  A    between atoms: O_1  and  C_10
REMARK    2  A    between atoms: O_1  and  C_13
REMARK    3  A    between atoms: C_3  and  C_4
REMARK    4  A    between atoms: C_3  and  C_5
REMARK    5  A    between atoms: C_4  and  C_6
REMARK    6  A    between atoms: C_5  and  C_8
REMARK    7  A    between atoms: C_7  and  C_10
REMARK    8  A    between atoms: C_9  and  C_11
REMARK    9  A    between atoms: C_9  and  C_12
REMARK   10  A    between atoms: C_13  and  C_14
REMARK                            x       y       z     vdW  Elec       q    Type
REMARK                         _______ _______ _______ _____ _____    ______ ____
ROOT
ATOM      1  C   UNL     1      -2.804   9.642  15.507  0.00  0.00    +0.000 C 
ATOM      2  H   UNL     1      -3.448   8.955  16.069  0.00  0.00    +0.000 HD
ATOM      3  H   UNL     1      -3.316  10.613  15.515  0.00  0.00    +0.000 HD
ENDROOT
BRANCH   1   4
ATOM      4  C   UNL     1      -1.460   9.778  16.236  0.00  0.00    +0.000 C 
ATOM      5  H   UNL     1      -1.426  10.729  16.773  0.00  0.00    +0.000 HD
ATOM      6  H   UNL     1      -0.667   9.839  15.479  0.00  0.00    +0.000 HD
BRANCH   4   7
ATOM      7  C   UNL     1      -1.158   8.597  17.117  0.00  0.00    +0.000 C 
ATOM      8  C   UNL     1      -0.134   8.445  17.978  0.00  0.00    +0.000 C 
ATOM      9  H   UNL     1      -1.859   7.771  17.009  0.00  0.00    +0.000 HD
BRANCH   8  10
ATOM     10  C   UNL     1       0.005   7.174  18.774  0.00  0.00    +0.000 C 
ATOM     11  H   UNL     1       0.685   7.329  19.619  0.00  0.00    +0.000 HD
ATOM     12  H   UNL     1      -0.952   6.826  19.178  0.00  0.00    +0.000 HD
ATOM     13  H   UNL     1       0.410   6.375  18.145  0.00  0.00    +0.000 HD
ENDBRANCH   8  10
BRANCH   8  14
ATOM     14  C   UNL     1       0.931   9.467  18.254  0.00  0.00    +0.000 C 
ATOM     15  H   UNL     1       1.839   8.973  18.615  0.00  0.00    +0.000 HD
ATOM     16  H   UNL     1       1.215  10.058  17.382  0.00  0.00    +0.000 HD
ATOM     17  H   UNL     1       0.590  10.163  19.028  0.00  0.00    +0.000 HD
ENDBRANCH   8  14
ENDBRANCH   4   7
ENDBRANCH   1   4
BRANCH   1  18
ATOM     18  C   UNL     1      -2.677   9.139  14.084  0.00  0.00    +0.000 C 
ATOM     19  C   UNL     1      -2.342   9.901  13.025  0.00  0.00    +0.000 C 
ATOM     20  H   UNL     1      -2.116  10.950  13.213  0.00  0.00    +0.000 HD
BRANCH  18  21
ATOM     21  C   UNL     1      -2.990   7.677  13.891  0.00  0.00    +0.000 C 
ATOM     22  H   UNL     1      -3.773   7.370  14.592  0.00  0.00    +0.000 HD
ATOM     23  H   UNL     1      -2.105   7.064  14.082  0.00  0.00    +0.000 HD
ATOM     24  H   UNL     1      -3.333   7.407  12.891  0.00  0.00    +0.000 HD
ENDBRANCH  18  21
BRANCH  19  25
ATOM     25  C   UNL     1      -2.228   9.486  11.592  0.00  0.00    +0.000 C 
ATOM     26  H   UNL     1      -2.279  10.388  10.969  0.00  0.00    +0.000 HD
ATOM     27  H   UNL     1      -3.043   8.831  11.273  0.00  0.00    +0.000 HD
BRANCH  25  28
ATOM     28  O   UNL     1      -0.969   8.857  11.401  0.00  0.00    +0.000 OA
BRANCH  28  30
ATOM     29  O   UNL     1      -0.280  10.602  10.052  0.00  0.00    +0.000 OA
ATOM     30  C   UNL     1      -0.075   9.537  10.620  0.00  0.00    +0.000 C 
BRANCH  30  31
ATOM     31  C   UNL     1       1.219   8.785  10.552  0.00  0.00    +0.000 C 
ATOM     32  H   UNL     1       1.946   9.350   9.964  0.00  0.00    +0.000 HD
ATOM     33  H   UNL     1       1.051   7.799  10.113  0.00  0.00    +0.000 HD
ATOM     34  H   UNL     1       1.616   8.654  11.563  0.00  0.00    +0.000 HD
ENDBRANCH  30  31
ENDBRANCH  28  30
ENDBRANCH  25  28
ENDBRANCH  19  25
ENDBRANCH   1  18
TORSDOF 10
ENDMDL
MODEL 4
REMARK VINA RESULT:    -4.622     19.729     22.231
REMARK INTER + INTRA:          -7.159
REMARK INTER:                  -6.548
REMARK INTRA:                  -0.611
REMARK UNBOUND:                -0.376
REMARK  Name = 1549026
REMARK  10 active torsions:
REMARK  status: ('A' for Active; 'I' for Inactive)
REMARK    1  A    between atoms: O_1  and  C_10
REMARK    2  A    between atoms: O_1  and  C_13
REMARK    3  A    between atoms: C_3  and  C_4
REMARK    4  A    between atoms: C_3  and  C_5
REMARK    5  A    between atoms: C_4  and  C_6
REMARK    6  A    between atoms: C_5  and  C_8
REMARK    7  A    between atoms: C_7  and  C_10
REMARK    8  A    between atoms: C_9  and  C_11
REMARK    9  A    between atoms: C_9  and  C_12
REMARK   10  A    between atoms: C_13  and  C_14
REMARK                            x       y       z     vdW  Elec       q    Type
REMARK                         _______ _______ _______ _____ _____    ______ ____
ROOT
ATOM      1  C   UNL     1     -17.833 -11.167   4.556  0.00  0.00    +0.000 C 
ATOM      2  H   UNL     1     -18.022 -10.438   5.354  0.00  0.00    +0.000 HD
ATOM      3  H   UNL     1     -16.867 -11.631   4.794  0.00  0.00    +0.000 HD
ENDROOT
BRANCH   1   4
ATOM      4  C   UNL     1     -18.927 -12.242   4.590  0.00  0.00    +0.000 C 
ATOM      5  H   UNL     1     -18.867 -12.858   3.689  0.00  0.00    +0.000 HD
ATOM      6  H   UNL     1     -19.901 -11.738   4.537  0.00  0.00    +0.000 HD
BRANCH   4   7
ATOM      7  C   UNL     1     -18.904 -13.052   5.856  0.00  0.00    +0.000 C 
ATOM      8  C   UNL     1     -19.630 -12.866   6.975  0.00  0.00    +0.000 C 
ATOM      9  H   UNL     1     -18.188 -13.873   5.846  0.00  0.00    +0.000 HD
BRANCH   8  10
ATOM     10  C   UNL     1     -19.460 -13.788   8.153  0.00  0.00    +0.000 C 
ATOM     11  H   UNL     1     -20.436 -14.042   8.579  0.00  0.00    +0.000 HD
ATOM     12  H   UNL     1     -18.961 -14.725   7.883  0.00  0.00    +0.000 HD
ATOM     13  H   UNL     1     -18.857 -13.303   8.929  0.00  0.00    +0.000 HD
ENDBRANCH   8  10
BRANCH   8  14
ATOM     14  C   UNL     1     -20.656 -11.788   7.176  0.00  0.00    +0.000 C 
ATOM     15  H   UNL     1     -21.663 -12.208   7.085  0.00  0.00    +0.000 HD
ATOM     16  H   UNL     1     -20.601 -11.300   8.150  0.00  0.00    +0.000 HD
ATOM     17  H   UNL     1     -20.539 -11.012   6.411  0.00  0.00    +0.000 HD
ENDBRANCH   8  14
ENDBRANCH   4   7
ENDBRANCH   1   4
BRANCH   1  18
ATOM     18  C   UNL     1     -17.739 -10.432   3.235  0.00  0.00    +0.000 C 
ATOM     19  C   UNL     1     -16.818  -9.496   2.938  0.00  0.00    +0.000 C 
ATOM     20  H   UNL     1     -16.066  -9.274   3.694  0.00  0.00    +0.000 HD
BRANCH  18  21
ATOM     21  C   UNL     1     -18.800 -10.792   2.226  0.00  0.00    +0.000 C 
ATOM     22  H   UNL     1     -18.351 -11.355   1.401  0.00  0.00    +0.000 HD
ATOM     23  H   UNL     1     -19.259  -9.891   1.811  0.00  0.00    +0.000 HD
ATOM     24  H   UNL     1     -19.620 -11.396   2.616  0.00  0.00    +0.000 HD
ENDBRANCH  18  21
BRANCH  19  25
ATOM     25  C   UNL     1     -16.682  -8.707   1.674  0.00  0.00    +0.000 C 
ATOM     26  H   UNL     1     -16.474  -7.663   1.942  0.00  0.00    +0.000 HD
ATOM     27  H   UNL     1     -17.594  -8.708   1.071  0.00  0.00    +0.000 HD
BRANCH  25  28
ATOM     28  O   UNL     1     -15.586  -9.226   0.933  0.00  0.00    +0.000 OA
BRANCH  28  30
ATOM     29  O   UNL     1     -15.351 -11.272  -0.114  0.00  0.00    +0.000 OA
ATOM     30  C   UNL     1     -15.894 -10.181   0.004  0.00  0.00    +0.000 C 
BRANCH  30  31
ATOM     31  C   UNL     1     -17.012  -9.700  -0.871  0.00  0.00    +0.000 C 
ATOM     32  H   UNL     1     -17.712 -10.517  -1.059  0.00  0.00    +0.000 HD
ATOM     33  H   UNL     1     -16.607  -9.315  -1.809  0.00  0.00    +0.000 HD
ATOM     34  H   UNL     1     -17.547  -8.892  -0.364  0.00  0.00    +0.000 HD
ENDBRANCH  30  31
ENDBRANCH  28  30
ENDBRANCH  25  28
ENDBRANCH  19  25
ENDBRANCH   1  18
TORSDOF 10
ENDMDL
MODEL 5
REMARK VINA RESULT:    -4.545     31.603     34.284
REMARK INTER + INTRA:          -7.047
REMARK INTER:                  -6.494
REMARK INTRA:                  -0.553
REMARK UNBOUND:                -0.376
REMARK  Name = 1549026
REMARK  10 active torsions:
REMARK  status: ('A' for Active; 'I' for Inactive)
REMARK    1  A    between atoms: O_1  and  C_10
REMARK    2  A    between atoms: O_1  and  C_13
REMARK    3  A    between atoms: C_3  and  C_4
REMARK    4  A    between atoms: C_3  and  C_5
REMARK    5  A    between atoms: C_4  and  C_6
REMARK    6  A    between atoms: C_5  and  C_8
REMARK    7  A    between atoms: C_7  and  C_10
REMARK    8  A    between atoms: C_9  and  C_11
REMARK    9  A    between atoms: C_9  and  C_12
REMARK   10  A    between atoms: C_13  and  C_14
REMARK                            x       y       z     vdW  Elec       q    Type
REMARK                         _______ _______ _______ _____ _____    ______ ____
ROOT
ATOM      1  C   UNL     1      -2.363   7.605  12.834  0.00  0.00    +0.000 C 
ATOM      2  H   UNL     1      -1.527   7.044  13.270  0.00  0.00    +0.000 HD
ATOM      3  H   UNL     1      -2.965   6.870  12.283  0.00  0.00    +0.000 HD
ENDROOT
BRANCH   1   4
ATOM      4  C   UNL     1      -3.211   8.200  13.965  0.00  0.00    +0.000 C 
ATOM      5  H   UNL     1      -4.060   7.545  14.175  0.00  0.00    +0.000 HD
ATOM      6  H   UNL     1      -3.648   9.140  13.604  0.00  0.00    +0.000 HD
BRANCH   4   7
ATOM      7  C   UNL     1      -2.400   8.518  15.191  0.00  0.00    +0.000 C 
ATOM      8  C   UNL     1      -2.551   9.551  16.041  0.00  0.00    +0.000 C 
ATOM      9  H   UNL     1      -1.585   7.820  15.379  0.00  0.00    +0.000 HD
BRANCH   8  10
ATOM     10  C   UNL     1      -1.626   9.705  17.220  0.00  0.00    +0.000 C 
ATOM     11  H   UNL     1      -1.403  10.764  17.390  0.00  0.00    +0.000 HD
ATOM     12  H   UNL     1      -2.055   9.304  18.144  0.00  0.00    +0.000 HD
ATOM     13  H   UNL     1      -0.685   9.177  17.035  0.00  0.00    +0.000 HD
ENDBRANCH   8  10
BRANCH   8  14
ATOM     14  C   UNL     1      -3.607  10.614  15.941  0.00  0.00    +0.000 C 
ATOM     15  H   UNL     1      -3.788  11.056  16.926  0.00  0.00    +0.000 HD
ATOM     16  H   UNL     1      -3.350  11.433  15.267  0.00  0.00    +0.000 HD
ATOM     17  H   UNL     1      -4.546  10.175  15.586  0.00  0.00    +0.000 HD
ENDBRANCH   8  14
ENDBRANCH   4   7
ENDBRANCH   1   4
BRANCH   1  18
ATOM     18  C   UNL     1      -1.810   8.640  11.876  0.00  0.00    +0.000 C 
ATOM     19  C   UNL     1      -2.221   9.921  11.807  0.00  0.00    +0.000 C 
ATOM     20  H   UNL     1      -2.985  10.242  12.514  0.00  0.00    +0.000 HD
BRANCH  18  21
ATOM     21  C   UNL     1      -0.747   8.137  10.933  0.00  0.00    +0.000 C 
ATOM     22  H   UNL     1       0.245   8.347  11.348  0.00  0.00    +0.000 HD
ATOM     23  H   UNL     1      -0.822   8.640   9.965  0.00  0.00    +0.000 HD
ATOM     24  H   UNL     1      -0.786   7.068  10.723  0.00  0.00    +0.000 HD
ENDBRANCH  18  21
BRANCH  19  25
ATOM     25  C   UNL     1      -1.749  10.989  10.871  0.00  0.00    +0.000 C 
ATOM     26  H   UNL     1      -2.625  11.554  10.526  0.00  0.00    +0.000 HD
ATOM     27  H   UNL     1      -1.256  10.588   9.982  0.00  0.00    +0.000 HD
BRANCH  25  28
ATOM     28  O   UNL     1      -0.881  11.862  11.582  0.00  0.00    +0.000 OA
BRANCH  28  30
ATOM     29  O   UNL     1      -1.080  14.082  12.189  0.00  0.00    +0.000 OA
ATOM     30  C   UNL     1      -1.054  13.198  11.343  0.00  0.00    +0.000 C 
BRANCH  30  31
ATOM     31  C   UNL     1      -1.211  13.437   9.872  0.00  0.00    +0.000 C 
ATOM     32  H   UNL     1      -1.529  12.516   9.379  0.00  0.00    +0.000 HD
ATOM     33  H   UNL     1      -0.268  13.793   9.453  0.00  0.00    +0.000 HD
ATOM     34  H   UNL     1      -1.977  14.201   9.709  0.00  0.00    +0.000 HD
ENDBRANCH  30  31
ENDBRANCH  28  30
ENDBRANCH  25  28
ENDBRANCH  19  25
ENDBRANCH   1  18
TORSDOF 10
ENDMDL
MODEL 6
REMARK VINA RESULT:    -4.516     34.758     35.960
REMARK INTER + INTRA:          -7.003
REMARK INTER:                  -6.308
REMARK INTRA:                  -0.695
REMARK UNBOUND:                -0.376
REMARK  Name = 1549026
REMARK  10 active torsions:
REMARK  status: ('A' for Active; 'I' for Inactive)
REMARK    1  A    between atoms: O_1  and  C_10
REMARK    2  A    between atoms: O_1  and  C_13
REMARK    3  A    between atoms: C_3  and  C_4
REMARK    4  A    between atoms: C_3  and  C_5
REMARK    5  A    between atoms: C_4  and  C_6
REMARK    6  A    between atoms: C_5  and  C_8
REMARK    7  A    between atoms: C_7  and  C_10
REMARK    8  A    between atoms: C_9  and  C_11
REMARK    9  A    between atoms: C_9  and  C_12
REMARK   10  A    between atoms: C_13  and  C_14
REMARK                            x       y       z     vdW  Elec       q    Type
REMARK                         _______ _______ _______ _____ _____    ______ ____
ROOT
ATOM      1  C   UNL     1     -29.416  -6.981  11.632  0.00  0.00    +0.000 C 
ATOM      2  H   UNL     1     -28.832  -7.505  10.865  0.00  0.00    +0.000 HD
ATOM      3  H   UNL     1     -30.329  -6.633  11.133  0.00  0.00    +0.000 HD
ENDROOT
BRANCH   1   4
ATOM      4  C   UNL     1     -29.797  -7.975  12.737  0.00  0.00    +0.000 C 
ATOM      5  H   UNL     1     -30.873  -8.161  12.712  0.00  0.00    +0.000 HD
ATOM      6  H   UNL     1     -29.604  -7.497  13.706  0.00  0.00    +0.000 HD
BRANCH   4   7
ATOM      7  C   UNL     1     -28.983  -9.239  12.685  0.00  0.00    +0.000 C 
ATOM      8  C   UNL     1     -28.439  -9.919  13.712  0.00  0.00    +0.000 C 
ATOM      9  H   UNL     1     -28.811  -9.616  11.678  0.00  0.00    +0.000 HD
BRANCH   8  10
ATOM     10  C   UNL     1     -27.643 -11.172  13.456  0.00  0.00    +0.000 C 
ATOM     11  H   UNL     1     -28.103 -12.024  13.968  0.00  0.00    +0.000 HD
ATOM     12  H   UNL     1     -27.583 -11.419  12.391  0.00  0.00    +0.000 HD
ATOM     13  H   UNL     1     -26.620 -11.053  13.828  0.00  0.00    +0.000 HD
ENDBRANCH   8  10
BRANCH   8  14
ATOM     14  C   UNL     1     -28.561  -9.549  15.162  0.00  0.00    +0.000 C 
ATOM     15  H   UNL     1     -27.570  -9.340  15.579  0.00  0.00    +0.000 HD
ATOM     16  H   UNL     1     -29.176  -8.667  15.345  0.00  0.00    +0.000 HD
ATOM     17  H   UNL     1     -29.000 -10.381  15.725  0.00  0.00    +0.000 HD
ENDBRANCH   8  14
ENDBRANCH   4   7
ENDBRANCH   1   4
BRANCH   1  18
ATOM     18  C   UNL     1     -28.616  -5.795  12.128  0.00  0.00    +0.000 C 
ATOM     19  C   UNL     1     -28.012  -4.888  11.337  0.00  0.00    +0.000 C 
ATOM     20  H   UNL     1     -28.135  -5.000  10.260  0.00  0.00    +0.000 HD
BRANCH  18  21
ATOM     21  C   UNL     1     -28.492  -5.687  13.627  0.00  0.00    +0.000 C 
ATOM     22  H   UNL     1     -27.446  -5.512  13.901  0.00  0.00    +0.000 HD
ATOM     23  H   UNL     1     -28.817  -6.614  14.108  0.00  0.00    +0.000 HD
ATOM     24  H   UNL     1     -29.079  -4.889  14.082  0.00  0.00    +0.000 HD
ENDBRANCH  18  21
BRANCH  19  25
ATOM     25  C   UNL     1     -27.182  -3.713  11.749  0.00  0.00    +0.000 C 
ATOM     26  H   UNL     1     -27.426  -3.469  12.791  0.00  0.00    +0.000 HD
ATOM     27  H   UNL     1     -27.385  -2.819  11.154  0.00  0.00    +0.000 HD
BRANCH  25  28
ATOM     28  O   UNL     1     -25.810  -4.076  11.665  0.00  0.00    +0.000 OA
BRANCH  28  30
ATOM     29  O   UNL     1     -24.222  -2.508  12.262  0.00  0.00    +0.000 OA
ATOM     30  C   UNL     1     -24.971  -3.437  12.535  0.00  0.00    +0.000 C 
BRANCH  30  31
ATOM     31  C   UNL     1     -25.093  -4.043  13.900  0.00  0.00    +0.000 C 
ATOM     32  H   UNL     1     -25.381  -3.276  14.622  0.00  0.00    +0.000 HD
ATOM     33  H   UNL     1     -24.145  -4.505  14.185  0.00  0.00    +0.000 HD
ATOM     34  H   UNL     1     -25.868  -4.816  13.886  0.00  0.00    +0.000 HD
ENDBRANCH  30  31
ENDBRANCH  28  30
ENDBRANCH  25  28
ENDBRANCH  19  25
ENDBRANCH   1  18
TORSDOF 10
ENDMDL
MODEL 7
REMARK VINA RESULT:    -4.468     32.015     34.043
REMARK INTER + INTRA:          -6.933
REMARK INTER:                  -6.326
REMARK INTRA:                  -0.607
REMARK UNBOUND:                -0.376
REMARK  Name = 1549026
REMARK  10 active torsions:
REMARK  status: ('A' for Active; 'I' for Inactive)
REMARK    1  A    between atoms: O_1  and  C_10
REMARK    2  A    between atoms: O_1  and  C_13
REMARK    3  A    between atoms: C_3  and  C_4
REMARK    4  A    between atoms: C_3  and  C_5
REMARK    5  A    between atoms: C_4  and  C_6
REMARK    6  A    between atoms: C_5  and  C_8
REMARK    7  A    between atoms: C_7  and  C_10
REMARK    8  A    between atoms: C_9  and  C_11
REMARK    9  A    between atoms: C_9  and  C_12
REMARK   10  A    between atoms: C_13  and  C_14
REMARK                            x       y       z     vdW  Elec       q    Type
REMARK                         _______ _______ _______ _____ _____    ______ ____
ROOT
ATOM      1  C   UNL     1      -3.119   8.855  13.435  0.00  0.00    +0.000 C 
ATOM      2  H   UNL     1      -2.821   7.800  13.473  0.00  0.00    +0.000 HD
ATOM      3  H   UNL     1      -4.116   8.872  12.975  0.00  0.00    +0.000 HD
ENDROOT
BRANCH   1   4
ATOM      4  C   UNL     1      -3.219   9.399  14.866  0.00  0.00    +0.000 C 
ATOM      5  H   UNL     1      -4.241   9.286  15.234  0.00  0.00    +0.000 HD
ATOM      6  H   UNL     1      -3.036  10.481  14.832  0.00  0.00    +0.000 HD
BRANCH   4   7
ATOM      7  C   UNL     1      -2.195   8.796  15.788  0.00  0.00    +0.000 C 
ATOM      8  C   UNL     1      -1.633   9.347  16.880  0.00  0.00    +0.000 C 
ATOM      9  H   UNL     1      -1.873   7.796  15.501  0.00  0.00    +0.000 HD
BRANCH   8  10
ATOM     10  C   UNL     1      -0.611   8.580  17.677  0.00  0.00    +0.000 C 
ATOM     11  H   UNL     1      -1.053   8.223  18.614  0.00  0.00    +0.000 HD
ATOM     12  H   UNL     1      -0.228   7.708  17.138  0.00  0.00    +0.000 HD
ATOM     13  H   UNL     1       0.242   9.223  17.918  0.00  0.00    +0.000 HD
ENDBRANCH   8  10
BRANCH   8  14
ATOM     14  C   UNL     1      -1.943  10.713  17.422  0.00  0.00    +0.000 C 
ATOM     15  H   UNL     1      -2.989  10.758  17.744  0.00  0.00    +0.000 HD
ATOM     16  H   UNL     1      -1.333  10.998  18.281  0.00  0.00    +0.000 HD
ATOM     17  H   UNL     1      -1.792  11.468  16.644  0.00  0.00    +0.000 HD
ENDBRANCH   8  14
ENDBRANCH   4   7
ENDBRANCH   1   4
BRANCH   1  18
ATOM     18  C   UNL     1      -2.136   9.609  12.563  0.00  0.00    +0.000 C 
ATOM     19  C   UNL     1      -1.538   9.106  11.466  0.00  0.00    +0.000 C 
ATOM     20  H   UNL     1      -1.806   8.094  11.167  0.00  0.00    +0.000 HD
BRANCH  18  21
ATOM     21  C   UNL     1      -1.816  11.009  13.022  0.00  0.00    +0.000 C 
ATOM     22  H   UNL     1      -2.476  11.287  13.851  0.00  0.00    +0.000 HD
ATOM     23  H   UNL     1      -1.970  11.725  12.210  0.00  0.00    +0.000 HD
ATOM     24  H   UNL     1      -0.792  11.158  13.366  0.00  0.00    +0.000 HD
ENDBRANCH  18  21
BRANCH  19  25
ATOM     25  C   UNL     1      -0.537   9.773  10.577  0.00  0.00    +0.000 C 
ATOM     26  H   UNL     1      -0.269  10.739  11.024  0.00  0.00    +0.000 HD
ATOM     27  H   UNL     1      -0.928   9.981   9.577  0.00  0.00    +0.000 HD
BRANCH  25  28
ATOM     28  O   UNL     1       0.623   8.954  10.505  0.00  0.00    +0.000 OA
BRANCH  28  30
ATOM     29  O   UNL     1       2.642   9.528   9.541  0.00  0.00    +0.000 OA
ATOM     30  C   UNL     1       1.817   9.618  10.441  0.00  0.00    +0.000 C 
BRANCH  30  31
ATOM     31  C   UNL     1       1.983  10.488  11.649  0.00  0.00    +0.000 C 
ATOM     32  H   UNL     1       1.164  10.311  12.349  0.00  0.00    +0.000 HD
ATOM     33  H   UNL     1       2.012  11.538  11.347  0.00  0.00    +0.000 HD
ATOM     34  H   UNL     1       2.926  10.242  12.147  0.00  0.00    +0.000 HD
ENDBRANCH  30  31
ENDBRANCH  28  30
ENDBRANCH  25  28
ENDBRANCH  19  25
ENDBRANCH   1  18
TORSDOF 10
ENDMDL
MODEL 8
REMARK VINA RESULT:    -4.364     33.963     36.256
REMARK INTER + INTRA:          -6.781
REMARK INTER:                  -6.405
REMARK INTRA:                  -0.376
REMARK UNBOUND:                -0.376
REMARK  Name = 1549026
REMARK  10 active torsions:
REMARK  status: ('A' for Active; 'I' for Inactive)
REMARK    1  A    between atoms: O_1  and  C_10
REMARK    2  A    between atoms: O_1  and  C_13
REMARK    3  A    between atoms: C_3  and  C_4
REMARK    4  A    between atoms: C_3  and  C_5
REMARK    5  A    between atoms: C_4  and  C_6
REMARK    6  A    between atoms: C_5  and  C_8
REMARK    7  A    between atoms: C_7  and  C_10
REMARK    8  A    between atoms: C_9  and  C_11
REMARK    9  A    between atoms: C_9  and  C_12
REMARK   10  A    between atoms: C_13  and  C_14
REMARK                            x       y       z     vdW  Elec       q    Type
REMARK                         _______ _______ _______ _____ _____    ______ ____
ROOT
ATOM      1  C   UNL     1       0.291   9.570  17.811  0.00  0.00    +0.000 C 
ATOM      2  H   UNL     1       0.739   9.668  16.815  0.00  0.00    +0.000 HD
ATOM      3  H   UNL     1       0.532  10.499  18.345  0.00  0.00    +0.000 HD
ENDROOT
BRANCH   1   4
ATOM      4  C   UNL     1      -1.233   9.458  17.666  0.00  0.00    +0.000 C 
ATOM      5  H   UNL     1      -1.689  10.443  17.787  0.00  0.00    +0.000 HD
ATOM      6  H   UNL     1      -1.611   8.855  18.501  0.00  0.00    +0.000 HD
BRANCH   4   7
ATOM      7  C   UNL     1      -1.644   8.775  16.391  0.00  0.00    +0.000 C 
ATOM      8  C   UNL     1      -2.637   9.118  15.548  0.00  0.00    +0.000 C 
ATOM      9  H   UNL     1      -1.062   7.886  16.155  0.00  0.00    +0.000 HD
BRANCH   8  10
ATOM     10  C   UNL     1      -2.902   8.297  14.313  0.00  0.00    +0.000 C 
ATOM     11  H   UNL     1      -3.417   8.903  13.560  0.00  0.00    +0.000 HD
ATOM     12  H   UNL     1      -1.981   7.916  13.859  0.00  0.00    +0.000 HD
ATOM     13  H   UNL     1      -3.532   7.436  14.559  0.00  0.00    +0.000 HD
ENDBRANCH   8  10
BRANCH   8  14
ATOM     14  C   UNL     1      -3.547  10.301  15.711  0.00  0.00    +0.000 C 
ATOM     15  H   UNL     1      -3.915  10.351  16.741  0.00  0.00    +0.000 HD
ATOM     16  H   UNL     1      -3.071  11.260  15.497  0.00  0.00    +0.000 HD
ATOM     17  H   UNL     1      -4.410  10.204  15.044  0.00  0.00    +0.000 HD
ENDBRANCH   8  14
ENDBRANCH   4   7
ENDBRANCH   1   4
BRANCH   1  18
ATOM     18  C   UNL     1       0.924   8.390  18.518  0.00  0.00    +0.000 C 
ATOM     19  C   UNL     1       2.213   8.019  18.394  0.00  0.00    +0.000 C 
ATOM     20  H   UNL     1       2.853   8.634  17.763  0.00  0.00    +0.000 HD
BRANCH  18  21
ATOM     21  C   UNL     1      -0.010   7.587  19.387  0.00  0.00    +0.000 C 
ATOM     22  H   UNL     1       0.548   7.140  20.217  0.00  0.00    +0.000 HD
ATOM     23  H   UNL     1      -0.470   6.778  18.814  0.00  0.00    +0.000 HD
ATOM     24  H   UNL     1      -0.833   8.153  19.824  0.00  0.00    +0.000 HD
ENDBRANCH  18  21
BRANCH  19  25
ATOM     25  C   UNL     1       2.901   6.853  19.031  0.00  0.00    +0.000 C 
ATOM     26  H   UNL     1       2.173   6.038  19.130  0.00  0.00    +0.000 HD
ATOM     27  H   UNL     1       3.273   7.075  20.035  0.00  0.00    +0.000 HD
BRANCH  25  28
ATOM     28  O   UNL     1       3.959   6.433  18.181  0.00  0.00    +0.000 OA
BRANCH  28  30
ATOM     29  O   UNL     1       5.634   5.444  19.428  0.00  0.00    +0.000 OA
ATOM     30  C   UNL     1       5.198   6.371  18.759  0.00  0.00    +0.000 C 
BRANCH  30  31
ATOM     31  C   UNL     1       5.966   7.621  18.454  0.00  0.00    +0.000 C 
ATOM     32  H   UNL     1       6.271   8.105  19.385  0.00  0.00    +0.000 HD
ATOM     33  H   UNL     1       5.351   8.295  17.853  0.00  0.00    +0.000 HD
ATOM     34  H   UNL     1       6.864   7.366  17.884  0.00  0.00    +0.000 HD
ENDBRANCH  30  31
ENDBRANCH  28  30
ENDBRANCH  25  28
ENDBRANCH  19  25
ENDBRANCH   1  18
TORSDOF 10
ENDMDL
MODEL 9
REMARK VINA RESULT:    -4.349     33.497     35.335
REMARK INTER + INTRA:          -6.758
REMARK INTER:                  -5.983
REMARK INTRA:                  -0.775
REMARK UNBOUND:                -0.376
REMARK  Name = 1549026
REMARK  10 active torsions:
REMARK  status: ('A' for Active; 'I' for Inactive)
REMARK    1  A    between atoms: O_1  and  C_10
REMARK    2  A    between atoms: O_1  and  C_13
REMARK    3  A    between atoms: C_3  and  C_4
REMARK    4  A    between atoms: C_3  and  C_5
REMARK    5  A    between atoms: C_4  and  C_6
REMARK    6  A    between atoms: C_5  and  C_8
REMARK    7  A    between atoms: C_7  and  C_10
REMARK    8  A    between atoms: C_9  and  C_11
REMARK    9  A    between atoms: C_9  and  C_12
REMARK   10  A    between atoms: C_13  and  C_14
REMARK                            x       y       z     vdW  Elec       q    Type
REMARK                         _______ _______ _______ _____ _____    ______ ____
ROOT
ATOM      1  C   UNL     1      -3.639   8.812  14.226  0.00  0.00    +0.000 C 
ATOM      2  H   UNL     1      -4.543   9.401  14.030  0.00  0.00    +0.000 HD
ATOM      3  H   UNL     1      -3.983   7.790  14.436  0.00  0.00    +0.000 HD
ENDROOT
BRANCH   1   4
ATOM      4  C   UNL     1      -2.767   8.798  12.964  0.00  0.00    +0.000 C 
ATOM      5  H   UNL     1      -2.870   7.837  12.454  0.00  0.00    +0.000 HD
ATOM      6  H   UNL     1      -1.716   8.854  13.276  0.00  0.00    +0.000 HD
BRANCH   4   7
ATOM      7  C   UNL     1      -3.035   9.971  12.062  0.00  0.00    +0.000 C 
ATOM      8  C   UNL     1      -2.395  11.155  12.027  0.00  0.00    +0.000 C 
ATOM      9  H   UNL     1      -3.868   9.823  11.376  0.00  0.00    +0.000 HD
BRANCH   8  10
ATOM     10  C   UNL     1      -2.819  12.218  11.048  0.00  0.00    +0.000 C 
ATOM     11  H   UNL     1      -3.888  12.127  10.829  0.00  0.00    +0.000 HD
ATOM     12  H   UNL     1      -2.643  13.230  11.427  0.00  0.00    +0.000 HD
ATOM     13  H   UNL     1      -2.261  12.114  10.111  0.00  0.00    +0.000 HD
ENDBRANCH   8  10
BRANCH   8  14
ATOM     14  C   UNL     1      -1.235  11.542  12.898  0.00  0.00    +0.000 C 
ATOM     15  H   UNL     1      -0.975  10.714  13.566  0.00  0.00    +0.000 HD
ATOM     16  H   UNL     1      -0.331  11.799  12.343  0.00  0.00    +0.000 HD
ATOM     17  H   UNL     1      -1.501  12.408  13.514  0.00  0.00    +0.000 HD
ENDBRANCH   8  14
ENDBRANCH   4   7
ENDBRANCH   1   4
BRANCH   1  18
ATOM     18  C   UNL     1      -2.940   9.379  15.444  0.00  0.00    +0.000 C 
ATOM     19  C   UNL     1      -1.872   8.824  16.047  0.00  0.00    +0.000 C 
ATOM     20  H   UNL     1      -1.463   7.916  15.607  0.00  0.00    +0.000 HD
BRANCH  18  21
ATOM     21  C   UNL     1      -3.546  10.644  15.999  0.00  0.00    +0.000 C 
ATOM     22  H   UNL     1      -4.634  10.620  15.871  0.00  0.00    +0.000 HD
ATOM     23  H   UNL     1      -3.161  11.520  15.470  0.00  0.00    +0.000 HD
ATOM     24  H   UNL     1      -3.353  10.820  17.058  0.00  0.00    +0.000 HD
ENDBRANCH  18  21
BRANCH  19  25
ATOM     25  C   UNL     1      -1.150   9.305  17.267  0.00  0.00    +0.000 C 
ATOM     26  H   UNL     1      -1.884   9.759  17.944  0.00  0.00    +0.000 HD
ATOM     27  H   UNL     1      -0.403  10.071  17.043  0.00  0.00    +0.000 HD
BRANCH  25  28
ATOM     28  O   UNL     1      -0.551   8.187  17.908  0.00  0.00    +0.000 OA
BRANCH  28  30
ATOM     29  O   UNL     1       1.217   7.725  19.322  0.00  0.00    +0.000 OA
ATOM     30  C   UNL     1       0.683   8.406  18.457  0.00  0.00    +0.000 C 
BRANCH  30  31
ATOM     31  C   UNL     1       1.306   9.622  17.841  0.00  0.00    +0.000 C 
ATOM     32  H   UNL     1       1.629   9.397  16.822  0.00  0.00    +0.000 HD
ATOM     33  H   UNL     1       2.151   9.952  18.449  0.00  0.00    +0.000 HD
ATOM     34  H   UNL     1       0.568  10.428  17.803  0.00  0.00    +0.000 HD
ENDBRANCH  30  31
ENDBRANCH  28  30
ENDBRANCH  25  28
ENDBRANCH  19  25
ENDBRANCH   1  18
TORSDOF 10
ENDMDL
MODEL 10
REMARK VINA RESULT:    -4.328     22.020     24.458
REMARK INTER + INTRA:          -6.727
REMARK INTER:                  -6.356
REMARK INTRA:                  -0.371
REMARK UNBOUND:                -0.376
REMARK  Name = 1549026
REMARK  10 active torsions:
REMARK  status: ('A' for Active; 'I' for Inactive)
REMARK    1  A    between atoms: O_1  and  C_10
REMARK    2  A    between atoms: O_1  and  C_13
REMARK    3  A    between atoms: C_3  and  C_4
REMARK    4  A    between atoms: C_3  and  C_5
REMARK    5  A    between atoms: C_4  and  C_6
REMARK    6  A    between atoms: C_5  and  C_8
REMARK    7  A    between atoms: C_7  and  C_10
REMARK    8  A    between atoms: C_9  and  C_11
REMARK    9  A    between atoms: C_9  and  C_12
REMARK   10  A    between atoms: C_13  and  C_14
REMARK                            x       y       z     vdW  Elec       q    Type
REMARK                         _______ _______ _______ _____ _____    ______ ____
ROOT
ATOM      1  C   UNL     1     -17.882 -11.675   4.485  0.00  0.00    +0.000 C 
ATOM      2  H   UNL     1     -17.622 -12.191   3.553  0.00  0.00    +0.000 HD
ATOM      3  H   UNL     1     -16.946 -11.582   5.051  0.00  0.00    +0.000 HD
ENDROOT
BRANCH   1   4
ATOM      4  C   UNL     1     -18.407 -10.272   4.152  0.00  0.00    +0.000 C 
ATOM      5  H   UNL     1     -18.719  -9.767   5.069  0.00  0.00    +0.000 HD
ATOM      6  H   UNL     1     -19.320 -10.385   3.553  0.00  0.00    +0.000 HD
BRANCH   4   7
ATOM      7  C   UNL     1     -17.429  -9.465   3.343  0.00  0.00    +0.000 C 
ATOM      8  C   UNL     1     -17.198  -9.527   2.018  0.00  0.00    +0.000 C 
ATOM      9  H   UNL     1     -16.836  -8.767   3.931  0.00  0.00    +0.000 HD
BRANCH   8  10
ATOM     10  C   UNL     1     -16.163  -8.634   1.386  0.00  0.00    +0.000 C 
ATOM     11  H   UNL     1     -16.541  -8.226   0.442  0.00  0.00    +0.000 HD
ATOM     12  H   UNL     1     -15.892  -7.788   2.027  0.00  0.00    +0.000 HD
ATOM     13  H   UNL     1     -15.249  -9.200   1.179  0.00  0.00    +0.000 HD
ENDBRANCH   8  10
BRANCH   8  14
ATOM     14  C   UNL     1     -17.909 -10.430   1.052  0.00  0.00    +0.000 C 
ATOM     15  H   UNL     1     -17.916 -11.456   1.434  0.00  0.00    +0.000 HD
ATOM     16  H   UNL     1     -18.948 -10.152   0.867  0.00  0.00    +0.000 HD
ATOM     17  H   UNL     1     -17.391 -10.428   0.086  0.00  0.00    +0.000 HD
ENDBRANCH   8  14
ENDBRANCH   4   7
ENDBRANCH   1   4
BRANCH   1  18
ATOM     18  C   UNL     1     -18.868 -12.528   5.257  0.00  0.00    +0.000 C 
ATOM     19  C   UNL     1     -19.553 -12.120   6.342  0.00  0.00    +0.000 C 
ATOM     20  H   UNL     1     -19.411 -11.090   6.668  0.00  0.00    +0.000 HD
BRANCH  18  21
ATOM     21  C   UNL     1     -19.030 -13.938   4.749  0.00  0.00    +0.000 C 
ATOM     22  H   UNL     1     -20.036 -14.302   4.984  0.00  0.00    +0.000 HD
ATOM     23  H   UNL     1     -18.308 -14.605   5.226  0.00  0.00    +0.000 HD
ATOM     24  H   UNL     1     -18.890 -14.059   3.675  0.00  0.00    +0.000 HD
ENDBRANCH  18  21
BRANCH  19  25
ATOM     25  C   UNL     1     -20.515 -12.909   7.174  0.00  0.00    +0.000 C 
ATOM     26  H   UNL     1     -20.173 -12.879   8.216  0.00  0.00    +0.000 HD
ATOM     27  H   UNL     1     -20.564 -13.962   6.883  0.00  0.00    +0.000 HD
BRANCH  25  28
ATOM     28  O   UNL     1     -21.796 -12.299   7.085  0.00  0.00    +0.000 OA
BRANCH  28  30
ATOM     29  O   UNL     1     -22.974 -14.034   8.055  0.00  0.00    +0.000 OA
ATOM     30  C   UNL     1     -22.866 -13.140   7.227  0.00  0.00    +0.000 C 
BRANCH  30  31
ATOM     31  C   UNL     1     -23.912 -12.809   6.206  0.00  0.00    +0.000 C 
ATOM     32  H   UNL     1     -24.904 -12.863   6.661  0.00  0.00    +0.000 HD
ATOM     33  H   UNL     1     -23.837 -13.499   5.363  0.00  0.00    +0.000 HD
ATOM     34  H   UNL     1     -23.753 -11.791   5.839  0.00  0.00    +0.000 HD
ENDBRANCH  30  31
ENDBRANCH  28  30
ENDBRANCH  25  28
ENDBRANCH  19  25
ENDBRANCH   1  18
TORSDOF 10
ENDMDL
