MODEL 1
REMARK VINA RESULT:    -5.479      0.000      0.000
REMARK INTER + INTRA:          -6.791
REMARK INTER:                  -6.410
REMARK INTRA:                  -0.380
REMARK UNBOUND:                -0.511
REMARK  Name = 4763
REMARK  3 active torsions:
REMARK  status: ('A' for Active; 'I' for Inactive)
REMARK    1  A    between atoms: C_6  and  C_7
REMARK    2  A    between atoms: C_6  and  C_8
REMARK    3  A    between atoms: C_7  and  C_11
REMARK                            x       y       z     vdW  Elec       q    Type
REMARK                         _______ _______ _______ _____ _____    ______ ____
ROOT
ATOM      1  O   UNL     1     -16.032 -12.874   0.426  0.00  0.00    +0.000 OA
ATOM      2  O   UNL     1     -16.272  -8.141   1.151  0.00  0.00    +0.000 OA
ATOM      3  O   UNL     1     -16.382 -11.109   4.639  0.00  0.00    +0.000 OA
ATOM      4  N   UNL     1     -16.247 -11.964   2.513  0.00  0.00    +0.000 N 
ATOM      5  N   UNL     1     -16.362  -9.650   2.868  0.00  0.00    +0.000 N 
ATOM      6  C   UNL     1     -16.399 -10.482   0.538  0.00  0.00    +0.000 C 
ATOM      7  C   UNL     1     -16.197 -11.878   1.134  0.00  0.00    +0.000 C 
ATOM      8  C   UNL     1     -16.326  -9.314   1.526  0.00  0.00    +0.000 C 
ATOM      9  C   UNL     1     -16.341 -10.921   3.422  0.00  0.00    +0.000 C 
ATOM     10  H   UNL     1     -16.175 -12.897   2.908  0.00  0.00    +0.000 HD
ATOM     11  H   UNL     1     -16.375  -8.874   3.525  0.00  0.00    +0.000 HD
ENDROOT
BRANCH   6  12
ATOM     12  C   UNL     1     -17.730 -10.442  -0.159  0.00  0.00    +0.000 A 
ATOM     13  C   UNL     1     -17.849  -9.781  -1.375  0.00  0.00    +0.000 A 
ATOM     14  C   UNL     1     -18.826 -11.069   0.420  0.00  0.00    +0.000 A 
ATOM     15  C   UNL     1     -19.084  -9.744  -2.021  0.00  0.00    +0.000 A 
ATOM     16  C   UNL     1     -20.061 -11.033  -0.227  0.00  0.00    +0.000 A 
ATOM     17  C   UNL     1     -20.191 -10.370  -1.448  0.00  0.00    +0.000 A 
ATOM     18  H   UNL     1     -17.002  -9.283  -1.839  0.00  0.00    +0.000 HD
ATOM     19  H   UNL     1     -18.823 -11.607   1.359  0.00  0.00    +0.000 HD
ATOM     20  H   UNL     1     -19.184  -9.227  -2.972  0.00  0.00    +0.000 HD
ATOM     21  H   UNL     1     -20.924 -11.520   0.218  0.00  0.00    +0.000 HD
ATOM     22  H   UNL     1     -21.152 -10.342  -1.951  0.00  0.00    +0.000 HD
ENDBRANCH   6  12
BRANCH   6  23
ATOM     23  C   UNL     1     -15.291 -10.266  -0.502  0.00  0.00    +0.000 C 
ATOM     24  H   UNL     1     -15.402  -9.315  -1.041  0.00  0.00    +0.000 HD
ATOM     25  H   UNL     1     -15.250 -11.077  -1.242  0.00  0.00    +0.000 HD
BRANCH  23  26
ATOM     26  C   UNL     1     -13.926 -10.249   0.150  0.00  0.00    +0.000 C 
ATOM     27  H   UNL     1     -13.677 -11.204   0.623  0.00  0.00    +0.000 HD
ATOM     28  H   UNL     1     -13.125  -9.995  -0.551  0.00  0.00    +0.000 HD
ATOM     29  H   UNL     1     -13.906  -9.489   0.940  0.00  0.00    +0.000 HD
ENDBRANCH  23  26
ENDBRANCH   6  23
TORSDOF 3
ENDMDL
MODEL 2
REMARK VINA RESULT:    -5.419     27.038     28.929
REMARK INTER + INTRA:          -6.723
REMARK INTER:                  -6.214
REMARK INTRA:                  -0.508
REMARK UNBOUND:                -0.511
REMARK  Name = 4763
REMARK  3 active torsions:
REMARK  status: ('A' for Active; 'I' for Inactive)
REMARK    1  A    between atoms: C_6  and  C_7
REMARK    2  A    between atoms: C_6  and  C_8
REMARK    3  A    between atoms: C_7  and  C_11
REMARK                            x       y       z     vdW  Elec       q    Type
REMARK                         _______ _______ _______ _____ _____    ______ ____
ROOT
ATOM      1  O   UNL     1      -3.095  11.548  10.620  0.00  0.00    +0.000 OA
ATOM      2  O   UNL     1       0.796  11.224  13.400  0.00  0.00    +0.000 OA
ATOM      3  O   UNL     1       0.999  10.438   8.891  0.00  0.00    +0.000 OA
ATOM      4  N   UNL     1      -1.046  10.958   9.795  0.00  0.00    +0.000 N 
ATOM      5  N   UNL     1       0.857  10.802  11.152  0.00  0.00    +0.000 N 
ATOM      6  C   UNL     1      -1.330  11.190  12.241  0.00  0.00    +0.000 C 
ATOM      7  C   UNL     1      -1.913  11.264  10.827  0.00  0.00    +0.000 C 
ATOM      8  C   UNL     1       0.194  11.090  12.333  0.00  0.00    +0.000 C 
ATOM      9  C   UNL     1       0.315  10.707   9.880  0.00  0.00    +0.000 C 
ATOM     10  H   UNL     1      -1.446  10.945   8.860  0.00  0.00    +0.000 HD
ATOM     11  H   UNL     1       1.864  10.674  11.222  0.00  0.00    +0.000 HD
ENDROOT
BRANCH   6  12
ATOM     12  C   UNL     1      -1.936  10.012  12.952  0.00  0.00    +0.000 A 
ATOM     13  C   UNL     1      -2.519  10.190  14.200  0.00  0.00    +0.000 A 
ATOM     14  C   UNL     1      -1.907   8.760  12.352  0.00  0.00    +0.000 A 
ATOM     15  C   UNL     1      -3.081   9.097  14.859  0.00  0.00    +0.000 A 
ATOM     16  C   UNL     1      -2.468   7.667  13.011  0.00  0.00    +0.000 A 
ATOM     17  C   UNL     1      -3.056   7.835  14.266  0.00  0.00    +0.000 A 
ATOM     18  H   UNL     1      -2.547  11.161  14.684  0.00  0.00    +0.000 HD
ATOM     19  H   UNL     1      -1.477   8.533  11.385  0.00  0.00    +0.000 HD
ATOM     20  H   UNL     1      -3.538   9.228  15.836  0.00  0.00    +0.000 HD
ATOM     21  H   UNL     1      -2.451   6.684  12.549  0.00  0.00    +0.000 HD
ATOM     22  H   UNL     1      -3.494   6.984  14.778  0.00  0.00    +0.000 HD
ENDBRANCH   6  12
BRANCH   6  23
ATOM     23  C   UNL     1      -1.746  12.474  12.972  0.00  0.00    +0.000 C 
ATOM     24  H   UNL     1      -1.392  12.497  14.012  0.00  0.00    +0.000 HD
ATOM     25  H   UNL     1      -2.835  12.618  12.977  0.00  0.00    +0.000 HD
BRANCH  23  26
ATOM     26  C   UNL     1      -1.183  13.699  12.285  0.00  0.00    +0.000 C 
ATOM     27  H   UNL     1      -0.252  13.488  11.749  0.00  0.00    +0.000 HD
ATOM     28  H   UNL     1      -1.889  14.151  11.581  0.00  0.00    +0.000 HD
ATOM     29  H   UNL     1      -0.951  14.465  13.034  0.00  0.00    +0.000 HD
ENDBRANCH  23  26
ENDBRANCH   6  23
TORSDOF 3
ENDMDL
MODEL 3
REMARK VINA RESULT:    -5.369     33.562     35.452
REMARK INTER + INTRA:          -6.665
REMARK INTER:                  -6.166
REMARK INTRA:                  -0.499
REMARK UNBOUND:                -0.511
REMARK  Name = 4763
REMARK  3 active torsions:
REMARK  status: ('A' for Active; 'I' for Inactive)
REMARK    1  A    between atoms: C_6  and  C_7
REMARK    2  A    between atoms: C_6  and  C_8
REMARK    3  A    between atoms: C_7  and  C_11
REMARK                            x       y       z     vdW  Elec       q    Type
REMARK                         _______ _______ _______ _____ _____    ______ ____
ROOT
ATOM      1  O   UNL     1       6.393 -11.833 -28.509  0.00  0.00    +0.000 OA
ATOM      2  O   UNL     1       6.120 -14.102 -24.295  0.00  0.00    +0.000 OA
ATOM      3  O   UNL     1       3.324 -15.153 -27.770  0.00  0.00    +0.000 OA
ATOM      4  N   UNL     1       4.847 -13.467 -28.096  0.00  0.00    +0.000 N 
ATOM      5  N   UNL     1       4.715 -14.578 -26.037  0.00  0.00    +0.000 N 
ATOM      6  C   UNL     1       6.262 -12.658 -26.235  0.00  0.00    +0.000 C 
ATOM      7  C   UNL     1       5.864 -12.611 -27.713  0.00  0.00    +0.000 C 
ATOM      8  C   UNL     1       5.717 -13.841 -25.430  0.00  0.00    +0.000 C 
ATOM      9  C   UNL     1       4.229 -14.442 -27.328  0.00  0.00    +0.000 C 
ATOM     10  H   UNL     1       4.539 -13.394 -29.061  0.00  0.00    +0.000 HD
ATOM     11  H   UNL     1       4.308 -15.326 -25.481  0.00  0.00    +0.000 HD
ENDROOT
BRANCH   6  12
ATOM     12  C   UNL     1       5.822 -11.381 -25.575  0.00  0.00    +0.000 A 
ATOM     13  C   UNL     1       4.481 -11.199 -25.259  0.00  0.00    +0.000 A 
ATOM     14  C   UNL     1       6.760 -10.398 -25.287  0.00  0.00    +0.000 A 
ATOM     15  C   UNL     1       4.073 -10.015 -24.647  0.00  0.00    +0.000 A 
ATOM     16  C   UNL     1       6.351  -9.214 -24.675  0.00  0.00    +0.000 A 
ATOM     17  C   UNL     1       5.006  -9.022 -24.354  0.00  0.00    +0.000 A 
ATOM     18  H   UNL     1       3.735 -11.957 -25.480  0.00  0.00    +0.000 HD
ATOM     19  H   UNL     1       7.820 -10.457 -25.496  0.00  0.00    +0.000 HD
ATOM     20  H   UNL     1       3.025  -9.865 -24.398  0.00  0.00    +0.000 HD
ATOM     21  H   UNL     1       7.078  -8.440 -24.446  0.00  0.00    +0.000 HD
ATOM     22  H   UNL     1       4.689  -8.100 -23.878  0.00  0.00    +0.000 HD
ENDBRANCH   6  12
BRANCH   6  23
ATOM     23  C   UNL     1       7.794 -12.739 -26.179  0.00  0.00    +0.000 C 
ATOM     24  H   UNL     1       8.178 -12.699 -25.150  0.00  0.00    +0.000 HD
ATOM     25  H   UNL     1       8.276 -11.938 -26.757  0.00  0.00    +0.000 HD
BRANCH  23  26
ATOM     26  C   UNL     1       8.294 -14.030 -26.789  0.00  0.00    +0.000 C 
ATOM     27  H   UNL     1       7.479 -14.704 -27.069  0.00  0.00    +0.000 HD
ATOM     28  H   UNL     1       8.921 -13.865 -27.671  0.00  0.00    +0.000 HD
ATOM     29  H   UNL     1       8.912 -14.566 -26.059  0.00  0.00    +0.000 HD
ENDBRANCH  23  26
ENDBRANCH   6  23
TORSDOF 3
ENDMDL
MODEL 4
REMARK VINA RESULT:    -5.096     15.189     18.340
REMARK INTER + INTRA:          -6.352
REMARK INTER:                  -6.005
REMARK INTRA:                  -0.347
REMARK UNBOUND:                -0.511
REMARK  Name = 4763
REMARK  3 active torsions:
REMARK  status: ('A' for Active; 'I' for Inactive)
REMARK    1  A    between atoms: C_6  and  C_7
REMARK    2  A    between atoms: C_6  and  C_8
REMARK    3  A    between atoms: C_7  and  C_11
REMARK                            x       y       z     vdW  Elec       q    Type
REMARK                         _______ _______ _______ _____ _____    ______ ____
ROOT
ATOM      1  O   UNL     1     -17.551 -14.799  18.505  0.00  0.00    +0.000 OA
ATOM      2  O   UNL     1     -14.878 -10.836  18.148  0.00  0.00    +0.000 OA
ATOM      3  O   UNL     1     -16.704 -12.837  14.453  0.00  0.00    +0.000 OA
ATOM      4  N   UNL     1     -17.077 -13.818  16.495  0.00  0.00    +0.000 N 
ATOM      5  N   UNL     1     -15.773 -11.879  16.319  0.00  0.00    +0.000 N 
ATOM      6  C   UNL     1     -15.970 -12.963  18.535  0.00  0.00    +0.000 C 
ATOM      7  C   UNL     1     -16.945 -13.937  17.866  0.00  0.00    +0.000 C 
ATOM      8  C   UNL     1     -15.498 -11.790  17.673  0.00  0.00    +0.000 C 
ATOM      9  C   UNL     1     -16.524 -12.848  15.672  0.00  0.00    +0.000 C 
ATOM     10  H   UNL     1     -17.675 -14.503  16.040  0.00  0.00    +0.000 HD
ATOM     11  H   UNL     1     -15.407 -11.131  15.736  0.00  0.00    +0.000 HD
ENDROOT
BRANCH   6  12
ATOM     12  C   UNL     1     -14.768 -13.731  19.007  0.00  0.00    +0.000 A 
ATOM     13  C   UNL     1     -14.178 -13.404  20.221  0.00  0.00    +0.000 A 
ATOM     14  C   UNL     1     -14.261 -14.760  18.224  0.00  0.00    +0.000 A 
ATOM     15  C   UNL     1     -13.062 -14.117  20.659  0.00  0.00    +0.000 A 
ATOM     16  C   UNL     1     -13.145 -15.473  18.662  0.00  0.00    +0.000 A 
ATOM     17  C   UNL     1     -12.545 -15.152  19.880  0.00  0.00    +0.000 A 
ATOM     18  H   UNL     1     -14.560 -12.600  20.843  0.00  0.00    +0.000 HD
ATOM     19  H   UNL     1     -14.658 -15.082  17.271  0.00  0.00    +0.000 HD
ATOM     20  H   UNL     1     -12.594 -13.866  21.607  0.00  0.00    +0.000 HD
ATOM     21  H   UNL     1     -12.742 -16.281  18.057  0.00  0.00    +0.000 HD
ATOM     22  H   UNL     1     -11.677 -15.707  20.221  0.00  0.00    +0.000 HD
ENDBRANCH   6  12
BRANCH   6  23
ATOM     23  C   UNL     1     -16.687 -12.370  19.756  0.00  0.00    +0.000 C 
ATOM     24  H   UNL     1     -16.063 -11.644  20.295  0.00  0.00    +0.000 HD
ATOM     25  H   UNL     1     -17.008 -13.143  20.468  0.00  0.00    +0.000 HD
BRANCH  23  26
ATOM     26  C   UNL     1     -17.954 -11.649  19.348  0.00  0.00    +0.000 C 
ATOM     27  H   UNL     1     -18.532 -12.208  18.606  0.00  0.00    +0.000 HD
ATOM     28  H   UNL     1     -18.607 -11.430  20.198  0.00  0.00    +0.000 HD
ATOM     29  H   UNL     1     -17.697 -10.687  18.891  0.00  0.00    +0.000 HD
ENDBRANCH  23  26
ENDBRANCH   6  23
TORSDOF 3
ENDMDL
MODEL 5
REMARK VINA RESULT:    -4.977     33.934     35.797
REMARK INTER + INTRA:          -6.216
REMARK INTER:                  -5.719
REMARK INTRA:                  -0.497
REMARK UNBOUND:                -0.511
REMARK  Name = 4763
REMARK  3 active torsions:
REMARK  status: ('A' for Active; 'I' for Inactive)
REMARK    1  A    between atoms: C_6  and  C_7
REMARK    2  A    between atoms: C_6  and  C_8
REMARK    3  A    between atoms: C_7  and  C_11
REMARK                            x       y       z     vdW  Elec       q    Type
REMARK                         _______ _______ _______ _____ _____    ______ ____
ROOT
ATOM      1  O   UNL     1       5.552 -14.105 -24.369  0.00  0.00    +0.000 OA
ATOM      2  O   UNL     1       6.524 -11.953 -28.540  0.00  0.00    +0.000 OA
ATOM      3  O   UNL     1       9.651 -14.508 -26.376  0.00  0.00    +0.000 OA
ATOM      4  N   UNL     1       7.599 -14.254 -25.376  0.00  0.00    +0.000 N 
ATOM      5  N   UNL     1       8.075 -13.205 -27.417  0.00  0.00    +0.000 N 
ATOM      6  C   UNL     1       5.903 -12.728 -26.331  0.00  0.00    +0.000 C 
ATOM      7  C   UNL     1       6.313 -13.759 -25.276  0.00  0.00    +0.000 C 
ATOM      8  C   UNL     1       6.838 -12.594 -27.536  0.00  0.00    +0.000 C 
ATOM      9  C   UNL     1       8.520 -14.016 -26.385  0.00  0.00    +0.000 C 
ATOM     10  H   UNL     1       7.894 -14.892 -24.642  0.00  0.00    +0.000 HD
ATOM     11  H   UNL     1       8.720 -13.066 -28.190  0.00  0.00    +0.000 HD
ENDROOT
BRANCH   6  12
ATOM     12  C   UNL     1       5.774 -11.385 -25.669  0.00  0.00    +0.000 A 
ATOM     13  C   UNL     1       4.512 -10.878 -25.384  0.00  0.00    +0.000 A 
ATOM     14  C   UNL     1       6.918 -10.666 -25.347  0.00  0.00    +0.000 A 
ATOM     15  C   UNL     1       4.393  -9.632 -24.769  0.00  0.00    +0.000 A 
ATOM     16  C   UNL     1       6.799  -9.420 -24.732  0.00  0.00    +0.000 A 
ATOM     17  C   UNL     1       5.535  -8.902 -24.443  0.00  0.00    +0.000 A 
ATOM     18  H   UNL     1       3.608 -11.426 -25.632  0.00  0.00    +0.000 HD
ATOM     19  H   UNL     1       7.936 -10.984 -25.530  0.00  0.00    +0.000 HD
ATOM     20  H   UNL     1       3.409  -9.229 -24.545  0.00  0.00    +0.000 HD
ATOM     21  H   UNL     1       7.688  -8.850 -24.477  0.00  0.00    +0.000 HD
ATOM     22  H   UNL     1       5.443  -7.933 -23.964  0.00  0.00    +0.000 HD
ENDBRANCH   6  12
BRANCH   6  23
ATOM     23  C   UNL     1       4.528 -13.147 -26.868  0.00  0.00    +0.000 C 
ATOM     24  H   UNL     1       4.146 -12.452 -27.629  0.00  0.00    +0.000 HD
ATOM     25  H   UNL     1       3.776 -13.231 -26.070  0.00  0.00    +0.000 HD
BRANCH  23  26
ATOM     26  C   UNL     1       4.587 -14.517 -27.508  0.00  0.00    +0.000 C 
ATOM     27  H   UNL     1       3.600 -14.985 -27.585  0.00  0.00    +0.000 HD
ATOM     28  H   UNL     1       5.037 -14.499 -28.505  0.00  0.00    +0.000 HD
ATOM     29  H   UNL     1       5.206 -15.182 -26.895  0.00  0.00    +0.000 HD
ENDBRANCH  23  26
ENDBRANCH   6  23
TORSDOF 3
ENDMDL
MODEL 6
REMARK VINA RESULT:    -4.885     33.033     35.055
REMARK INTER + INTRA:          -6.110
REMARK INTER:                  -5.611
REMARK INTRA:                  -0.499
REMARK UNBOUND:                -0.511
REMARK  Name = 4763
REMARK  3 active torsions:
REMARK  status: ('A' for Active; 'I' for Inactive)
REMARK    1  A    between atoms: C_6  and  C_7
REMARK    2  A    between atoms: C_6  and  C_8
REMARK    3  A    between atoms: C_7  and  C_11
REMARK                            x       y       z     vdW  Elec       q    Type
REMARK                         _______ _______ _______ _____ _____    ______ ____
ROOT
ATOM      1  O   UNL     1       3.281  17.207 -10.623  0.00  0.00    +0.000 OA
ATOM      2  O   UNL     1       5.305  14.333  -7.364  0.00  0.00    +0.000 OA
ATOM      3  O   UNL     1       7.813  16.553 -10.490  0.00  0.00    +0.000 OA
ATOM      4  N   UNL     1       5.535  16.829 -10.555  0.00  0.00    +0.000 N 
ATOM      5  N   UNL     1       6.526  15.426  -8.961  0.00  0.00    +0.000 N 
ATOM      6  C   UNL     1       4.056  15.520  -9.066  0.00  0.00    +0.000 C 
ATOM      7  C   UNL     1       4.237  16.600 -10.137  0.00  0.00    +0.000 C 
ATOM      8  C   UNL     1       5.334  15.044  -8.371  0.00  0.00    +0.000 C 
ATOM      9  C   UNL     1       6.699  16.282 -10.037  0.00  0.00    +0.000 C 
ATOM     10  H   UNL     1       5.652  17.500 -11.309  0.00  0.00    +0.000 HD
ATOM     11  H   UNL     1       7.374  15.061  -8.536  0.00  0.00    +0.000 HD
ENDROOT
BRANCH   6  12
ATOM     12  C   UNL     1       3.373  14.334  -9.688  0.00  0.00    +0.000 A 
ATOM     13  C   UNL     1       4.101  13.470 -10.497  0.00  0.00    +0.000 A 
ATOM     14  C   UNL     1       2.024  14.113  -9.445  0.00  0.00    +0.000 A 
ATOM     15  C   UNL     1       3.468  12.369 -11.074  0.00  0.00    +0.000 A 
ATOM     16  C   UNL     1       1.391  13.012 -10.022  0.00  0.00    +0.000 A 
ATOM     17  C   UNL     1       2.113  12.139 -10.837  0.00  0.00    +0.000 A 
ATOM     18  H   UNL     1       5.156  13.631 -10.700  0.00  0.00    +0.000 HD
ATOM     19  H   UNL     1       1.385  14.730  -8.828  0.00  0.00    +0.000 HD
ATOM     20  H   UNL     1       4.031  11.691 -11.710  0.00  0.00    +0.000 HD
ATOM     21  H   UNL     1       0.336  12.831  -9.837  0.00  0.00    +0.000 HD
ATOM     22  H   UNL     1       1.621  11.282 -11.285  0.00  0.00    +0.000 HD
ENDBRANCH   6  12
BRANCH   6  23
ATOM     23  C   UNL     1       3.140  16.104  -7.982  0.00  0.00    +0.000 C 
ATOM     24  H   UNL     1       2.904  15.373  -7.196  0.00  0.00    +0.000 HD
ATOM     25  H   UNL     1       2.194  16.482  -8.394  0.00  0.00    +0.000 HD
BRANCH  23  26
ATOM     26  C   UNL     1       3.785  17.293  -7.304  0.00  0.00    +0.000 C 
ATOM     27  H   UNL     1       3.570  18.235  -7.818  0.00  0.00    +0.000 HD
ATOM     28  H   UNL     1       3.485  17.396  -6.257  0.00  0.00    +0.000 HD
ATOM     29  H   UNL     1       4.875  17.170  -7.310  0.00  0.00    +0.000 HD
ENDBRANCH  23  26
ENDBRANCH   6  23
TORSDOF 3
ENDMDL
MODEL 7
REMARK VINA RESULT:    -4.856     41.686     43.784
REMARK INTER + INTRA:          -6.077
REMARK INTER:                  -5.554
REMARK INTRA:                  -0.522
REMARK UNBOUND:                -0.511
REMARK  Name = 4763
REMARK  3 active torsions:
REMARK  status: ('A' for Active; 'I' for Inactive)
REMARK    1  A    between atoms: C_6  and  C_7
REMARK    2  A    between atoms: C_6  and  C_8
REMARK    3  A    between atoms: C_7  and  C_11
REMARK                            x       y       z     vdW  Elec       q    Type
REMARK                         _______ _______ _______ _____ _____    ______ ____
ROOT
ATOM      1  O   UNL     1      13.008  15.452 -20.552  0.00  0.00    +0.000 OA
ATOM      2  O   UNL     1      14.563  11.016 -19.612  0.00  0.00    +0.000 OA
ATOM      3  O   UNL     1      15.330  13.017 -23.662  0.00  0.00    +0.000 OA
ATOM      4  N   UNL     1      14.135  14.196 -22.096  0.00  0.00    +0.000 N 
ATOM      5  N   UNL     1      14.898  12.029 -21.636  0.00  0.00    +0.000 N 
ATOM      6  C   UNL     1      13.468  13.149 -19.956  0.00  0.00    +0.000 C 
ATOM      7  C   UNL     1      13.517  14.376 -20.872  0.00  0.00    +0.000 C 
ATOM      8  C   UNL     1      14.361  11.974 -20.361  0.00  0.00    +0.000 C 
ATOM      9  C   UNL     1      14.816  13.074 -22.543  0.00  0.00    +0.000 C 
ATOM     10  H   UNL     1      14.115  14.990 -22.730  0.00  0.00    +0.000 HD
ATOM     11  H   UNL     1      15.441  11.221 -21.930  0.00  0.00    +0.000 HD
ENDROOT
BRANCH   6  12
ATOM     12  C   UNL     1      12.046  12.669 -19.869  0.00  0.00    +0.000 A 
ATOM     13  C   UNL     1      11.473  12.025 -20.958  0.00  0.00    +0.000 A 
ATOM     14  C   UNL     1      11.323  12.872 -18.701  0.00  0.00    +0.000 A 
ATOM     15  C   UNL     1      10.154  11.578 -20.878  0.00  0.00    +0.000 A 
ATOM     16  C   UNL     1      10.004  12.425 -18.621  0.00  0.00    +0.000 A 
ATOM     17  C   UNL     1       9.419  11.778 -19.710  0.00  0.00    +0.000 A 
ATOM     18  H   UNL     1      12.023  11.861 -21.880  0.00  0.00    +0.000 HD
ATOM     19  H   UNL     1      11.691  13.359 -17.808  0.00  0.00    +0.000 HD
ATOM     20  H   UNL     1       9.698  11.075 -21.727  0.00  0.00    +0.000 HD
ATOM     21  H   UNL     1       9.431  12.580 -17.711  0.00  0.00    +0.000 HD
ATOM     22  H   UNL     1       8.392  11.431 -19.647  0.00  0.00    +0.000 HD
ENDBRANCH   6  12
BRANCH   6  23
ATOM     23  C   UNL     1      13.921  13.603 -18.562  0.00  0.00    +0.000 C 
ATOM     24  H   UNL     1      13.873  12.793 -17.821  0.00  0.00    +0.000 HD
ATOM     25  H   UNL     1      13.328  14.449 -18.185  0.00  0.00    +0.000 HD
BRANCH  23  26
ATOM     26  C   UNL     1      15.351  14.097 -18.587  0.00  0.00    +0.000 C 
ATOM     27  H   UNL     1      15.799  14.031 -19.583  0.00  0.00    +0.000 HD
ATOM     28  H   UNL     1      15.448  15.129 -18.234  0.00  0.00    +0.000 HD
ATOM     29  H   UNL     1      15.964  13.478 -17.922  0.00  0.00    +0.000 HD
ENDBRANCH  23  26
ENDBRANCH   6  23
TORSDOF 3
ENDMDL
MODEL 8
REMARK VINA RESULT:    -4.769     34.465     36.169
REMARK INTER + INTRA:          -5.977
REMARK INTER:                  -5.473
REMARK INTRA:                  -0.503
REMARK UNBOUND:                -0.511
REMARK  Name = 4763
REMARK  3 active torsions:
REMARK  status: ('A' for Active; 'I' for Inactive)
REMARK    1  A    between atoms: C_6  and  C_7
REMARK    2  A    between atoms: C_6  and  C_8
REMARK    3  A    between atoms: C_7  and  C_11
REMARK                            x       y       z     vdW  Elec       q    Type
REMARK                         _______ _______ _______ _____ _____    ______ ____
ROOT
ATOM      1  O   UNL     1       7.225 -14.562 -25.296  0.00  0.00    +0.000 OA
ATOM      2  O   UNL     1       4.049 -12.644 -28.332  0.00  0.00    +0.000 OA
ATOM      3  O   UNL     1       8.118 -14.178 -29.773  0.00  0.00    +0.000 OA
ATOM      4  N   UNL     1       7.656 -14.320 -27.529  0.00  0.00    +0.000 N 
ATOM      5  N   UNL     1       6.103 -13.385 -29.014  0.00  0.00    +0.000 N 
ATOM      6  C   UNL     1       5.590 -13.332 -26.594  0.00  0.00    +0.000 C 
ATOM      7  C   UNL     1       6.880 -14.134 -26.400  0.00  0.00    +0.000 C 
ATOM      8  C   UNL     1       5.159 -13.096 -28.044  0.00  0.00    +0.000 C 
ATOM      9  C   UNL     1       7.348 -13.968 -28.834  0.00  0.00    +0.000 C 
ATOM     10  H   UNL     1       8.542 -14.798 -27.391  0.00  0.00    +0.000 HD
ATOM     11  H   UNL     1       5.841 -13.172 -29.973  0.00  0.00    +0.000 HD
ENDROOT
BRANCH   6  12
ATOM     12  C   UNL     1       5.743 -12.000 -25.913  0.00  0.00    +0.000 A 
ATOM     13  C   UNL     1       6.855 -11.214 -26.187  0.00  0.00    +0.000 A 
ATOM     14  C   UNL     1       4.770 -11.570 -25.021  0.00  0.00    +0.000 A 
ATOM     15  C   UNL     1       6.997  -9.978 -25.555  0.00  0.00    +0.000 A 
ATOM     16  C   UNL     1       4.912 -10.335 -24.390  0.00  0.00    +0.000 A 
ATOM     17  C   UNL     1       6.026  -9.538 -24.657  0.00  0.00    +0.000 A 
ATOM     18  H   UNL     1       7.626 -11.537 -26.879  0.00  0.00    +0.000 HD
ATOM     19  H   UNL     1       3.874 -12.115 -24.753  0.00  0.00    +0.000 HD
ATOM     20  H   UNL     1       7.865  -9.359 -25.763  0.00  0.00    +0.000 HD
ATOM     21  H   UNL     1       4.155  -9.990 -23.690  0.00  0.00    +0.000 HD
ATOM     22  H   UNL     1       6.135  -8.576 -24.166  0.00  0.00    +0.000 HD
ENDBRANCH   6  12
BRANCH   6  23
ATOM     23  C   UNL     1       4.461 -14.111 -25.906  0.00  0.00    +0.000 C 
ATOM     24  H   UNL     1       3.505 -13.570 -25.928  0.00  0.00    +0.000 HD
ATOM     25  H   UNL     1       4.697 -14.350 -24.859  0.00  0.00    +0.000 HD
BRANCH  23  26
ATOM     26  C   UNL     1       4.231 -15.447 -26.579  0.00  0.00    +0.000 C 
ATOM     27  H   UNL     1       4.381 -15.400 -27.662  0.00  0.00    +0.000 HD
ATOM     28  H   UNL     1       4.872 -16.238 -26.177  0.00  0.00    +0.000 HD
ATOM     29  H   UNL     1       3.195 -15.766 -26.415  0.00  0.00    +0.000 HD
ENDBRANCH  23  26
ENDBRANCH   6  23
TORSDOF 3
ENDMDL
MODEL 9
REMARK VINA RESULT:    -4.711     27.440     29.234
REMARK INTER + INTRA:          -5.911
REMARK INTER:                  -5.402
REMARK INTRA:                  -0.510
REMARK UNBOUND:                -0.511
REMARK  Name = 4763
REMARK  3 active torsions:
REMARK  status: ('A' for Active; 'I' for Inactive)
REMARK    1  A    between atoms: C_6  and  C_7
REMARK    2  A    between atoms: C_6  and  C_8
REMARK    3  A    between atoms: C_7  and  C_11
REMARK                            x       y       z     vdW  Elec       q    Type
REMARK                         _______ _______ _______ _____ _____    ______ ____
ROOT
ATOM      1  O   UNL     1      -3.042  10.327   9.941  0.00  0.00    +0.000 OA
ATOM      2  O   UNL     1       0.516  11.171  13.041  0.00  0.00    +0.000 OA
ATOM      3  O   UNL     1      -3.507   9.463  14.416  0.00  0.00    +0.000 OA
ATOM      4  N   UNL     1      -3.256   9.944  12.185  0.00  0.00    +0.000 N 
ATOM      5  N   UNL     1      -1.517  10.353  13.700  0.00  0.00    +0.000 N 
ATOM      6  C   UNL     1      -1.217  11.069  11.351  0.00  0.00    +0.000 C 
ATOM      7  C   UNL     1      -2.572  10.410  11.077  0.00  0.00    +0.000 C 
ATOM      8  C   UNL     1      -0.644  10.865  12.756  0.00  0.00    +0.000 C 
ATOM      9  C   UNL     1      -2.810   9.898  13.497  0.00  0.00    +0.000 C 
ATOM     10  H   UNL     1      -4.182   9.562  12.013  0.00  0.00    +0.000 HD
ATOM     11  H   UNL     1      -1.157  10.274  14.648  0.00  0.00    +0.000 HD
ENDROOT
BRANCH   6  12
ATOM     12  C   UNL     1      -1.336  12.544  11.087  0.00  0.00    +0.000 A 
ATOM     13  C   UNL     1      -2.020  13.349  11.990  0.00  0.00    +0.000 A 
ATOM     14  C   UNL     1      -0.760  13.086   9.946  0.00  0.00    +0.000 A 
ATOM     15  C   UNL     1      -2.130  14.718  11.746  0.00  0.00    +0.000 A 
ATOM     16  C   UNL     1      -0.871  14.455   9.701  0.00  0.00    +0.000 A 
ATOM     17  C   UNL     1      -1.556  15.272  10.602  0.00  0.00    +0.000 A 
ATOM     18  H   UNL     1      -2.479  12.941  12.886  0.00  0.00    +0.000 HD
ATOM     19  H   UNL     1      -0.210  12.535   9.194  0.00  0.00    +0.000 HD
ATOM     20  H   UNL     1      -2.665  15.354  12.447  0.00  0.00    +0.000 HD
ATOM     21  H   UNL     1      -0.423  14.887   8.811  0.00  0.00    +0.000 HD
ATOM     22  H   UNL     1      -1.642  16.337  10.412  0.00  0.00    +0.000 HD
ENDBRANCH   6  12
BRANCH   6  23
ATOM     23  C   UNL     1      -0.211  10.470  10.359  0.00  0.00    +0.000 C 
ATOM     24  H   UNL     1       0.773  10.956  10.417  0.00  0.00    +0.000 HD
ATOM     25  H   UNL     1      -0.563  10.531   9.320  0.00  0.00    +0.000 HD
BRANCH  23  26
ATOM     26  C   UNL     1       0.005   8.996  10.624  0.00  0.00    +0.000 C 
ATOM     27  H   UNL     1       0.595   8.816  11.528  0.00  0.00    +0.000 HD
ATOM     28  H   UNL     1      -0.934   8.440  10.710  0.00  0.00    +0.000 HD
ATOM     29  H   UNL     1       0.560   8.551   9.790  0.00  0.00    +0.000 HD
ENDBRANCH  23  26
ENDBRANCH   6  23
TORSDOF 3
ENDMDL
MODEL 10
REMARK VINA RESULT:    -4.686     28.277     29.943
REMARK INTER + INTRA:          -5.883
REMARK INTER:                  -5.371
REMARK INTRA:                  -0.511
REMARK UNBOUND:                -0.511
REMARK  Name = 4763
REMARK  3 active torsions:
REMARK  status: ('A' for Active; 'I' for Inactive)
REMARK    1  A    between atoms: C_6  and  C_7
REMARK    2  A    between atoms: C_6  and  C_8
REMARK    3  A    between atoms: C_7  and  C_11
REMARK                            x       y       z     vdW  Elec       q    Type
REMARK                         _______ _______ _______ _____ _____    ______ ____
ROOT
ATOM      1  O   UNL     1      -2.768   3.147 -22.873  0.00  0.00    +0.000 OA
ATOM      2  O   UNL     1       0.996   0.899 -20.936  0.00  0.00    +0.000 OA
ATOM      3  O   UNL     1      -1.887  -1.259 -23.768  0.00  0.00    +0.000 OA
ATOM      4  N   UNL     1      -2.323   0.939 -23.269  0.00  0.00    +0.000 N 
ATOM      5  N   UNL     1      -0.482  -0.160 -22.324  0.00  0.00    +0.000 N 
ATOM      6  C   UNL     1      -0.972   2.151 -21.588  0.00  0.00    +0.000 C 
ATOM      7  C   UNL     1      -2.091   2.145 -22.634  0.00  0.00    +0.000 C 
ATOM      8  C   UNL     1      -0.051   0.928 -21.585  0.00  0.00    +0.000 C 
ATOM      9  C   UNL     1      -1.589  -0.232 -23.155  0.00  0.00    +0.000 C 
ATOM     10  H   UNL     1      -3.105   0.916 -23.917  0.00  0.00    +0.000 HD
ATOM     11  H   UNL     1       0.097  -0.994 -22.274  0.00  0.00    +0.000 HD
ENDROOT
BRANCH   6  12
ATOM     12  C   UNL     1      -1.587   2.295 -20.224  0.00  0.00    +0.000 A 
ATOM     13  C   UNL     1      -1.138   3.296 -19.372  0.00  0.00    +0.000 A 
ATOM     14  C   UNL     1      -2.599   1.428 -19.832  0.00  0.00    +0.000 A 
ATOM     15  C   UNL     1      -1.709   3.431 -18.106  0.00  0.00    +0.000 A 
ATOM     16  C   UNL     1      -3.170   1.563 -18.567  0.00  0.00    +0.000 A 
ATOM     17  C   UNL     1      -2.725   2.565 -17.703  0.00  0.00    +0.000 A 
ATOM     18  H   UNL     1      -0.346   3.980 -19.661  0.00  0.00    +0.000 HD
ATOM     19  H   UNL     1      -3.009   0.626 -20.430  0.00  0.00    +0.000 HD
ATOM     20  H   UNL     1      -1.362   4.210 -17.434  0.00  0.00    +0.000 HD
ATOM     21  H   UNL     1      -3.962   0.889 -18.252  0.00  0.00    +0.000 HD
ATOM     22  H   UNL     1      -3.170   2.669 -16.718  0.00  0.00    +0.000 HD
ENDBRANCH   6  12
BRANCH   6  23
ATOM     23  C   UNL     1      -0.095   3.379 -21.866  0.00  0.00    +0.000 C 
ATOM     24  H   UNL     1       0.695   3.508 -21.114  0.00  0.00    +0.000 HD
ATOM     25  H   UNL     1      -0.681   4.308 -21.913  0.00  0.00    +0.000 HD
BRANCH  23  26
ATOM     26  C   UNL     1       0.587   3.268 -23.213  0.00  0.00    +0.000 C 
ATOM     27  H   UNL     1       0.876   4.243 -23.616  0.00  0.00    +0.000 HD
ATOM     28  H   UNL     1       1.476   2.631 -23.184  0.00  0.00    +0.000 HD
ATOM     29  H   UNL     1      -0.101   2.817 -23.936  0.00  0.00    +0.000 HD
ENDBRANCH  23  26
ENDBRANCH   6  23
TORSDOF 3
ENDMDL
