MODEL 1
REMARK VINA RESULT:    -4.536      0.000      0.000
REMARK INTER + INTRA:          -5.941
REMARK INTER:                  -5.842
REMARK INTRA:                  -0.099
REMARK UNBOUND:                -0.079
REMARK  Name = 8892
REMARK  6 active torsions:
REMARK  status: ('A' for Active; 'I' for Inactive)
REMARK    1  A    between atoms: O_1  and  C_8
REMARK    2  A    between atoms: C_3  and  C_4
REMARK    3  A    between atoms: C_3  and  C_5
REMARK    4  A    between atoms: C_4  and  C_6
REMARK    5  A    between atoms: C_5  and  C_7
REMARK    6  A    between atoms: C_6  and  C_8
REMARK                            x       y       z     vdW  Elec       q    Type
REMARK                         _______ _______ _______ _____ _____    ______ ____
ROOT
ATOM      1  C   UNL     1       6.098   0.040  -3.263  0.00  0.00    +0.000 C 
ATOM      2  H   UNL     1       6.995  -0.278  -3.811  0.00  0.00    +0.000 HD
ATOM      3  H   UNL     1       6.426   0.810  -2.553  0.00  0.00    +0.000 HD
ENDROOT
BRANCH   1   4
ATOM      4  C   UNL     1       5.560  -1.154  -2.469  0.00  0.00    +0.000 C 
ATOM      5  H   UNL     1       5.341  -0.835  -1.442  0.00  0.00    +0.000 HD
ATOM      6  H   UNL     1       4.603  -1.466  -2.905  0.00  0.00    +0.000 HD
BRANCH   4   7
ATOM      7  C   UNL     1       6.520  -2.343  -2.433  0.00  0.00    +0.000 C 
ATOM      8  H   UNL     1       6.802  -2.623  -3.454  0.00  0.00    +0.000 HD
ATOM      9  H   UNL     1       6.032  -3.196  -1.949  0.00  0.00    +0.000 HD
BRANCH   7  11
ATOM     10  O   UNL     1       7.840  -1.339  -0.649  0.00  0.00    +0.000 OA
ATOM     11  C   UNL     1       7.780  -2.026  -1.660  0.00  0.00    +0.000 C 
BRANCH  11  12
ATOM     12  O   UNL     1       8.871  -2.598  -2.234  0.00  0.00    +0.000 OA
ATOM     13  H   UNL     1       9.453  -1.931  -2.657  0.00  0.00    +0.000 HD
ENDBRANCH  11  12
ENDBRANCH   7  11
ENDBRANCH   4   7
ENDBRANCH   1   4
BRANCH   1  14
ATOM     14  C   UNL     1       5.117   0.676  -4.250  0.00  0.00    +0.000 C 
ATOM     15  H   UNL     1       5.204   1.768  -4.192  0.00  0.00    +0.000 HD
ATOM     16  H   UNL     1       4.092   0.423  -3.954  0.00  0.00    +0.000 HD
BRANCH  14  17
ATOM     17  C   UNL     1       5.339   0.243  -5.691  0.00  0.00    +0.000 C 
ATOM     18  H   UNL     1       5.625   1.102  -6.306  0.00  0.00    +0.000 HD
ATOM     19  H   UNL     1       6.136  -0.504  -5.756  0.00  0.00    +0.000 HD
ATOM     20  H   UNL     1       4.427  -0.190  -6.112  0.00  0.00    +0.000 HD
ENDBRANCH  14  17
ENDBRANCH   1  14
TORSDOF 6
ENDMDL
MODEL 2
REMARK VINA RESULT:    -4.374      9.001      9.700
REMARK INTER + INTRA:          -5.731
REMARK INTER:                  -5.628
REMARK INTRA:                  -0.103
REMARK UNBOUND:                -0.079
REMARK  Name = 8892
REMARK  6 active torsions:
REMARK  status: ('A' for Active; 'I' for Inactive)
REMARK    1  A    between atoms: O_1  and  C_8
REMARK    2  A    between atoms: C_3  and  C_4
REMARK    3  A    between atoms: C_3  and  C_5
REMARK    4  A    between atoms: C_4  and  C_6
REMARK    5  A    between atoms: C_5  and  C_7
REMARK    6  A    between atoms: C_6  and  C_8
REMARK                            x       y       z     vdW  Elec       q    Type
REMARK                         _______ _______ _______ _____ _____    ______ ____
ROOT
ATOM      1  C   UNL     1       9.686   7.640  -3.272  0.00  0.00    +0.000 C 
ATOM      2  H   UNL     1       9.365   8.667  -3.054  0.00  0.00    +0.000 HD
ATOM      3  H   UNL     1       8.806   7.002  -3.117  0.00  0.00    +0.000 HD
ENDROOT
BRANCH   1   4
ATOM      4  C   UNL     1      10.762   7.236  -2.261  0.00  0.00    +0.000 C 
ATOM      5  H   UNL     1      10.599   6.195  -1.956  0.00  0.00    +0.000 HD
ATOM      6  H   UNL     1      11.741   7.263  -2.756  0.00  0.00    +0.000 HD
BRANCH   4   7
ATOM      7  C   UNL     1      10.791   8.125  -1.017  0.00  0.00    +0.000 C 
ATOM      8  H   UNL     1      10.925   9.171  -1.312  0.00  0.00    +0.000 HD
ATOM      9  H   UNL     1      11.623   7.826  -0.370  0.00  0.00    +0.000 HD
BRANCH   7  11
ATOM     10  O   UNL     1       9.100   6.999   0.326  0.00  0.00    +0.000 OA
ATOM     11  C   UNL     1       9.513   8.015  -0.216  0.00  0.00    +0.000 C 
BRANCH  11  12
ATOM     12  O   UNL     1       8.853   9.202  -0.171  0.00  0.00    +0.000 OA
ATOM     13  H   UNL     1       7.890   9.090  -0.322  0.00  0.00    +0.000 HD
ENDBRANCH  11  12
ENDBRANCH   7  11
ENDBRANCH   4   7
ENDBRANCH   1   4
BRANCH   1  14
ATOM     14  C   UNL     1      10.094   7.553  -4.744  0.00  0.00    +0.000 C 
ATOM     15  H   UNL     1      10.901   6.818  -4.853  0.00  0.00    +0.000 HD
ATOM     16  H   UNL     1      10.502   8.520  -5.064  0.00  0.00    +0.000 HD
BRANCH  14  17
ATOM     17  C   UNL     1       8.952   7.167  -5.670  0.00  0.00    +0.000 C 
ATOM     18  H   UNL     1       8.050   7.734  -5.418  0.00  0.00    +0.000 HD
ATOM     19  H   UNL     1       9.207   7.377  -6.714  0.00  0.00    +0.000 HD
ATOM     20  H   UNL     1       8.721   6.102  -5.581  0.00  0.00    +0.000 HD
ENDBRANCH  14  17
ENDBRANCH   1  14
TORSDOF 6
ENDMDL
MODEL 3
REMARK VINA RESULT:    -4.300      1.598      2.090
REMARK INTER + INTRA:          -5.636
REMARK INTER:                  -5.532
REMARK INTRA:                  -0.104
REMARK UNBOUND:                -0.079
REMARK  Name = 8892
REMARK  6 active torsions:
REMARK  status: ('A' for Active; 'I' for Inactive)
REMARK    1  A    between atoms: O_1  and  C_8
REMARK    2  A    between atoms: C_3  and  C_4
REMARK    3  A    between atoms: C_3  and  C_5
REMARK    4  A    between atoms: C_4  and  C_6
REMARK    5  A    between atoms: C_5  and  C_7
REMARK    6  A    between atoms: C_6  and  C_8
REMARK                            x       y       z     vdW  Elec       q    Type
REMARK                         _______ _______ _______ _____ _____    ______ ____
ROOT
ATOM      1  C   UNL     1       5.972  -0.356  -3.103  0.00  0.00    +0.000 C 
ATOM      2  H   UNL     1       6.488   0.246  -2.342  0.00  0.00    +0.000 HD
ATOM      3  H   UNL     1       5.238  -0.969  -2.564  0.00  0.00    +0.000 HD
ENDROOT
BRANCH   1   4
ATOM      4  C   UNL     1       6.989  -1.287  -3.767  0.00  0.00    +0.000 C 
ATOM      5  H   UNL     1       6.976  -2.258  -3.258  0.00  0.00    +0.000 HD
ATOM      6  H   UNL     1       6.673  -1.476  -4.800  0.00  0.00    +0.000 HD
BRANCH   4   7
ATOM      7  C   UNL     1       8.415  -0.734  -3.759  0.00  0.00    +0.000 C 
ATOM      8  H   UNL     1       8.477   0.121  -3.077  0.00  0.00    +0.000 HD
ATOM      9  H   UNL     1       8.690  -0.408  -4.768  0.00  0.00    +0.000 HD
BRANCH   7  11
ATOM     10  O   UNL     1      10.535  -1.933  -3.790  0.00  0.00    +0.000 OA
ATOM     11  C   UNL     1       9.419  -1.774  -3.314  0.00  0.00    +0.000 C 
BRANCH  11  12
ATOM     12  O   UNL     1       8.927  -2.538  -2.303  0.00  0.00    +0.000 OA
ATOM     13  H   UNL     1       8.174  -2.102  -1.849  0.00  0.00    +0.000 HD
ENDBRANCH  11  12
ENDBRANCH   7  11
ENDBRANCH   4   7
ENDBRANCH   1   4
BRANCH   1  14
ATOM     14  C   UNL     1       5.219   0.585  -4.046  0.00  0.00    +0.000 C 
ATOM     15  H   UNL     1       5.582   1.609  -3.901  0.00  0.00    +0.000 HD
ATOM     16  H   UNL     1       4.154   0.586  -3.781  0.00  0.00    +0.000 HD
BRANCH  14  17
ATOM     17  C   UNL     1       5.363   0.217  -5.514  0.00  0.00    +0.000 C 
ATOM     18  H   UNL     1       6.033   0.921  -6.019  0.00  0.00    +0.000 HD
ATOM     19  H   UNL     1       5.780  -0.789  -5.626  0.00  0.00    +0.000 HD
ATOM     20  H   UNL     1       4.394   0.246  -6.020  0.00  0.00    +0.000 HD
ENDBRANCH  14  17
ENDBRANCH   1  14
TORSDOF 6
ENDMDL
MODEL 4
REMARK VINA RESULT:    -4.297     10.062     10.586
REMARK INTER + INTRA:          -5.632
REMARK INTER:                  -5.557
REMARK INTRA:                  -0.075
REMARK UNBOUND:                -0.079
REMARK  Name = 8892
REMARK  6 active torsions:
REMARK  status: ('A' for Active; 'I' for Inactive)
REMARK    1  A    between atoms: O_1  and  C_8
REMARK    2  A    between atoms: C_3  and  C_4
REMARK    3  A    between atoms: C_3  and  C_5
REMARK    4  A    between atoms: C_4  and  C_6
REMARK    5  A    between atoms: C_5  and  C_7
REMARK    6  A    between atoms: C_6  and  C_8
REMARK                            x       y       z     vdW  Elec       q    Type
REMARK                         _______ _______ _______ _____ _____    ______ ____
ROOT
ATOM      1  C   UNL     1      10.830   7.372  -4.203  0.00  0.00    +0.000 C 
ATOM      2  H   UNL     1      10.413   7.677  -3.234  0.00  0.00    +0.000 HD
ATOM      3  H   UNL     1      10.705   6.284  -4.263  0.00  0.00    +0.000 HD
ENDROOT
BRANCH   1   4
ATOM      4  C   UNL     1      12.327   7.690  -4.215  0.00  0.00    +0.000 C 
ATOM      5  H   UNL     1      12.533   8.429  -5.000  0.00  0.00    +0.000 HD
ATOM      6  H   UNL     1      12.595   8.167  -3.264  0.00  0.00    +0.000 HD
BRANCH   4   7
ATOM      7  C   UNL     1      13.208   6.461  -4.439  0.00  0.00    +0.000 C 
ATOM      8  H   UNL     1      12.658   5.710  -5.016  0.00  0.00    +0.000 HD
ATOM      9  H   UNL     1      13.493   6.031  -3.473  0.00  0.00    +0.000 HD
BRANCH   7  11
ATOM     10  O   UNL     1      15.355   6.013  -5.497  0.00  0.00    +0.000 OA
ATOM     11  C   UNL     1      14.475   6.805  -5.189  0.00  0.00    +0.000 C 
BRANCH  11  12
ATOM     12  O   UNL     1      14.532   8.130  -5.485  0.00  0.00    +0.000 OA
ATOM     13  H   UNL     1      14.924   8.290  -6.370  0.00  0.00    +0.000 HD
ENDBRANCH  11  12
ENDBRANCH   7  11
ENDBRANCH   4   7
ENDBRANCH   1   4
BRANCH   1  14
ATOM     14  C   UNL     1      10.006   8.018  -5.319  0.00  0.00    +0.000 C 
ATOM     15  H   UNL     1      10.658   8.225  -6.176  0.00  0.00    +0.000 HD
ATOM     16  H   UNL     1       9.623   8.985  -4.971  0.00  0.00    +0.000 HD
BRANCH  14  17
ATOM     17  C   UNL     1       8.840   7.162  -5.786  0.00  0.00    +0.000 C 
ATOM     18  H   UNL     1       7.976   7.303  -5.128  0.00  0.00    +0.000 HD
ATOM     19  H   UNL     1       8.541   7.432  -6.804  0.00  0.00    +0.000 HD
ATOM     20  H   UNL     1       9.106   6.101  -5.776  0.00  0.00    +0.000 HD
ENDBRANCH  14  17
ENDBRANCH   1  14
TORSDOF 6
ENDMDL
MODEL 5
REMARK VINA RESULT:    -4.091     15.189     15.775
REMARK INTER + INTRA:          -5.366
REMARK INTER:                  -5.285
REMARK INTRA:                  -0.081
REMARK UNBOUND:                -0.079
REMARK  Name = 8892
REMARK  6 active torsions:
REMARK  status: ('A' for Active; 'I' for Inactive)
REMARK    1  A    between atoms: O_1  and  C_8
REMARK    2  A    between atoms: C_3  and  C_4
REMARK    3  A    between atoms: C_3  and  C_5
REMARK    4  A    between atoms: C_4  and  C_6
REMARK    5  A    between atoms: C_5  and  C_7
REMARK    6  A    between atoms: C_6  and  C_8
REMARK                            x       y       z     vdW  Elec       q    Type
REMARK                         _______ _______ _______ _____ _____    ______ ____
ROOT
ATOM      1  C   UNL     1       0.240 -12.881 -11.380  0.00  0.00    +0.000 C 
ATOM      2  H   UNL     1       1.228 -13.272 -11.101  0.00  0.00    +0.000 HD
ATOM      3  H   UNL     1       0.370 -11.803 -11.538  0.00  0.00    +0.000 HD
ENDROOT
BRANCH   1   4
ATOM      4  C   UNL     1      -0.719 -13.087 -10.204  0.00  0.00    +0.000 C 
ATOM      5  H   UNL     1      -1.748 -13.137 -10.583  0.00  0.00    +0.000 HD
ATOM      6  H   UNL     1      -0.511 -14.061  -9.745  0.00  0.00    +0.000 HD
BRANCH   4   7
ATOM      7  C   UNL     1      -0.626 -11.989  -9.144  0.00  0.00    +0.000 C 
ATOM      8  H   UNL     1      -1.432 -11.263  -9.291  0.00  0.00    +0.000 HD
ATOM      9  H   UNL     1       0.338 -11.476  -9.228  0.00  0.00    +0.000 HD
BRANCH   7  11
ATOM     10  O   UNL     1      -1.408 -13.518  -7.417  0.00  0.00    +0.000 OA
ATOM     11  C   UNL     1      -0.737 -12.548  -7.743  0.00  0.00    +0.000 C 
BRANCH  11  12
ATOM     12  O   UNL     1       0.006 -11.829  -6.862  0.00  0.00    +0.000 OA
ATOM     13  H   UNL     1       0.043 -10.879  -7.105  0.00  0.00    +0.000 HD
ENDBRANCH  11  12
ENDBRANCH   7  11
ENDBRANCH   4   7
ENDBRANCH   1   4
BRANCH   1  14
ATOM     14  C   UNL     1      -0.187 -13.518 -12.703  0.00  0.00    +0.000 C 
ATOM     15  H   UNL     1       0.621 -14.161 -13.072  0.00  0.00    +0.000 HD
ATOM     16  H   UNL     1      -0.333 -12.731 -13.453  0.00  0.00    +0.000 HD
BRANCH  14  17
ATOM     17  C   UNL     1      -1.460 -14.343 -12.598  0.00  0.00    +0.000 C 
ATOM     18  H   UNL     1      -2.295 -13.816 -13.069  0.00  0.00    +0.000 HD
ATOM     19  H   UNL     1      -1.341 -15.310 -13.098  0.00  0.00    +0.000 HD
ATOM     20  H   UNL     1      -1.719 -14.527 -11.551  0.00  0.00    +0.000 HD
ENDBRANCH  14  17
ENDBRANCH   1  14
TORSDOF 6
ENDMDL
MODEL 6
REMARK VINA RESULT:    -3.877      2.550      3.462
REMARK INTER + INTRA:          -5.089
REMARK INTER:                  -4.929
REMARK INTRA:                  -0.160
REMARK UNBOUND:                -0.079
REMARK  Name = 8892
REMARK  6 active torsions:
REMARK  status: ('A' for Active; 'I' for Inactive)
REMARK    1  A    between atoms: O_1  and  C_8
REMARK    2  A    between atoms: C_3  and  C_4
REMARK    3  A    between atoms: C_3  and  C_5
REMARK    4  A    between atoms: C_4  and  C_6
REMARK    5  A    between atoms: C_5  and  C_7
REMARK    6  A    between atoms: C_6  and  C_8
REMARK                            x       y       z     vdW  Elec       q    Type
REMARK                         _______ _______ _______ _____ _____    ______ ____
ROOT
ATOM      1  C   UNL     1       7.337  -1.982  -2.213  0.00  0.00    +0.000 C 
ATOM      2  H   UNL     1       7.262  -1.906  -1.120  0.00  0.00    +0.000 HD
ATOM      3  H   UNL     1       7.609  -3.022  -2.431  0.00  0.00    +0.000 HD
ENDROOT
BRANCH   1   4
ATOM      4  C   UNL     1       8.471  -1.072  -2.692  0.00  0.00    +0.000 C 
ATOM      5  H   UNL     1       8.117  -0.468  -3.537  0.00  0.00    +0.000 HD
ATOM      6  H   UNL     1       8.720  -0.366  -1.891  0.00  0.00    +0.000 HD
BRANCH   4   7
ATOM      7  C   UNL     1       9.727  -1.836  -3.111  0.00  0.00    +0.000 C 
ATOM      8  H   UNL     1       9.476  -2.885  -3.304  0.00  0.00    +0.000 HD
ATOM      9  H   UNL     1      10.473  -1.789  -2.310  0.00  0.00    +0.000 HD
BRANCH   7  11
ATOM     10  O   UNL     1      11.530  -1.334  -4.670  0.00  0.00    +0.000 OA
ATOM     11  C   UNL     1      10.348  -1.256  -4.362  0.00  0.00    +0.000 C 
BRANCH  11  12
ATOM     12  O   UNL     1       9.423  -0.616  -5.124  0.00  0.00    +0.000 OA
ATOM     13  H   UNL     1       8.668  -1.200  -5.350  0.00  0.00    +0.000 HD
ENDBRANCH  11  12
ENDBRANCH   7  11
ENDBRANCH   4   7
ENDBRANCH   1   4
BRANCH   1  14
ATOM     14  C   UNL     1       5.961  -1.702  -2.821  0.00  0.00    +0.000 C 
ATOM     15  H   UNL     1       5.271  -1.393  -2.027  0.00  0.00    +0.000 HD
ATOM     16  H   UNL     1       5.559  -2.629  -3.248  0.00  0.00    +0.000 HD
BRANCH  14  17
ATOM     17  C   UNL     1       5.980  -0.629  -3.898  0.00  0.00    +0.000 C 
ATOM     18  H   UNL     1       5.548   0.302  -3.515  0.00  0.00    +0.000 HD
ATOM     19  H   UNL     1       7.004  -0.421  -4.225  0.00  0.00    +0.000 HD
ATOM     20  H   UNL     1       5.398  -0.942  -4.770  0.00  0.00    +0.000 HD
ENDBRANCH  14  17
ENDBRANCH   1  14
TORSDOF 6
ENDMDL
MODEL 7
REMARK VINA RESULT:    -3.842      2.012      2.872
REMARK INTER + INTRA:          -5.044
REMARK INTER:                  -4.796
REMARK INTRA:                  -0.249
REMARK UNBOUND:                -0.079
REMARK  Name = 8892
REMARK  6 active torsions:
REMARK  status: ('A' for Active; 'I' for Inactive)
REMARK    1  A    between atoms: O_1  and  C_8
REMARK    2  A    between atoms: C_3  and  C_4
REMARK    3  A    between atoms: C_3  and  C_5
REMARK    4  A    between atoms: C_4  and  C_6
REMARK    5  A    between atoms: C_5  and  C_7
REMARK    6  A    between atoms: C_6  and  C_8
REMARK                            x       y       z     vdW  Elec       q    Type
REMARK                         _______ _______ _______ _____ _____    ______ ____
ROOT
ATOM      1  C   UNL     1       6.628  -1.320  -4.517  0.00  0.00    +0.000 C 
ATOM      2  H   UNL     1       5.893  -0.531  -4.726  0.00  0.00    +0.000 HD
ATOM      3  H   UNL     1       6.457  -2.107  -5.262  0.00  0.00    +0.000 HD
ENDROOT
BRANCH   1   4
ATOM      4  C   UNL     1       6.348  -1.897  -3.127  0.00  0.00    +0.000 C 
ATOM      5  H   UNL     1       5.836  -2.862  -3.234  0.00  0.00    +0.000 HD
ATOM      6  H   UNL     1       7.304  -2.108  -2.632  0.00  0.00    +0.000 HD
BRANCH   4   7
ATOM      7  C   UNL     1       5.505  -0.976  -2.245  0.00  0.00    +0.000 C 
ATOM      8  H   UNL     1       4.939  -1.572  -1.521  0.00  0.00    +0.000 HD
ATOM      9  H   UNL     1       4.805  -0.408  -2.867  0.00  0.00    +0.000 HD
BRANCH   7  11
ATOM     10  O   UNL     1       6.563   1.174  -1.808  0.00  0.00    +0.000 OA
ATOM     11  C   UNL     1       6.360   0.012  -1.483  0.00  0.00    +0.000 C 
BRANCH  11  12
ATOM     12  O   UNL     1       6.900  -0.553  -0.371  0.00  0.00    +0.000 OA
ATOM     13  H   UNL     1       7.173  -1.482  -0.530  0.00  0.00    +0.000 HD
ENDBRANCH  11  12
ENDBRANCH   7  11
ENDBRANCH   4   7
ENDBRANCH   1   4
BRANCH   1  14
ATOM     14  C   UNL     1       8.033  -0.750  -4.727  0.00  0.00    +0.000 C 
ATOM     15  H   UNL     1       7.995   0.343  -4.649  0.00  0.00    +0.000 HD
ATOM     16  H   UNL     1       8.369  -0.984  -5.744  0.00  0.00    +0.000 HD
BRANCH  14  17
ATOM     17  C   UNL     1       9.057  -1.276  -3.734  0.00  0.00    +0.000 C 
ATOM     18  H   UNL     1       9.142  -0.597  -2.879  0.00  0.00    +0.000 HD
ATOM     19  H   UNL     1       8.766  -2.263  -3.358  0.00  0.00    +0.000 HD
ATOM     20  H   UNL     1      10.043  -1.363  -4.200  0.00  0.00    +0.000 HD
ENDBRANCH  14  17
ENDBRANCH   1  14
TORSDOF 6
ENDMDL
MODEL 8
REMARK VINA RESULT:    -3.812     22.677     23.997
REMARK INTER + INTRA:          -5.005
REMARK INTER:                  -4.896
REMARK INTRA:                  -0.109
REMARK UNBOUND:                -0.079
REMARK  Name = 8892
REMARK  6 active torsions:
REMARK  status: ('A' for Active; 'I' for Inactive)
REMARK    1  A    between atoms: O_1  and  C_8
REMARK    2  A    between atoms: C_3  and  C_4
REMARK    3  A    between atoms: C_3  and  C_5
REMARK    4  A    between atoms: C_4  and  C_6
REMARK    5  A    between atoms: C_5  and  C_7
REMARK    6  A    between atoms: C_6  and  C_8
REMARK                            x       y       z     vdW  Elec       q    Type
REMARK                         _______ _______ _______ _____ _____    ______ ____
ROOT
ATOM      1  C   UNL     1       5.946 -10.120 -26.026  0.00  0.00    +0.000 C 
ATOM      2  H   UNL     1       6.168  -9.250 -26.659  0.00  0.00    +0.000 HD
ATOM      3  H   UNL     1       5.320 -10.789 -26.630  0.00  0.00    +0.000 HD
ENDROOT
BRANCH   1   4
ATOM      4  C   UNL     1       5.132  -9.653 -24.817  0.00  0.00    +0.000 C 
ATOM      5  H   UNL     1       5.817  -9.367 -24.008  0.00  0.00    +0.000 HD
ATOM      6  H   UNL     1       4.582  -8.744 -25.091  0.00  0.00    +0.000 HD
BRANCH   4   7
ATOM      7  C   UNL     1       4.154 -10.707 -24.298  0.00  0.00    +0.000 C 
ATOM      8  H   UNL     1       4.697 -11.467 -23.725  0.00  0.00    +0.000 HD
ATOM      9  H   UNL     1       3.649 -11.189 -25.143  0.00  0.00    +0.000 HD
BRANCH   7  11
ATOM     10  O   UNL     1       2.716 -10.566 -22.338  0.00  0.00    +0.000 OA
ATOM     11  C   UNL     1       3.094 -10.102 -23.404  0.00  0.00    +0.000 C 
BRANCH  11  12
ATOM     12  O   UNL     1       2.591  -8.958 -23.937  0.00  0.00    +0.000 OA
ATOM     13  H   UNL     1       3.293  -8.292 -24.101  0.00  0.00    +0.000 HD
ENDBRANCH  11  12
ENDBRANCH   7  11
ENDBRANCH   4   7
ENDBRANCH   1   4
BRANCH   1  14
ATOM     14  C   UNL     1       7.257 -10.841 -25.703  0.00  0.00    +0.000 C 
ATOM     15  H   UNL     1       7.541 -10.626 -24.666  0.00  0.00    +0.000 HD
ATOM     16  H   UNL     1       8.055 -10.441 -26.340  0.00  0.00    +0.000 HD
BRANCH  14  17
ATOM     17  C   UNL     1       7.183 -12.348 -25.889  0.00  0.00    +0.000 C 
ATOM     18  H   UNL     1       7.106 -12.597 -26.952  0.00  0.00    +0.000 HD
ATOM     19  H   UNL     1       8.078 -12.835 -25.489  0.00  0.00    +0.000 HD
ATOM     20  H   UNL     1       6.309 -12.761 -25.377  0.00  0.00    +0.000 HD
ENDBRANCH  14  17
ENDBRANCH   1  14
TORSDOF 6
ENDMDL
MODEL 9
REMARK VINA RESULT:    -3.661      2.764      3.095
REMARK INTER + INTRA:          -4.810
REMARK INTER:                  -4.745
REMARK INTRA:                  -0.065
REMARK UNBOUND:                -0.079
REMARK  Name = 8892
REMARK  6 active torsions:
REMARK  status: ('A' for Active; 'I' for Inactive)
REMARK    1  A    between atoms: O_1  and  C_8
REMARK    2  A    between atoms: C_3  and  C_4
REMARK    3  A    between atoms: C_3  and  C_5
REMARK    4  A    between atoms: C_4  and  C_6
REMARK    5  A    between atoms: C_5  and  C_7
REMARK    6  A    between atoms: C_6  and  C_8
REMARK                            x       y       z     vdW  Elec       q    Type
REMARK                         _______ _______ _______ _____ _____    ______ ____
ROOT
ATOM      1  C   UNL     1       6.421   0.612  -3.001  0.00  0.00    +0.000 C 
ATOM      2  H   UNL     1       6.437  -0.443  -2.698  0.00  0.00    +0.000 HD
ATOM      3  H   UNL     1       7.311   0.767  -3.624  0.00  0.00    +0.000 HD
ENDROOT
BRANCH   1   4
ATOM      4  C   UNL     1       6.545   1.485  -1.750  0.00  0.00    +0.000 C 
ATOM      5  H   UNL     1       6.918   2.477  -2.037  0.00  0.00    +0.000 HD
ATOM      6  H   UNL     1       5.546   1.642  -1.327  0.00  0.00    +0.000 HD
BRANCH   4   7
ATOM      7  C   UNL     1       7.467   0.892  -0.684  0.00  0.00    +0.000 C 
ATOM      8  H   UNL     1       7.828  -0.089  -1.011  0.00  0.00    +0.000 HD
ATOM      9  H   UNL     1       6.916   0.776   0.256  0.00  0.00    +0.000 HD
BRANCH   7  11
ATOM     10  O   UNL     1       8.707   2.687   0.397  0.00  0.00    +0.000 OA
ATOM     11  C   UNL     1       8.664   1.777  -0.418  0.00  0.00    +0.000 C 
BRANCH  11  12
ATOM     12  O   UNL     1       9.714   1.443  -1.215  0.00  0.00    +0.000 OA
ATOM     13  H   UNL     1       9.967   0.500  -1.109  0.00  0.00    +0.000 HD
ENDBRANCH  11  12
ENDBRANCH   7  11
ENDBRANCH   4   7
ENDBRANCH   1   4
BRANCH   1  14
ATOM     14  C   UNL     1       5.179   0.859  -3.860  0.00  0.00    +0.000 C 
ATOM     15  H   UNL     1       4.991   1.938  -3.923  0.00  0.00    +0.000 HD
ATOM     16  H   UNL     1       4.305   0.413  -3.369  0.00  0.00    +0.000 HD
BRANCH  14  17
ATOM     17  C   UNL     1       5.294   0.299  -5.269  0.00  0.00    +0.000 C 
ATOM     18  H   UNL     1       5.452   1.109  -5.989  0.00  0.00    +0.000 HD
ATOM     19  H   UNL     1       6.137  -0.395  -5.347  0.00  0.00    +0.000 HD
ATOM     20  H   UNL     1       4.382  -0.235  -5.552  0.00  0.00    +0.000 HD
ENDBRANCH  14  17
ENDBRANCH   1  14
TORSDOF 6
ENDMDL
MODEL 10
REMARK VINA RESULT:    -3.550     30.718     31.730
REMARK INTER + INTRA:          -4.667
REMARK INTER:                  -4.588
REMARK INTRA:                  -0.079
REMARK UNBOUND:                -0.079
REMARK  Name = 8892
REMARK  6 active torsions:
REMARK  status: ('A' for Active; 'I' for Inactive)
REMARK    1  A    between atoms: O_1  and  C_8
REMARK    2  A    between atoms: C_3  and  C_4
REMARK    3  A    between atoms: C_3  and  C_5
REMARK    4  A    between atoms: C_4  and  C_6
REMARK    5  A    between atoms: C_5  and  C_7
REMARK    6  A    between atoms: C_6  and  C_8
REMARK                            x       y       z     vdW  Elec       q    Type
REMARK                         _______ _______ _______ _____ _____    ______ ____
ROOT
ATOM      1  C   UNL     1     -15.529   2.040  20.740  0.00  0.00    +0.000 C 
ATOM      2  H   UNL     1     -14.746   2.793  20.577  0.00  0.00    +0.000 HD
ATOM      3  H   UNL     1     -15.012   1.078  20.851  0.00  0.00    +0.000 HD
ENDROOT
BRANCH   1   4
ATOM      4  C   UNL     1     -16.415   1.975  19.494  0.00  0.00    +0.000 C 
ATOM      5  H   UNL     1     -17.440   1.719  19.793  0.00  0.00    +0.000 HD
ATOM      6  H   UNL     1     -16.465   2.974  19.043  0.00  0.00    +0.000 HD
BRANCH   4   7
ATOM      7  C   UNL     1     -15.928   0.966  18.453  0.00  0.00    +0.000 C 
ATOM      8  H   UNL     1     -16.783   0.561  17.901  0.00  0.00    +0.000 HD
ATOM      9  H   UNL     1     -15.404   0.145  18.953  0.00  0.00    +0.000 HD
BRANCH   7  11
ATOM     10  O   UNL     1     -15.288   2.368  16.568  0.00  0.00    +0.000 OA
ATOM     11  C   UNL     1     -14.975   1.595  17.462  0.00  0.00    +0.000 C 
BRANCH  11  12
ATOM     12  O   UNL     1     -13.696   1.187  17.677  0.00  0.00    +0.000 OA
ATOM     13  H   UNL     1     -13.125   1.351  16.896  0.00  0.00    +0.000 HD
ENDBRANCH  11  12
ENDBRANCH   7  11
ENDBRANCH   4   7
ENDBRANCH   1   4
BRANCH   1  14
ATOM     14  C   UNL     1     -16.251   2.355  22.052  0.00  0.00    +0.000 C 
ATOM     15  H   UNL     1     -16.903   1.514  22.317  0.00  0.00    +0.000 HD
ATOM     16  H   UNL     1     -16.901   3.227  21.906  0.00  0.00    +0.000 HD
BRANCH  14  17
ATOM     17  C   UNL     1     -15.309   2.629  23.213  0.00  0.00    +0.000 C 
ATOM     18  H   UNL     1     -15.295   1.777  23.901  0.00  0.00    +0.000 HD
ATOM     19  H   UNL     1     -14.287   2.797  22.857  0.00  0.00    +0.000 HD
ATOM     20  H   UNL     1     -15.628   3.514  23.773  0.00  0.00    +0.000 HD
ENDBRANCH  14  17
ENDBRANCH   1  14
TORSDOF 6
ENDMDL
