MODEL 1
REMARK VINA RESULT:    -4.351      0.000      0.000
REMARK INTER + INTRA:          -5.837
REMARK INTER:                  -5.406
REMARK INTRA:                  -0.432
REMARK UNBOUND:                -0.088
REMARK  Name = 31276
REMARK  7 active torsions:
REMARK  status: ('A' for Active; 'I' for Inactive)
REMARK    1  A    between atoms: O_1  and  C_5
REMARK    2  A    between atoms: O_1  and  C_8
REMARK    3  A    between atoms: C_3  and  C_4
REMARK    4  A    between atoms: C_3  and  C_6
REMARK    5  A    between atoms: C_3  and  C_7
REMARK    6  A    between atoms: C_4  and  C_5
REMARK    7  A    between atoms: C_8  and  C_9
REMARK                            x       y       z     vdW  Elec       q    Type
REMARK                         _______ _______ _______ _____ _____    ______ ____
ROOT
ATOM      1  C   UNL     1       5.580  -1.156  -2.444  0.00  0.00    +0.000 C 
ATOM      2  H   UNL     1       4.646  -1.726  -2.357  0.00  0.00    +0.000 HD
ATOM      3  H   UNL     1       5.739  -0.709  -1.454  0.00  0.00    +0.000 HD
ENDROOT
BRANCH   1   4
ATOM      4  C   UNL     1       6.726  -2.115  -2.743  0.00  0.00    +0.000 C 
ATOM      5  H   UNL     1       6.419  -3.152  -2.575  0.00  0.00    +0.000 HD
ATOM      6  H   UNL     1       7.070  -2.002  -3.777  0.00  0.00    +0.000 HD
BRANCH   4   7
ATOM      7  O   UNL     1       7.812  -1.813  -1.876  0.00  0.00    +0.000 OA
BRANCH   7   9
ATOM      8  O   UNL     1       9.661  -2.035  -3.241  0.00  0.00    +0.000 OA
ATOM      9  C   UNL     1       8.957  -1.381  -2.484  0.00  0.00    +0.000 C 
BRANCH   9  10
ATOM     10  C   UNL     1       9.241   0.037  -2.090  0.00  0.00    +0.000 C 
ATOM     11  H   UNL     1       8.321   0.517  -1.746  0.00  0.00    +0.000 HD
ATOM     12  H   UNL     1       9.664   0.579  -2.940  0.00  0.00    +0.000 HD
ATOM     13  H   UNL     1       9.967   0.049  -1.273  0.00  0.00    +0.000 HD
ENDBRANCH   9  10
ENDBRANCH   7   9
ENDBRANCH   4   7
ENDBRANCH   1   4
BRANCH   1  14
ATOM     14  C   UNL     1       5.412  -0.045  -3.493  0.00  0.00    +0.000 C 
ATOM     15  H   UNL     1       4.343   0.041  -3.723  0.00  0.00    +0.000 HD
BRANCH  14  16
ATOM     16  C   UNL     1       5.898   1.289  -2.921  0.00  0.00    +0.000 C 
ATOM     17  H   UNL     1       6.017   2.021  -3.727  0.00  0.00    +0.000 HD
ATOM     18  H   UNL     1       6.867   1.202  -2.420  0.00  0.00    +0.000 HD
ATOM     19  H   UNL     1       5.174   1.700  -2.209  0.00  0.00    +0.000 HD
ENDBRANCH  14  16
BRANCH  14  20
ATOM     20  C   UNL     1       6.161  -0.352  -4.791  0.00  0.00    +0.000 C 
ATOM     21  H   UNL     1       6.189  -1.424  -5.010  0.00  0.00    +0.000 HD
ATOM     22  H   UNL     1       7.196  -0.003  -4.724  0.00  0.00    +0.000 HD
ATOM     23  H   UNL     1       5.692   0.158  -5.639  0.00  0.00    +0.000 HD
ENDBRANCH  14  20
ENDBRANCH   1  14
TORSDOF 7
ENDMDL
MODEL 2
REMARK VINA RESULT:    -4.344      8.752      9.801
REMARK INTER + INTRA:          -5.828
REMARK INTER:                  -5.655
REMARK INTRA:                  -0.173
REMARK UNBOUND:                -0.088
REMARK  Name = 31276
REMARK  7 active torsions:
REMARK  status: ('A' for Active; 'I' for Inactive)
REMARK    1  A    between atoms: O_1  and  C_5
REMARK    2  A    between atoms: O_1  and  C_8
REMARK    3  A    between atoms: C_3  and  C_4
REMARK    4  A    between atoms: C_3  and  C_6
REMARK    5  A    between atoms: C_3  and  C_7
REMARK    6  A    between atoms: C_4  and  C_5
REMARK    7  A    between atoms: C_8  and  C_9
REMARK                            x       y       z     vdW  Elec       q    Type
REMARK                         _______ _______ _______ _____ _____    ______ ____
ROOT
ATOM      1  C   UNL     1      10.419   6.978  -3.893  0.00  0.00    +0.000 C 
ATOM      2  H   UNL     1      10.395   5.892  -4.042  0.00  0.00    +0.000 HD
ATOM      3  H   UNL     1       9.670   7.180  -3.116  0.00  0.00    +0.000 HD
ENDROOT
BRANCH   1   4
ATOM      4  C   UNL     1      11.793   7.382  -3.372  0.00  0.00    +0.000 C 
ATOM      5  H   UNL     1      11.970   8.450  -3.533  0.00  0.00    +0.000 HD
ATOM      6  H   UNL     1      11.888   7.156  -2.304  0.00  0.00    +0.000 HD
BRANCH   4   7
ATOM      7  O   UNL     1      12.783   6.643  -4.075  0.00  0.00    +0.000 OA
BRANCH   7   9
ATOM      8  O   UNL     1      14.011   8.560  -4.462  0.00  0.00    +0.000 OA
ATOM      9  C   UNL     1      13.760   7.383  -4.679  0.00  0.00    +0.000 C 
BRANCH   9  10
ATOM     10  C   UNL     1      14.504   6.536  -5.668  0.00  0.00    +0.000 C 
ATOM     11  H   UNL     1      15.491   6.965  -5.854  0.00  0.00    +0.000 HD
ATOM     12  H   UNL     1      13.933   6.467  -6.598  0.00  0.00    +0.000 HD
ATOM     13  H   UNL     1      14.632   5.529  -5.261  0.00  0.00    +0.000 HD
ENDBRANCH   9  10
ENDBRANCH   7   9
ENDBRANCH   4   7
ENDBRANCH   1   4
BRANCH   1  14
ATOM     14  C   UNL     1      10.017   7.689  -5.196  0.00  0.00    +0.000 C 
ATOM     15  H   UNL     1      10.884   7.672  -5.868  0.00  0.00    +0.000 HD
BRANCH  14  16
ATOM     16  C   UNL     1       8.865   6.937  -5.865  0.00  0.00    +0.000 C 
ATOM     17  H   UNL     1       8.333   6.331  -5.124  0.00  0.00    +0.000 HD
ATOM     18  H   UNL     1       9.208   6.256  -6.650  0.00  0.00    +0.000 HD
ATOM     19  H   UNL     1       8.140   7.633  -6.301  0.00  0.00    +0.000 HD
ENDBRANCH  14  16
BRANCH  14  20
ATOM     20  C   UNL     1       9.617   9.147  -4.964  0.00  0.00    +0.000 C 
ATOM     21  H   UNL     1      10.305   9.664  -4.289  0.00  0.00    +0.000 HD
ATOM     22  H   UNL     1       8.618   9.200  -4.518  0.00  0.00    +0.000 HD
ATOM     23  H   UNL     1       9.587   9.696  -5.911  0.00  0.00    +0.000 HD
ENDBRANCH  14  20
ENDBRANCH   1  14
TORSDOF 7
ENDMDL
MODEL 3
REMARK VINA RESULT:    -4.276      2.027      2.788
REMARK INTER + INTRA:          -5.739
REMARK INTER:                  -5.397
REMARK INTRA:                  -0.342
REMARK UNBOUND:                -0.088
REMARK  Name = 31276
REMARK  7 active torsions:
REMARK  status: ('A' for Active; 'I' for Inactive)
REMARK    1  A    between atoms: O_1  and  C_5
REMARK    2  A    between atoms: O_1  and  C_8
REMARK    3  A    between atoms: C_3  and  C_4
REMARK    4  A    between atoms: C_3  and  C_6
REMARK    5  A    between atoms: C_3  and  C_7
REMARK    6  A    between atoms: C_4  and  C_5
REMARK    7  A    between atoms: C_8  and  C_9
REMARK                            x       y       z     vdW  Elec       q    Type
REMARK                         _______ _______ _______ _____ _____    ______ ____
ROOT
ATOM      1  C   UNL     1       6.294  -1.889  -3.181  0.00  0.00    +0.000 C 
ATOM      2  H   UNL     1       7.160  -2.391  -2.733  0.00  0.00    +0.000 HD
ATOM      3  H   UNL     1       5.550  -2.681  -3.337  0.00  0.00    +0.000 HD
ENDROOT
BRANCH   1   4
ATOM      4  C   UNL     1       5.736  -0.874  -2.191  0.00  0.00    +0.000 C 
ATOM      5  H   UNL     1       5.670   0.119  -2.648  0.00  0.00    +0.000 HD
ATOM      6  H   UNL     1       4.744  -1.176  -1.838  0.00  0.00    +0.000 HD
BRANCH   4   7
ATOM      7  O   UNL     1       6.607  -0.804  -1.069  0.00  0.00    +0.000 OA
BRANCH   7   9
ATOM      8  O   UNL     1       7.222   0.731   0.544  0.00  0.00    +0.000 OA
ATOM      9  C   UNL     1       6.862   0.451  -0.592  0.00  0.00    +0.000 C 
BRANCH   9  10
ATOM     10  C   UNL     1       6.638   1.465  -1.673  0.00  0.00    +0.000 C 
ATOM     11  H   UNL     1       6.211   2.375  -1.245  0.00  0.00    +0.000 HD
ATOM     12  H   UNL     1       5.974   1.050  -2.437  0.00  0.00    +0.000 HD
ATOM     13  H   UNL     1       7.594   1.715  -2.141  0.00  0.00    +0.000 HD
ENDBRANCH   9  10
ENDBRANCH   7   9
ENDBRANCH   4   7
ENDBRANCH   1   4
BRANCH   1  14
ATOM     14  C   UNL     1       6.692  -1.279  -4.535  0.00  0.00    +0.000 C 
ATOM     15  H   UNL     1       6.549  -2.047  -5.304  0.00  0.00    +0.000 HD
BRANCH  14  16
ATOM     16  C   UNL     1       5.785  -0.090  -4.857  0.00  0.00    +0.000 C 
ATOM     17  H   UNL     1       5.302  -0.240  -5.829  0.00  0.00    +0.000 HD
ATOM     18  H   UNL     1       6.335   0.854  -4.914  0.00  0.00    +0.000 HD
ATOM     19  H   UNL     1       4.991   0.015  -4.109  0.00  0.00    +0.000 HD
ENDBRANCH  14  16
BRANCH  14  20
ATOM     20  C   UNL     1       8.155  -0.834  -4.566  0.00  0.00    +0.000 C 
ATOM     21  H   UNL     1       8.279   0.207  -4.253  0.00  0.00    +0.000 HD
ATOM     22  H   UNL     1       8.558  -0.923  -5.580  0.00  0.00    +0.000 HD
ATOM     23  H   UNL     1       8.766  -1.464  -3.910  0.00  0.00    +0.000 HD
ENDBRANCH  14  20
ENDBRANCH   1  14
TORSDOF 7
ENDMDL
MODEL 4
REMARK VINA RESULT:    -4.244      1.335      2.097
REMARK INTER + INTRA:          -5.697
REMARK INTER:                  -5.268
REMARK INTRA:                  -0.428
REMARK UNBOUND:                -0.088
REMARK  Name = 31276
REMARK  7 active torsions:
REMARK  status: ('A' for Active; 'I' for Inactive)
REMARK    1  A    between atoms: O_1  and  C_5
REMARK    2  A    between atoms: O_1  and  C_8
REMARK    3  A    between atoms: C_3  and  C_4
REMARK    4  A    between atoms: C_3  and  C_6
REMARK    5  A    between atoms: C_3  and  C_7
REMARK    6  A    between atoms: C_4  and  C_5
REMARK    7  A    between atoms: C_8  and  C_9
REMARK                            x       y       z     vdW  Elec       q    Type
REMARK                         _______ _______ _______ _____ _____    ______ ____
ROOT
ATOM      1  C   UNL     1       6.612   1.071  -2.554  0.00  0.00    +0.000 C 
ATOM      2  H   UNL     1       6.179   1.802  -1.861  0.00  0.00    +0.000 HD
ATOM      3  H   UNL     1       7.046   1.666  -3.368  0.00  0.00    +0.000 HD
ENDROOT
BRANCH   1   4
ATOM      4  C   UNL     1       7.727   0.310  -1.848  0.00  0.00    +0.000 C 
ATOM      5  H   UNL     1       8.048   0.840  -0.946  0.00  0.00    +0.000 HD
ATOM      6  H   UNL     1       7.401  -0.701  -1.578  0.00  0.00    +0.000 HD
BRANCH   4   7
ATOM      7  O   UNL     1       8.835   0.199  -2.733  0.00  0.00    +0.000 OA
BRANCH   7   9
ATOM      8  O   UNL     1       9.332  -2.045  -2.508  0.00  0.00    +0.000 OA
ATOM      9  C   UNL     1       9.105  -1.058  -3.194  0.00  0.00    +0.000 C 
BRANCH   9  10
ATOM     10  C   UNL     1       9.084  -1.068  -4.693  0.00  0.00    +0.000 C 
ATOM     11  H   UNL     1       9.521  -0.142  -5.075  0.00  0.00    +0.000 HD
ATOM     12  H   UNL     1       8.055  -1.182  -5.048  0.00  0.00    +0.000 HD
ATOM     13  H   UNL     1       9.675  -1.911  -5.060  0.00  0.00    +0.000 HD
ENDBRANCH   9  10
ENDBRANCH   7   9
ENDBRANCH   4   7
ENDBRANCH   1   4
BRANCH   1  14
ATOM     14  C   UNL     1       5.501   0.165  -3.112  0.00  0.00    +0.000 C 
ATOM     15  H   UNL     1       4.537   0.595  -2.814  0.00  0.00    +0.000 HD
BRANCH  14  16
ATOM     16  C   UNL     1       5.572   0.135  -4.640  0.00  0.00    +0.000 C 
ATOM     17  H   UNL     1       6.165   0.981  -5.004  0.00  0.00    +0.000 HD
ATOM     18  H   UNL     1       4.585   0.211  -5.107  0.00  0.00    +0.000 HD
ATOM     19  H   UNL     1       6.055  -0.781  -4.994  0.00  0.00    +0.000 HD
ENDBRANCH  14  16
BRANCH  14  20
ATOM     20  C   UNL     1       5.582  -1.260  -2.563  0.00  0.00    +0.000 C 
ATOM     21  H   UNL     1       6.557  -1.478  -2.117  0.00  0.00    +0.000 HD
ATOM     22  H   UNL     1       5.419  -1.986  -3.367  0.00  0.00    +0.000 HD
ATOM     23  H   UNL     1       4.812  -1.428  -1.803  0.00  0.00    +0.000 HD
ENDBRANCH  14  20
ENDBRANCH   1  14
TORSDOF 7
ENDMDL
MODEL 5
REMARK VINA RESULT:    -4.125      2.600      3.436
REMARK INTER + INTRA:          -5.538
REMARK INTER:                  -5.235
REMARK INTRA:                  -0.303
REMARK UNBOUND:                -0.088
REMARK  Name = 31276
REMARK  7 active torsions:
REMARK  status: ('A' for Active; 'I' for Inactive)
REMARK    1  A    between atoms: O_1  and  C_5
REMARK    2  A    between atoms: O_1  and  C_8
REMARK    3  A    between atoms: C_3  and  C_4
REMARK    4  A    between atoms: C_3  and  C_6
REMARK    5  A    between atoms: C_3  and  C_7
REMARK    6  A    between atoms: C_4  and  C_5
REMARK    7  A    between atoms: C_8  and  C_9
REMARK                            x       y       z     vdW  Elec       q    Type
REMARK                         _______ _______ _______ _____ _____    ______ ____
ROOT
ATOM      1  C   UNL     1       6.174   1.334  -2.594  0.00  0.00    +0.000 C 
ATOM      2  H   UNL     1       5.263   1.342  -1.983  0.00  0.00    +0.000 HD
ATOM      3  H   UNL     1       6.205   2.317  -3.080  0.00  0.00    +0.000 HD
ENDROOT
BRANCH   1   4
ATOM      4  C   UNL     1       7.387   1.193  -1.683  0.00  0.00    +0.000 C 
ATOM      5  H   UNL     1       7.777   0.171  -1.710  0.00  0.00    +0.000 HD
ATOM      6  H   UNL     1       8.180   1.891  -1.976  0.00  0.00    +0.000 HD
BRANCH   4   7
ATOM      7  O   UNL     1       6.996   1.498  -0.351  0.00  0.00    +0.000 OA
BRANCH   7   9
ATOM      8  O   UNL     1       5.851   0.297   1.256  0.00  0.00    +0.000 OA
ATOM      9  C   UNL     1       6.776   0.424   0.465  0.00  0.00    +0.000 C 
BRANCH   9  10
ATOM     10  C   UNL     1       7.847  -0.604   0.256  0.00  0.00    +0.000 C 
ATOM     11  H   UNL     1       7.971  -0.797  -0.813  0.00  0.00    +0.000 HD
ATOM     12  H   UNL     1       7.584  -1.525   0.785  0.00  0.00    +0.000 HD
ATOM     13  H   UNL     1       8.793  -0.231   0.655  0.00  0.00    +0.000 HD
ENDBRANCH   9  10
ENDBRANCH   7   9
ENDBRANCH   4   7
ENDBRANCH   1   4
BRANCH   1  14
ATOM     14  C   UNL     1       6.071   0.231  -3.662  0.00  0.00    +0.000 C 
ATOM     15  H   UNL     1       7.042   0.161  -4.165  0.00  0.00    +0.000 HD
BRANCH  14  16
ATOM     16  C   UNL     1       5.767  -1.112  -2.995  0.00  0.00    +0.000 C 
ATOM     17  H   UNL     1       6.453  -1.278  -2.158  0.00  0.00    +0.000 HD
ATOM     18  H   UNL     1       5.887  -1.957  -3.680  0.00  0.00    +0.000 HD
ATOM     19  H   UNL     1       4.748  -1.131  -2.593  0.00  0.00    +0.000 HD
ENDBRANCH  14  16
BRANCH  14  20
ATOM     20  C   UNL     1       5.004   0.538  -4.714  0.00  0.00    +0.000 C 
ATOM     21  H   UNL     1       4.949   1.606  -4.950  0.00  0.00    +0.000 HD
ATOM     22  H   UNL     1       4.017   0.230  -4.355  0.00  0.00    +0.000 HD
ATOM     23  H   UNL     1       5.206  -0.007  -5.642  0.00  0.00    +0.000 HD
ENDBRANCH  14  20
ENDBRANCH   1  14
TORSDOF 7
ENDMDL
MODEL 6
REMARK VINA RESULT:    -4.006      1.414      2.007
REMARK INTER + INTRA:          -5.382
REMARK INTER:                  -5.053
REMARK INTRA:                  -0.329
REMARK UNBOUND:                -0.088
REMARK  Name = 31276
REMARK  7 active torsions:
REMARK  status: ('A' for Active; 'I' for Inactive)
REMARK    1  A    between atoms: O_1  and  C_5
REMARK    2  A    between atoms: O_1  and  C_8
REMARK    3  A    between atoms: C_3  and  C_4
REMARK    4  A    between atoms: C_3  and  C_6
REMARK    5  A    between atoms: C_3  and  C_7
REMARK    6  A    between atoms: C_4  and  C_5
REMARK    7  A    between atoms: C_8  and  C_9
REMARK                            x       y       z     vdW  Elec       q    Type
REMARK                         _______ _______ _______ _____ _____    ______ ____
ROOT
ATOM      1  C   UNL     1       6.245   0.852  -2.702  0.00  0.00    +0.000 C 
ATOM      2  H   UNL     1       5.273   1.350  -2.603  0.00  0.00    +0.000 HD
ATOM      3  H   UNL     1       6.989   1.658  -2.663  0.00  0.00    +0.000 HD
ENDROOT
BRANCH   1   4
ATOM      4  C   UNL     1       6.457  -0.075  -1.512  0.00  0.00    +0.000 C 
ATOM      5  H   UNL     1       5.595  -0.047  -0.838  0.00  0.00    +0.000 HD
ATOM      6  H   UNL     1       6.624  -1.106  -1.843  0.00  0.00    +0.000 HD
BRANCH   4   7
ATOM      7  O   UNL     1       7.609   0.355  -0.798  0.00  0.00    +0.000 OA
BRANCH   7   9
ATOM      8  O   UNL     1       9.067  -1.343  -1.369  0.00  0.00    +0.000 OA
ATOM      9  C   UNL     1       8.801  -0.157  -1.227  0.00  0.00    +0.000 C 
BRANCH   9  10
ATOM     10  C   UNL     1       9.764   0.957  -1.507  0.00  0.00    +0.000 C 
ATOM     11  H   UNL     1      10.004   1.481  -0.579  0.00  0.00    +0.000 HD
ATOM     12  H   UNL     1       9.331   1.645  -2.238  0.00  0.00    +0.000 HD
ATOM     13  H   UNL     1      10.688   0.544  -1.922  0.00  0.00    +0.000 HD
ENDBRANCH   9  10
ENDBRANCH   7   9
ENDBRANCH   4   7
ENDBRANCH   1   4
BRANCH   1  14
ATOM     14  C   UNL     1       6.325   0.140  -4.063  0.00  0.00    +0.000 C 
ATOM     15  H   UNL     1       7.238   0.480  -4.567  0.00  0.00    +0.000 HD
BRANCH  14  16
ATOM     16  C   UNL     1       6.417  -1.373  -3.854  0.00  0.00    +0.000 C 
ATOM     17  H   UNL     1       7.467  -1.677  -3.773  0.00  0.00    +0.000 HD
ATOM     18  H   UNL     1       5.984  -1.939  -4.685  0.00  0.00    +0.000 HD
ATOM     19  H   UNL     1       5.916  -1.675  -2.928  0.00  0.00    +0.000 HD
ENDBRANCH  14  16
BRANCH  14  20
ATOM     20  C   UNL     1       5.131   0.465  -4.961  0.00  0.00    +0.000 C 
ATOM     21  H   UNL     1       4.768  -0.414  -5.504  0.00  0.00    +0.000 HD
ATOM     22  H   UNL     1       5.409   1.219  -5.705  0.00  0.00    +0.000 HD
ATOM     23  H   UNL     1       4.301   0.870  -4.372  0.00  0.00    +0.000 HD
ENDBRANCH  14  20
ENDBRANCH   1  14
TORSDOF 7
ENDMDL
MODEL 7
REMARK VINA RESULT:    -4.003      2.631      4.074
REMARK INTER + INTRA:          -5.377
REMARK INTER:                  -5.229
REMARK INTRA:                  -0.148
REMARK UNBOUND:                -0.088
REMARK  Name = 31276
REMARK  7 active torsions:
REMARK  status: ('A' for Active; 'I' for Inactive)
REMARK    1  A    between atoms: O_1  and  C_5
REMARK    2  A    between atoms: O_1  and  C_8
REMARK    3  A    between atoms: C_3  and  C_4
REMARK    4  A    between atoms: C_3  and  C_6
REMARK    5  A    between atoms: C_3  and  C_7
REMARK    6  A    between atoms: C_4  and  C_5
REMARK    7  A    between atoms: C_8  and  C_9
REMARK                            x       y       z     vdW  Elec       q    Type
REMARK                         _______ _______ _______ _____ _____    ______ ____
ROOT
ATOM      1  C   UNL     1       6.969   1.142  -0.807  0.00  0.00    +0.000 C 
ATOM      2  H   UNL     1       6.389   0.361  -0.300  0.00  0.00    +0.000 HD
ATOM      3  H   UNL     1       7.982   0.731  -0.907  0.00  0.00    +0.000 HD
ENDROOT
BRANCH   1   4
ATOM      4  C   UNL     1       6.390   1.373  -2.198  0.00  0.00    +0.000 C 
ATOM      5  H   UNL     1       5.332   1.093  -2.230  0.00  0.00    +0.000 HD
ATOM      6  H   UNL     1       6.497   2.421  -2.498  0.00  0.00    +0.000 HD
BRANCH   4   7
ATOM      7  O   UNL     1       7.103   0.568  -3.128  0.00  0.00    +0.000 OA
BRANCH   7   9
ATOM      8  O   UNL     1       6.652  -1.081  -4.681  0.00  0.00    +0.000 OA
ATOM      9  C   UNL     1       6.344  -0.066  -4.072  0.00  0.00    +0.000 C 
BRANCH   9  10
ATOM     10  C   UNL     1       5.051   0.668  -4.263  0.00  0.00    +0.000 C 
ATOM     11  H   UNL     1       4.454   0.171  -5.031  0.00  0.00    +0.000 HD
ATOM     12  H   UNL     1       5.252   1.705  -4.544  0.00  0.00    +0.000 HD
ATOM     13  H   UNL     1       4.487   0.663  -3.326  0.00  0.00    +0.000 HD
ENDBRANCH   9  10
ENDBRANCH   7   9
ENDBRANCH   4   7
ENDBRANCH   1   4
BRANCH   1  14
ATOM     14  C   UNL     1       7.007   2.408   0.065  0.00  0.00    +0.000 C 
ATOM     15  H   UNL     1       6.716   2.122   1.083  0.00  0.00    +0.000 HD
BRANCH  14  16
ATOM     16  C   UNL     1       8.429   2.972   0.102  0.00  0.00    +0.000 C 
ATOM     17  H   UNL     1       8.492   3.869  -0.523  0.00  0.00    +0.000 HD
ATOM     18  H   UNL     1       9.171   2.264  -0.278  0.00  0.00    +0.000 HD
ATOM     19  H   UNL     1       8.712   3.261   1.120  0.00  0.00    +0.000 HD
ENDBRANCH  14  16
BRANCH  14  20
ATOM     20  C   UNL     1       6.038   3.483  -0.428  0.00  0.00    +0.000 C 
ATOM     21  H   UNL     1       6.091   4.397   0.172  0.00  0.00    +0.000 HD
ATOM     22  H   UNL     1       5.007   3.117  -0.378  0.00  0.00    +0.000 HD
ATOM     23  H   UNL     1       6.247   3.746  -1.470  0.00  0.00    +0.000 HD
ENDBRANCH  14  20
ENDBRANCH   1  14
TORSDOF 7
ENDMDL
MODEL 8
REMARK VINA RESULT:    -4.000      3.302      4.727
REMARK INTER + INTRA:          -5.373
REMARK INTER:                  -5.063
REMARK INTRA:                  -0.310
REMARK UNBOUND:                -0.088
REMARK  Name = 31276
REMARK  7 active torsions:
REMARK  status: ('A' for Active; 'I' for Inactive)
REMARK    1  A    between atoms: O_1  and  C_5
REMARK    2  A    between atoms: O_1  and  C_8
REMARK    3  A    between atoms: C_3  and  C_4
REMARK    4  A    between atoms: C_3  and  C_6
REMARK    5  A    between atoms: C_3  and  C_7
REMARK    6  A    between atoms: C_4  and  C_5
REMARK    7  A    between atoms: C_8  and  C_9
REMARK                            x       y       z     vdW  Elec       q    Type
REMARK                         _______ _______ _______ _____ _____    ______ ____
ROOT
ATOM      1  C   UNL     1       8.338   2.489   0.055  0.00  0.00    +0.000 C 
ATOM      2  H   UNL     1       9.012   2.484   0.921  0.00  0.00    +0.000 HD
ATOM      3  H   UNL     1       8.992   2.599  -0.820  0.00  0.00    +0.000 HD
ENDROOT
BRANCH   1   4
ATOM      4  C   UNL     1       7.621   1.147  -0.029  0.00  0.00    +0.000 C 
ATOM      5  H   UNL     1       8.079   0.419   0.647  0.00  0.00    +0.000 HD
ATOM      6  H   UNL     1       6.559   1.255   0.219  0.00  0.00    +0.000 HD
BRANCH   4   7
ATOM      7  O   UNL     1       7.720   0.659  -1.361  0.00  0.00    +0.000 OA
BRANCH   7   9
ATOM      8  O   UNL     1       6.034  -0.889  -1.669  0.00  0.00    +0.000 OA
ATOM      9  C   UNL     1       6.561   0.189  -1.911  0.00  0.00    +0.000 C 
BRANCH   9  10
ATOM     10  C   UNL     1       6.007   1.195  -2.874  0.00  0.00    +0.000 C 
ATOM     11  H   UNL     1       4.929   1.291  -2.729  0.00  0.00    +0.000 HD
ATOM     12  H   UNL     1       6.232   0.888  -3.900  0.00  0.00    +0.000 HD
ATOM     13  H   UNL     1       6.472   2.167  -2.692  0.00  0.00    +0.000 HD
ENDBRANCH   9  10
ENDBRANCH   7   9
ENDBRANCH   4   7
ENDBRANCH   1   4
BRANCH   1  14
ATOM     14  C   UNL     1       7.387   3.694   0.146  0.00  0.00    +0.000 C 
ATOM     15  H   UNL     1       7.343   4.162  -0.845  0.00  0.00    +0.000 HD
BRANCH  14  16
ATOM     16  C   UNL     1       5.983   3.222   0.527  0.00  0.00    +0.000 C 
ATOM     17  H   UNL     1       5.238   3.708  -0.112  0.00  0.00    +0.000 HD
ATOM     18  H   UNL     1       5.725   3.466   1.562  0.00  0.00    +0.000 HD
ATOM     19  H   UNL     1       5.879   2.140   0.389  0.00  0.00    +0.000 HD
ENDBRANCH  14  16
BRANCH  14  20
ATOM     20  C   UNL     1       7.870   4.742   1.150  0.00  0.00    +0.000 C 
ATOM     21  H   UNL     1       8.788   4.435   1.661  0.00  0.00    +0.000 HD
ATOM     22  H   UNL     1       7.108   4.911   1.918  0.00  0.00    +0.000 HD
ATOM     23  H   UNL     1       8.059   5.699   0.653  0.00  0.00    +0.000 HD
ENDBRANCH  14  20
ENDBRANCH   1  14
TORSDOF 7
ENDMDL
MODEL 9
REMARK VINA RESULT:    -3.621     23.711     24.661
REMARK INTER + INTRA:          -4.873
REMARK INTER:                  -4.740
REMARK INTRA:                  -0.132
REMARK UNBOUND:                -0.088
REMARK  Name = 31276
REMARK  7 active torsions:
REMARK  status: ('A' for Active; 'I' for Inactive)
REMARK    1  A    between atoms: O_1  and  C_5
REMARK    2  A    between atoms: O_1  and  C_8
REMARK    3  A    between atoms: C_3  and  C_4
REMARK    4  A    between atoms: C_3  and  C_6
REMARK    5  A    between atoms: C_3  and  C_7
REMARK    6  A    between atoms: C_4  and  C_5
REMARK    7  A    between atoms: C_8  and  C_9
REMARK                            x       y       z     vdW  Elec       q    Type
REMARK                         _______ _______ _______ _____ _____    ______ ____
ROOT
ATOM      1  C   UNL     1       0.275  -6.593  20.211  0.00  0.00    +0.000 C 
ATOM      2  H   UNL     1      -0.147  -5.689  19.754  0.00  0.00    +0.000 HD
ATOM      3  H   UNL     1       0.503  -7.262  19.371  0.00  0.00    +0.000 HD
ENDROOT
BRANCH   1   4
ATOM      4  C   UNL     1       1.573  -6.235  20.925  0.00  0.00    +0.000 C 
ATOM      5  H   UNL     1       1.490  -5.260  21.416  0.00  0.00    +0.000 HD
ATOM      6  H   UNL     1       1.832  -6.995  21.670  0.00  0.00    +0.000 HD
BRANCH   4   7
ATOM      7  O   UNL     1       2.620  -6.175  19.965  0.00  0.00    +0.000 OA
BRANCH   7   9
ATOM      8  O   UNL     1       3.330  -4.009  20.336  0.00  0.00    +0.000 OA
ATOM      9  C   UNL     1       3.010  -4.922  19.586  0.00  0.00    +0.000 C 
BRANCH   9  10
ATOM     10  C   UNL     1       2.994  -4.811  18.091  0.00  0.00    +0.000 C 
ATOM     11  H   UNL     1       4.018  -4.778  17.711  0.00  0.00    +0.000 HD
ATOM     12  H   UNL     1       2.443  -3.915  17.793  0.00  0.00    +0.000 HD
ATOM     13  H   UNL     1       2.493  -5.686  17.667  0.00  0.00    +0.000 HD
ENDBRANCH   9  10
ENDBRANCH   7   9
ENDBRANCH   4   7
ENDBRANCH   1   4
BRANCH   1  14
ATOM     14  C   UNL     1      -0.774  -7.248  21.125  0.00  0.00    +0.000 C 
ATOM     15  H   UNL     1      -0.497  -7.029  22.164  0.00  0.00    +0.000 HD
BRANCH  14  16
ATOM     16  C   UNL     1      -2.153  -6.647  20.850  0.00  0.00    +0.000 C 
ATOM     17  H   UNL     1      -2.132  -6.074  19.916  0.00  0.00    +0.000 HD
ATOM     18  H   UNL     1      -2.477  -5.961  21.639  0.00  0.00    +0.000 HD
ATOM     19  H   UNL     1      -2.910  -7.430  20.737  0.00  0.00    +0.000 HD
ENDBRANCH  14  16
BRANCH  14  20
ATOM     20  C   UNL     1      -0.829  -8.766  20.953  0.00  0.00    +0.000 C 
ATOM     21  H   UNL     1      -1.792  -9.185  21.262  0.00  0.00    +0.000 HD
ATOM     22  H   UNL     1      -0.053  -9.246  21.558  0.00  0.00    +0.000 HD
ATOM     23  H   UNL     1      -0.654  -9.045  19.908  0.00  0.00    +0.000 HD
ENDBRANCH  14  20
ENDBRANCH   1  14
TORSDOF 7
ENDMDL
MODEL 10
REMARK VINA RESULT:    -3.591     18.920     20.116
REMARK INTER + INTRA:          -4.833
REMARK INTER:                  -4.745
REMARK INTRA:                  -0.088
REMARK UNBOUND:                -0.088
REMARK  Name = 31276
REMARK  7 active torsions:
REMARK  status: ('A' for Active; 'I' for Inactive)
REMARK    1  A    between atoms: O_1  and  C_5
REMARK    2  A    between atoms: O_1  and  C_8
REMARK    3  A    between atoms: C_3  and  C_4
REMARK    4  A    between atoms: C_3  and  C_6
REMARK    5  A    between atoms: C_3  and  C_7
REMARK    6  A    between atoms: C_4  and  C_5
REMARK    7  A    between atoms: C_8  and  C_9
REMARK                            x       y       z     vdW  Elec       q    Type
REMARK                         _______ _______ _______ _____ _____    ______ ____
ROOT
ATOM      1  C   UNL     1      -2.113   9.579  12.975  0.00  0.00    +0.000 C 
ATOM      2  H   UNL     1      -1.181   9.920  13.442  0.00  0.00    +0.000 HD
ATOM      3  H   UNL     1      -2.700  10.490  12.802  0.00  0.00    +0.000 HD
ENDROOT
BRANCH   1   4
ATOM      4  C   UNL     1      -1.793   8.933  11.632  0.00  0.00    +0.000 C 
ATOM      5  H   UNL     1      -1.671   7.851  11.741  0.00  0.00    +0.000 HD
ATOM      6  H   UNL     1      -2.584   9.137  10.902  0.00  0.00    +0.000 HD
BRANCH   4   7
ATOM      7  O   UNL     1      -0.579   9.484  11.139  0.00  0.00    +0.000 OA
BRANCH   7   9
ATOM      8  O   UNL     1       0.060   7.419  10.324  0.00  0.00    +0.000 OA
ATOM      9  C   UNL     1       0.292   8.594  10.574  0.00  0.00    +0.000 C 
BRANCH   9  10
ATOM     10  C   UNL     1       1.601   9.268  10.295  0.00  0.00    +0.000 C 
ATOM     11  H   UNL     1       1.565   9.757   9.319  0.00  0.00    +0.000 HD
ATOM     12  H   UNL     1       2.410   8.532  10.327  0.00  0.00    +0.000 HD
ATOM     13  H   UNL     1       1.790  10.027  11.059  0.00  0.00    +0.000 HD
ENDBRANCH   9  10
ENDBRANCH   7   9
ENDBRANCH   4   7
ENDBRANCH   1   4
BRANCH   1  14
ATOM     14  C   UNL     1      -2.868   8.652  13.943  0.00  0.00    +0.000 C 
ATOM     15  H   UNL     1      -2.640   7.617  13.662  0.00  0.00    +0.000 HD
BRANCH  14  16
ATOM     16  C   UNL     1      -2.383   8.889  15.375  0.00  0.00    +0.000 C 
ATOM     17  H   UNL     1      -1.449   9.461  15.364  0.00  0.00    +0.000 HD
ATOM     18  H   UNL     1      -2.181   7.955  15.908  0.00  0.00    +0.000 HD
ATOM     19  H   UNL     1      -3.116   9.467  15.949  0.00  0.00    +0.000 HD
ENDBRANCH  14  16
BRANCH  14  20
ATOM     20  C   UNL     1      -4.383   8.848  13.872  0.00  0.00    +0.000 C 
ATOM     21  H   UNL     1      -4.681   9.483  13.032  0.00  0.00    +0.000 HD
ATOM     22  H   UNL     1      -4.748   9.323  14.789  0.00  0.00    +0.000 HD
ATOM     23  H   UNL     1      -4.895   7.885  13.772  0.00  0.00    +0.000 HD
ENDBRANCH  14  20
ENDBRANCH   1  14
TORSDOF 7
ENDMDL
