MODEL 1
REMARK VINA RESULT:    -5.640      0.000      0.000
REMARK INTER + INTRA:          -8.378
REMARK INTER:                  -7.878
REMARK INTRA:                  -0.500
REMARK UNBOUND:                -0.595
REMARK  Name = 91604
REMARK  8 active torsions:
REMARK  status: ('A' for Active; 'I' for Inactive)
REMARK    1  A    between atoms: O_1  and  C_11
REMARK    2  A    between atoms: C_3  and  C_7
REMARK    3  A    between atoms: C_4  and  C_15
REMARK    4  A    between atoms: C_7  and  C_8
REMARK    5  A    between atoms: C_8  and  C_10
REMARK    6  A    between atoms: C_10  and  C_11
REMARK    7  A    between atoms: C_11  and  C_13
REMARK    8  A    between atoms: C_11  and  C_14
REMARK                            x       y       z     vdW  Elec       q    Type
REMARK                         _______ _______ _______ _____ _____    ______ ____
ROOT
ATOM      1  C   UNL     1       6.803   0.139  -0.034  0.00  0.00    +0.000 C 
ATOM      2  H   UNL     1       6.326   1.125   0.043  0.00  0.00    +0.000 HD
ATOM      3  H   UNL     1       6.179  -0.549   0.550  0.00  0.00    +0.000 HD
ENDROOT
BRANCH   1   4
ATOM      4  C   UNL     1       6.847  -0.331  -1.458  0.00  0.00    +0.000 C 
ATOM      5  C   UNL     1       6.745  -0.933  -4.300  0.00  0.00    +0.000 C 
ATOM      6  C   UNL     1       7.674   0.499  -2.405  0.00  0.00    +0.000 C 
ATOM      7  C   UNL     1       7.960  -0.192  -3.743  0.00  0.00    +0.000 C 
ATOM      8  C   UNL     1       6.164  -1.920  -3.282  0.00  0.00    +0.000 C 
ATOM      9  C   UNL     1       6.184  -1.427  -1.863  0.00  0.00    +0.000 C 
ATOM     10  H   UNL     1       7.038  -1.487  -5.200  0.00  0.00    +0.000 HD
ATOM     11  H   UNL     1       7.151   1.442  -2.606  0.00  0.00    +0.000 HD
ATOM     12  H   UNL     1       8.632   0.754  -1.939  0.00  0.00    +0.000 HD
ATOM     13  H   UNL     1       8.326   0.552  -4.462  0.00  0.00    +0.000 HD
ATOM     14  H   UNL     1       8.775  -0.915  -3.600  0.00  0.00    +0.000 HD
ATOM     15  H   UNL     1       6.758  -2.843  -3.310  0.00  0.00    +0.000 HD
ATOM     16  H   UNL     1       5.141  -2.208  -3.549  0.00  0.00    +0.000 HD
ATOM     17  H   UNL     1       5.612  -2.009  -1.145  0.00  0.00    +0.000 HD
BRANCH   5  19
ATOM     18  O   UNL     1       5.471   0.296  -5.930  0.00  0.00    +0.000 OA
ATOM     19  C   UNL     1       5.704   0.052  -4.751  0.00  0.00    +0.000 C 
ATOM     20  H   UNL     1       5.154   0.574  -3.948  0.00  0.00    +0.000 HD
ENDBRANCH   5  19
ENDBRANCH   1   4
BRANCH   1  21
ATOM     21  C   UNL     1       8.199   0.202   0.590  0.00  0.00    +0.000 C 
ATOM     22  H   UNL     1       8.161   0.697   1.567  0.00  0.00    +0.000 HD
ATOM     23  H   UNL     1       8.821   0.833  -0.054  0.00  0.00    +0.000 HD
BRANCH  21  24
ATOM     24  C   UNL     1       8.816  -1.198   0.704  0.00  0.00    +0.000 C 
ATOM     25  H   UNL     1       8.080  -1.965   0.434  0.00  0.00    +0.000 HD
ATOM     26  H   UNL     1       9.630  -1.263  -0.029  0.00  0.00    +0.000 HD
BRANCH  24  27
ATOM     27  C   UNL     1       9.381  -1.536   2.098  0.00  0.00    +0.000 C 
BRANCH  27  28
ATOM     28  C   UNL     1      10.590  -0.673   2.466  0.00  0.00    +0.000 C 
ATOM     29  H   UNL     1      10.644  -0.488   3.544  0.00  0.00    +0.000 HD
ATOM     30  H   UNL     1      11.527  -1.139   2.146  0.00  0.00    +0.000 HD
ATOM     31  H   UNL     1      10.516   0.314   1.997  0.00  0.00    +0.000 HD
ENDBRANCH  27  28
BRANCH  27  32
ATOM     32  C   UNL     1       8.281  -1.371   3.153  0.00  0.00    +0.000 C 
ATOM     33  H   UNL     1       7.963  -2.336   3.560  0.00  0.00    +0.000 HD
ATOM     34  H   UNL     1       7.405  -0.868   2.726  0.00  0.00    +0.000 HD
ATOM     35  H   UNL     1       8.625  -0.739   3.980  0.00  0.00    +0.000 HD
ENDBRANCH  27  32
BRANCH  27  36
ATOM     36  O   UNL     1       9.786  -2.907   2.099  0.00  0.00    +0.000 OA
ATOM     37  H   UNL     1       9.962  -3.178   3.016  0.00  0.00    +0.000 HD
ENDBRANCH  27  36
ENDBRANCH  24  27
ENDBRANCH  21  24
ENDBRANCH   1  21
TORSDOF 8
ENDMDL
MODEL 2
REMARK VINA RESULT:    -5.375      1.376      2.066
REMARK INTER + INTRA:          -8.013
REMARK INTER:                  -7.678
REMARK INTRA:                  -0.336
REMARK UNBOUND:                -0.595
REMARK  Name = 91604
REMARK  8 active torsions:
REMARK  status: ('A' for Active; 'I' for Inactive)
REMARK    1  A    between atoms: O_1  and  C_11
REMARK    2  A    between atoms: C_3  and  C_7
REMARK    3  A    between atoms: C_4  and  C_15
REMARK    4  A    between atoms: C_7  and  C_8
REMARK    5  A    between atoms: C_8  and  C_10
REMARK    6  A    between atoms: C_10  and  C_11
REMARK    7  A    between atoms: C_11  and  C_13
REMARK    8  A    between atoms: C_11  and  C_14
REMARK                            x       y       z     vdW  Elec       q    Type
REMARK                         _______ _______ _______ _____ _____    ______ ____
ROOT
ATOM      1  C   UNL     1       7.006  -0.009   0.428  0.00  0.00    +0.000 C 
ATOM      2  H   UNL     1       6.585   0.920   0.834  0.00  0.00    +0.000 HD
ATOM      3  H   UNL     1       6.500  -0.830   0.953  0.00  0.00    +0.000 HD
ENDROOT
BRANCH   1   4
ATOM      4  C   UNL     1       6.735  -0.131  -1.042  0.00  0.00    +0.000 C 
ATOM      5  C   UNL     1       6.569  -0.465  -3.925  0.00  0.00    +0.000 C 
ATOM      6  C   UNL     1       6.803  -1.522  -1.616  0.00  0.00    +0.000 C 
ATOM      7  C   UNL     1       6.201  -1.641  -3.021  0.00  0.00    +0.000 C 
ATOM      8  C   UNL     1       6.213   0.880  -3.284  0.00  0.00    +0.000 C 
ATOM      9  C   UNL     1       6.454   0.941  -1.803  0.00  0.00    +0.000 C 
ATOM     10  H   UNL     1       6.031  -0.555  -4.876  0.00  0.00    +0.000 HD
ATOM     11  H   UNL     1       7.851  -1.842  -1.659  0.00  0.00    +0.000 HD
ATOM     12  H   UNL     1       6.278  -2.224  -0.959  0.00  0.00    +0.000 HD
ATOM     13  H   UNL     1       6.517  -2.591  -3.470  0.00  0.00    +0.000 HD
ATOM     14  H   UNL     1       5.107  -1.685  -2.934  0.00  0.00    +0.000 HD
ATOM     15  H   UNL     1       5.144   1.073  -3.444  0.00  0.00    +0.000 HD
ATOM     16  H   UNL     1       6.748   1.705  -3.769  0.00  0.00    +0.000 HD
ATOM     17  H   UNL     1       6.399   1.927  -1.347  0.00  0.00    +0.000 HD
BRANCH   5  19
ATOM     18  O   UNL     1       8.446  -0.930  -5.358  0.00  0.00    +0.000 OA
ATOM     19  C   UNL     1       8.028  -0.524  -4.278  0.00  0.00    +0.000 C 
ATOM     20  H   UNL     1       8.729  -0.193  -3.492  0.00  0.00    +0.000 HD
ENDBRANCH   5  19
ENDBRANCH   1   4
BRANCH   1  21
ATOM     21  C   UNL     1       8.504  -0.064   0.739  0.00  0.00    +0.000 C 
ATOM     22  H   UNL     1       8.766   0.682   1.497  0.00  0.00    +0.000 HD
ATOM     23  H   UNL     1       9.041   0.217  -0.173  0.00  0.00    +0.000 HD
BRANCH  21  24
ATOM     24  C   UNL     1       8.924  -1.472   1.181  0.00  0.00    +0.000 C 
ATOM     25  H   UNL     1       8.146  -2.202   0.930  0.00  0.00    +0.000 HD
ATOM     26  H   UNL     1       9.818  -1.747   0.607  0.00  0.00    +0.000 HD
BRANCH  24  27
ATOM     27  C   UNL     1       9.246  -1.600   2.684  0.00  0.00    +0.000 C 
BRANCH  27  28
ATOM     28  C   UNL     1       7.991  -1.566   3.558  0.00  0.00    +0.000 C 
ATOM     29  H   UNL     1       8.107  -2.177   4.459  0.00  0.00    +0.000 HD
ATOM     30  H   UNL     1       7.740  -0.545   3.860  0.00  0.00    +0.000 HD
ATOM     31  H   UNL     1       7.134  -1.988   3.020  0.00  0.00    +0.000 HD
ENDBRANCH  27  28
BRANCH  27  32
ATOM     32  C   UNL     1      10.021  -2.899   2.933  0.00  0.00    +0.000 C 
ATOM     33  H   UNL     1       9.483  -3.771   2.550  0.00  0.00    +0.000 HD
ATOM     34  H   UNL     1      10.201  -3.045   4.005  0.00  0.00    +0.000 HD
ATOM     35  H   UNL     1      11.009  -2.862   2.458  0.00  0.00    +0.000 HD
ENDBRANCH  27  32
BRANCH  27  36
ATOM     36  O   UNL     1      10.089  -0.509   3.058  0.00  0.00    +0.000 OA
ATOM     37  H   UNL     1      10.714  -0.336   2.333  0.00  0.00    +0.000 HD
ENDBRANCH  27  36
ENDBRANCH  24  27
ENDBRANCH  21  24
ENDBRANCH   1  21
TORSDOF 8
ENDMDL
MODEL 3
REMARK VINA RESULT:    -5.193      3.151      5.156
REMARK INTER + INTRA:          -7.761
REMARK INTER:                  -7.132
REMARK INTRA:                  -0.630
REMARK UNBOUND:                -0.595
REMARK  Name = 91604
REMARK  8 active torsions:
REMARK  status: ('A' for Active; 'I' for Inactive)
REMARK    1  A    between atoms: O_1  and  C_11
REMARK    2  A    between atoms: C_3  and  C_7
REMARK    3  A    between atoms: C_4  and  C_15
REMARK    4  A    between atoms: C_7  and  C_8
REMARK    5  A    between atoms: C_8  and  C_10
REMARK    6  A    between atoms: C_10  and  C_11
REMARK    7  A    between atoms: C_11  and  C_13
REMARK    8  A    between atoms: C_11  and  C_14
REMARK                            x       y       z     vdW  Elec       q    Type
REMARK                         _______ _______ _______ _____ _____    ______ ____
ROOT
ATOM      1  C   UNL     1       7.134  -1.179  -0.967  0.00  0.00    +0.000 C 
ATOM      2  H   UNL     1       6.765  -1.901  -0.228  0.00  0.00    +0.000 HD
ATOM      3  H   UNL     1       6.654  -1.441  -1.918  0.00  0.00    +0.000 HD
ENDROOT
BRANCH   1   4
ATOM      4  C   UNL     1       6.749   0.222  -0.595  0.00  0.00    +0.000 C 
ATOM      5  C   UNL     1       6.365   3.022   0.087  0.00  0.00    +0.000 C 
ATOM      6  C   UNL     1       6.893   1.259  -1.678  0.00  0.00    +0.000 C 
ATOM      7  C   UNL     1       6.185   2.582  -1.366  0.00  0.00    +0.000 C 
ATOM      8  C   UNL     1       5.945   1.925   1.070  0.00  0.00    +0.000 C 
ATOM      9  C   UNL     1       6.307   0.534   0.635  0.00  0.00    +0.000 C 
ATOM     10  H   UNL     1       5.756   3.915   0.274  0.00  0.00    +0.000 HD
ATOM     11  H   UNL     1       7.958   1.465  -1.840  0.00  0.00    +0.000 HD
ATOM     12  H   UNL     1       6.493   0.871  -2.622  0.00  0.00    +0.000 HD
ATOM     13  H   UNL     1       6.546   3.356  -2.055  0.00  0.00    +0.000 HD
ATOM     14  H   UNL     1       5.111   2.463  -1.565  0.00  0.00    +0.000 HD
ATOM     15  H   UNL     1       4.853   1.953   1.182  0.00  0.00    +0.000 HD
ATOM     16  H   UNL     1       6.358   2.109   2.069  0.00  0.00    +0.000 HD
ATOM     17  H   UNL     1       6.202  -0.246   1.385  0.00  0.00    +0.000 HD
BRANCH   5  19
ATOM     18  O   UNL     1       8.100   4.406   1.018  0.00  0.00    +0.000 OA
ATOM     19  C   UNL     1       7.787   3.444   0.324  0.00  0.00    +0.000 C 
ATOM     20  H   UNL     1       8.560   2.841  -0.183  0.00  0.00    +0.000 HD
ENDBRANCH   5  19
ENDBRANCH   1   4
BRANCH   1  21
ATOM     21  C   UNL     1       8.650  -1.335  -1.112  0.00  0.00    +0.000 C 
ATOM     22  H   UNL     1       9.053  -1.948  -0.300  0.00  0.00    +0.000 HD
ATOM     23  H   UNL     1       9.097  -0.340  -1.002  0.00  0.00    +0.000 HD
BRANCH  21  24
ATOM     24  C   UNL     1       9.016  -1.923  -2.481  0.00  0.00    +0.000 C 
ATOM     25  H   UNL     1       9.644  -2.813  -2.362  0.00  0.00    +0.000 HD
ATOM     26  H   UNL     1       8.084  -2.250  -2.961  0.00  0.00    +0.000 HD
BRANCH  24  27
ATOM     27  C   UNL     1       9.737  -0.941  -3.427  0.00  0.00    +0.000 C 
BRANCH  27  28
ATOM     28  C   UNL     1      10.311   0.270  -2.689  0.00  0.00    +0.000 C 
ATOM     29  H   UNL     1      11.226   0.638  -3.164  0.00  0.00    +0.000 HD
ATOM     30  H   UNL     1       9.588   1.091  -2.643  0.00  0.00    +0.000 HD
ATOM     31  H   UNL     1      10.593   0.000  -1.665  0.00  0.00    +0.000 HD
ENDBRANCH  27  28
BRANCH  27  32
ATOM     32  C   UNL     1      10.855  -1.676  -4.174  0.00  0.00    +0.000 C 
ATOM     33  H   UNL     1      11.667  -0.998  -4.455  0.00  0.00    +0.000 HD
ATOM     34  H   UNL     1      10.469  -2.151  -5.083  0.00  0.00    +0.000 HD
ATOM     35  H   UNL     1      11.272  -2.483  -3.559  0.00  0.00    +0.000 HD
ENDBRANCH  27  32
BRANCH  27  36
ATOM     36  O   UNL     1       8.795  -0.477  -4.397  0.00  0.00    +0.000 OA
ATOM     37  H   UNL     1       8.214  -1.217  -4.644  0.00  0.00    +0.000 HD
ENDBRANCH  27  36
ENDBRANCH  24  27
ENDBRANCH  21  24
ENDBRANCH   1  21
TORSDOF 8
ENDMDL
MODEL 4
REMARK VINA RESULT:    -4.998      1.906      5.488
REMARK INTER + INTRA:          -7.493
REMARK INTER:                  -7.510
REMARK INTRA:                   0.017
REMARK UNBOUND:                -0.595
REMARK  Name = 91604
REMARK  8 active torsions:
REMARK  status: ('A' for Active; 'I' for Inactive)
REMARK    1  A    between atoms: O_1  and  C_11
REMARK    2  A    between atoms: C_3  and  C_7
REMARK    3  A    between atoms: C_4  and  C_15
REMARK    4  A    between atoms: C_7  and  C_8
REMARK    5  A    between atoms: C_8  and  C_10
REMARK    6  A    between atoms: C_10  and  C_11
REMARK    7  A    between atoms: C_11  and  C_13
REMARK    8  A    between atoms: C_11  and  C_14
REMARK                            x       y       z     vdW  Elec       q    Type
REMARK                         _______ _______ _______ _____ _____    ______ ____
ROOT
ATOM      1  C   UNL     1       6.638   2.532  -0.714  0.00  0.00    +0.000 C 
ATOM      2  H   UNL     1       5.908   3.020  -0.056  0.00  0.00    +0.000 HD
ATOM      3  H   UNL     1       7.348   3.312  -1.015  0.00  0.00    +0.000 HD
ENDROOT
BRANCH   1   4
ATOM      4  C   UNL     1       7.381   1.448   0.009  0.00  0.00    +0.000 C 
ATOM      5  C   UNL     1       8.891  -0.796   1.074  0.00  0.00    +0.000 C 
ATOM      6  C   UNL     1       8.872   1.412  -0.202  0.00  0.00    +0.000 C 
ATOM      7  C   UNL     1       9.617   0.521   0.799  0.00  0.00    +0.000 C 
ATOM      8  C   UNL     1       7.441  -0.567   1.511  0.00  0.00    +0.000 C 
ATOM      9  C   UNL     1       6.751   0.559   0.795  0.00  0.00    +0.000 C 
ATOM     10  H   UNL     1       9.416  -1.341   1.868  0.00  0.00    +0.000 HD
ATOM     11  H   UNL     1       9.083   1.048  -1.215  0.00  0.00    +0.000 HD
ATOM     12  H   UNL     1       9.284   2.425  -0.131  0.00  0.00    +0.000 HD
ATOM     13  H   UNL     1      10.634   0.336   0.430  0.00  0.00    +0.000 HD
ATOM     14  H   UNL     1       9.722   1.066   1.747  0.00  0.00    +0.000 HD
ATOM     15  H   UNL     1       7.432  -0.322   2.582  0.00  0.00    +0.000 HD
ATOM     16  H   UNL     1       6.845  -1.481   1.403  0.00  0.00    +0.000 HD
ATOM     17  H   UNL     1       5.675   0.629   0.935  0.00  0.00    +0.000 HD
BRANCH   5  19
ATOM     18  O   UNL     1       9.289  -1.283  -1.249  0.00  0.00    +0.000 OA
ATOM     19  C   UNL     1       8.956  -1.682  -0.138  0.00  0.00    +0.000 C 
ATOM     20  H   UNL     1       8.665  -2.735   0.019  0.00  0.00    +0.000 HD
ENDBRANCH   5  19
ENDBRANCH   1   4
BRANCH   1  21
ATOM     21  C   UNL     1       5.921   2.000  -1.958  0.00  0.00    +0.000 C 
ATOM     22  H   UNL     1       5.674   2.821  -2.639  0.00  0.00    +0.000 HD
ATOM     23  H   UNL     1       4.969   1.568  -1.632  0.00  0.00    +0.000 HD
BRANCH  21  24
ATOM     24  C   UNL     1       6.765   0.931  -2.665  0.00  0.00    +0.000 C 
ATOM     25  H   UNL     1       7.491   1.398  -3.341  0.00  0.00    +0.000 HD
ATOM     26  H   UNL     1       7.340   0.399  -1.896  0.00  0.00    +0.000 HD
BRANCH  24  27
ATOM     27  C   UNL     1       5.947  -0.101  -3.468  0.00  0.00    +0.000 C 
BRANCH  27  28
ATOM     28  C   UNL     1       4.957   0.556  -4.431  0.00  0.00    +0.000 C 
ATOM     29  H   UNL     1       4.066  -0.062  -4.583  0.00  0.00    +0.000 HD
ATOM     30  H   UNL     1       4.640   1.540  -4.072  0.00  0.00    +0.000 HD
ATOM     31  H   UNL     1       5.407   0.680  -5.423  0.00  0.00    +0.000 HD
ENDBRANCH  27  28
BRANCH  27  32
ATOM     32  C   UNL     1       6.899  -1.019  -4.244  0.00  0.00    +0.000 C 
ATOM     33  H   UNL     1       6.804  -0.879  -5.325  0.00  0.00    +0.000 HD
ATOM     34  H   UNL     1       6.700  -2.072  -4.011  0.00  0.00    +0.000 HD
ATOM     35  H   UNL     1       7.941  -0.833  -3.958  0.00  0.00    +0.000 HD
ENDBRANCH  27  32
BRANCH  27  36
ATOM     36  O   UNL     1       5.214  -0.910  -2.546  0.00  0.00    +0.000 OA
ATOM     37  H   UNL     1       5.156  -1.812  -2.903  0.00  0.00    +0.000 HD
ENDBRANCH  27  36
ENDBRANCH  24  27
ENDBRANCH  21  24
ENDBRANCH   1  21
TORSDOF 8
ENDMDL
MODEL 5
REMARK VINA RESULT:    -4.882      1.375      6.656
REMARK INTER + INTRA:          -7.333
REMARK INTER:                  -6.925
REMARK INTRA:                  -0.408
REMARK UNBOUND:                -0.595
REMARK  Name = 91604
REMARK  8 active torsions:
REMARK  status: ('A' for Active; 'I' for Inactive)
REMARK    1  A    between atoms: O_1  and  C_11
REMARK    2  A    between atoms: C_3  and  C_7
REMARK    3  A    between atoms: C_4  and  C_15
REMARK    4  A    between atoms: C_7  and  C_8
REMARK    5  A    between atoms: C_8  and  C_10
REMARK    6  A    between atoms: C_10  and  C_11
REMARK    7  A    between atoms: C_11  and  C_13
REMARK    8  A    between atoms: C_11  and  C_14
REMARK                            x       y       z     vdW  Elec       q    Type
REMARK                         _______ _______ _______ _____ _____    ______ ____
ROOT
ATOM      1  C   UNL     1       7.532   0.668  -0.390  0.00  0.00    +0.000 C 
ATOM      2  H   UNL     1       6.543   0.213  -0.255  0.00  0.00    +0.000 HD
ATOM      3  H   UNL     1       7.423   1.726  -0.122  0.00  0.00    +0.000 HD
ENDROOT
BRANCH   1   4
ATOM      4  C   UNL     1       8.547   0.038   0.518  0.00  0.00    +0.000 C 
ATOM      5  C   UNL     1      10.265  -1.132   2.550  0.00  0.00    +0.000 C 
ATOM      6  C   UNL     1       8.179  -1.305   1.094  0.00  0.00    +0.000 C 
ATOM      7  C   UNL     1       9.359  -2.049   1.729  0.00  0.00    +0.000 C 
ATOM      8  C   UNL     1      10.746   0.071   1.734  0.00  0.00    +0.000 C 
ATOM      9  C   UNL     1       9.714   0.640   0.804  0.00  0.00    +0.000 C 
ATOM     10  H   UNL     1      11.140  -1.698   2.893  0.00  0.00    +0.000 HD
ATOM     11  H   UNL     1       7.402  -1.168   1.856  0.00  0.00    +0.000 HD
ATOM     12  H   UNL     1       7.753  -1.943   0.311  0.00  0.00    +0.000 HD
ATOM     13  H   UNL     1       8.976  -2.872   2.346  0.00  0.00    +0.000 HD
ATOM     14  H   UNL     1       9.957  -2.509   0.931  0.00  0.00    +0.000 HD
ATOM     15  H   UNL     1      11.599  -0.242   1.116  0.00  0.00    +0.000 HD
ATOM     16  H   UNL     1      11.120   0.869   2.387  0.00  0.00    +0.000 HD
ATOM     17  H   UNL     1       9.949   1.602   0.355  0.00  0.00    +0.000 HD
BRANCH   5  19
ATOM     18  O   UNL     1       8.998  -1.463   4.570  0.00  0.00    +0.000 OA
ATOM     19  C   UNL     1       9.555  -0.689   3.798  0.00  0.00    +0.000 C 
ATOM     20  H   UNL     1       9.541   0.399   3.984  0.00  0.00    +0.000 HD
ENDBRANCH   5  19
ENDBRANCH   1   4
BRANCH   1  21
ATOM     21  C   UNL     1       7.940   0.564  -1.861  0.00  0.00    +0.000 C 
ATOM     22  H   UNL     1       8.379  -0.418  -2.070  0.00  0.00    +0.000 HD
ATOM     23  H   UNL     1       8.731   1.302  -2.039  0.00  0.00    +0.000 HD
BRANCH  21  24
ATOM     24  C   UNL     1       6.748   0.843  -2.785  0.00  0.00    +0.000 C 
ATOM     25  H   UNL     1       5.820   0.909  -2.206  0.00  0.00    +0.000 HD
ATOM     26  H   UNL     1       6.908   1.827  -3.245  0.00  0.00    +0.000 HD
BRANCH  24  27
ATOM     27  C   UNL     1       6.549  -0.197  -3.906  0.00  0.00    +0.000 C 
BRANCH  27  28
ATOM     28  C   UNL     1       6.307  -1.607  -3.362  0.00  0.00    +0.000 C 
ATOM     29  H   UNL     1       6.962  -1.834  -2.514  0.00  0.00    +0.000 HD
ATOM     30  H   UNL     1       5.268  -1.741  -3.045  0.00  0.00    +0.000 HD
ATOM     31  H   UNL     1       6.536  -2.360  -4.125  0.00  0.00    +0.000 HD
ENDBRANCH  27  28
BRANCH  27  32
ATOM     32  C   UNL     1       5.378   0.226  -4.798  0.00  0.00    +0.000 C 
ATOM     33  H   UNL     1       4.413   0.045  -4.313  0.00  0.00    +0.000 HD
ATOM     34  H   UNL     1       5.395  -0.319  -5.749  0.00  0.00    +0.000 HD
ATOM     35  H   UNL     1       5.445   1.290  -5.054  0.00  0.00    +0.000 HD
ENDBRANCH  27  32
BRANCH  27  36
ATOM     36  O   UNL     1       7.729  -0.220  -4.713  0.00  0.00    +0.000 OA
ATOM     37  H   UNL     1       8.457   0.181  -4.208  0.00  0.00    +0.000 HD
ENDBRANCH  27  36
ENDBRANCH  24  27
ENDBRANCH  21  24
ENDBRANCH   1  21
TORSDOF 8
ENDMDL
MODEL 6
REMARK VINA RESULT:    -4.873     27.493     28.802
REMARK INTER + INTRA:          -7.320
REMARK INTER:                  -6.951
REMARK INTRA:                  -0.369
REMARK UNBOUND:                -0.595
REMARK  Name = 91604
REMARK  8 active torsions:
REMARK  status: ('A' for Active; 'I' for Inactive)
REMARK    1  A    between atoms: O_1  and  C_11
REMARK    2  A    between atoms: C_3  and  C_7
REMARK    3  A    between atoms: C_4  and  C_15
REMARK    4  A    between atoms: C_7  and  C_8
REMARK    5  A    between atoms: C_8  and  C_10
REMARK    6  A    between atoms: C_10  and  C_11
REMARK    7  A    between atoms: C_11  and  C_13
REMARK    8  A    between atoms: C_11  and  C_14
REMARK                            x       y       z     vdW  Elec       q    Type
REMARK                         _______ _______ _______ _____ _____    ______ ____
ROOT
ATOM      1  C   UNL     1     -19.091 -12.513   3.322  0.00  0.00    +0.000 C 
ATOM      2  H   UNL     1     -20.170 -12.494   3.125  0.00  0.00    +0.000 HD
ATOM      3  H   UNL     1     -18.709 -13.428   2.850  0.00  0.00    +0.000 HD
ENDROOT
BRANCH   1   4
ATOM      4  C   UNL     1     -18.406 -11.327   2.710  0.00  0.00    +0.000 C 
ATOM      5  C   UNL     1     -16.784  -9.253   1.479  0.00  0.00    +0.000 C 
ATOM      6  C   UNL     1     -18.093 -11.428   1.240  0.00  0.00    +0.000 C 
ATOM      7  C   UNL     1     -17.709 -10.090   0.596  0.00  0.00    +0.000 C 
ATOM      8  C   UNL     1     -17.368  -9.044   2.879  0.00  0.00    +0.000 C 
ATOM      9  C   UNL     1     -18.086 -10.241   3.434  0.00  0.00    +0.000 C 
ATOM     10  H   UNL     1     -16.627  -8.272   1.013  0.00  0.00    +0.000 HD
ATOM     11  H   UNL     1     -17.266 -12.133   1.095  0.00  0.00    +0.000 HD
ATOM     12  H   UNL     1     -18.958 -11.831   0.700  0.00  0.00    +0.000 HD
ATOM     13  H   UNL     1     -17.249 -10.279  -0.382  0.00  0.00    +0.000 HD
ATOM     14  H   UNL     1     -18.625  -9.514   0.405  0.00  0.00    +0.000 HD
ATOM     15  H   UNL     1     -18.095  -8.222   2.838  0.00  0.00    +0.000 HD
ATOM     16  H   UNL     1     -16.593  -8.729   3.589  0.00  0.00    +0.000 HD
ATOM     17  H   UNL     1     -18.344 -10.200   4.489  0.00  0.00    +0.000 HD
BRANCH   5  19
ATOM     18  O   UNL     1     -14.644  -9.922   0.604  0.00  0.00    +0.000 OA
ATOM     19  C   UNL     1     -15.425  -9.889   1.550  0.00  0.00    +0.000 C 
ATOM     20  H   UNL     1     -15.161 -10.355   2.515  0.00  0.00    +0.000 HD
ENDBRANCH   5  19
ENDBRANCH   1   4
BRANCH   1  21
ATOM     21  C   UNL     1     -18.854 -12.592   4.832  0.00  0.00    +0.000 C 
ATOM     22  H   UNL     1     -18.689 -11.592   5.248  0.00  0.00    +0.000 HD
ATOM     23  H   UNL     1     -17.926 -13.152   4.993  0.00  0.00    +0.000 HD
BRANCH  21  24
ATOM     24  C   UNL     1     -20.019 -13.298   5.537  0.00  0.00    +0.000 C 
ATOM     25  H   UNL     1     -20.916 -13.284   4.906  0.00  0.00    +0.000 HD
ATOM     26  H   UNL     1     -19.738 -14.351   5.669  0.00  0.00    +0.000 HD
BRANCH  24  27
ATOM     27  C   UNL     1     -20.384 -12.710   6.915  0.00  0.00    +0.000 C 
BRANCH  27  28
ATOM     28  C   UNL     1     -21.885 -12.782   7.205  0.00  0.00    +0.000 C 
ATOM     29  H   UNL     1     -22.481 -12.478   6.339  0.00  0.00    +0.000 HD
ATOM     30  H   UNL     1     -22.188 -13.791   7.500  0.00  0.00    +0.000 HD
ATOM     31  H   UNL     1     -22.156 -12.090   8.011  0.00  0.00    +0.000 HD
ENDBRANCH  27  28
BRANCH  27  32
ATOM     32  C   UNL     1     -19.605 -13.446   8.010  0.00  0.00    +0.000 C 
ATOM     33  H   UNL     1     -20.213 -14.221   8.488  0.00  0.00    +0.000 HD
ATOM     34  H   UNL     1     -19.263 -12.747   8.782  0.00  0.00    +0.000 HD
ATOM     35  H   UNL     1     -18.702 -13.915   7.600  0.00  0.00    +0.000 HD
ENDBRANCH  27  32
BRANCH  27  36
ATOM     36  O   UNL     1     -19.983 -11.338   6.939  0.00  0.00    +0.000 OA
ATOM     37  H   UNL     1     -19.688 -11.086   6.048  0.00  0.00    +0.000 HD
ENDBRANCH  27  36
ENDBRANCH  24  27
ENDBRANCH  21  24
ENDBRANCH   1  21
TORSDOF 8
ENDMDL
MODEL 7
REMARK VINA RESULT:    -4.812     17.577     19.550
REMARK INTER + INTRA:          -7.235
REMARK INTER:                  -6.453
REMARK INTRA:                  -0.782
REMARK UNBOUND:                -0.595
REMARK  Name = 91604
REMARK  8 active torsions:
REMARK  status: ('A' for Active; 'I' for Inactive)
REMARK    1  A    between atoms: O_1  and  C_11
REMARK    2  A    between atoms: C_3  and  C_7
REMARK    3  A    between atoms: C_4  and  C_15
REMARK    4  A    between atoms: C_7  and  C_8
REMARK    5  A    between atoms: C_8  and  C_10
REMARK    6  A    between atoms: C_10  and  C_11
REMARK    7  A    between atoms: C_11  and  C_13
REMARK    8  A    between atoms: C_11  and  C_14
REMARK                            x       y       z     vdW  Elec       q    Type
REMARK                         _______ _______ _______ _____ _____    ______ ____
ROOT
ATOM      1  C   UNL     1      -1.250  11.271  11.475  0.00  0.00    +0.000 C 
ATOM      2  H   UNL     1      -1.995  12.056  11.296  0.00  0.00    +0.000 HD
ATOM      3  H   UNL     1      -0.348  11.780  11.838  0.00  0.00    +0.000 HD
ENDROOT
BRANCH   1   4
ATOM      4  C   UNL     1      -1.720  10.305  12.521  0.00  0.00    +0.000 C 
ATOM      5  C   UNL     1      -2.977   8.504  14.426  0.00  0.00    +0.000 C 
ATOM      6  C   UNL     1      -2.322   9.020  12.016  0.00  0.00    +0.000 C 
ATOM      7  C   UNL     1      -2.476   7.942  13.095  0.00  0.00    +0.000 C 
ATOM      8  C   UNL     1      -2.104   9.661  14.920  0.00  0.00    +0.000 C 
ATOM      9  C   UNL     1      -1.615  10.575  13.834  0.00  0.00    +0.000 C 
ATOM     10  H   UNL     1      -2.969   7.708  15.181  0.00  0.00    +0.000 HD
ATOM     11  H   UNL     1      -3.312   9.230  11.590  0.00  0.00    +0.000 HD
ATOM     12  H   UNL     1      -1.705   8.610  11.208  0.00  0.00    +0.000 HD
ATOM     13  H   UNL     1      -3.146   7.156  12.727  0.00  0.00    +0.000 HD
ATOM     14  H   UNL     1      -1.499   7.468  13.262  0.00  0.00    +0.000 HD
ATOM     15  H   UNL     1      -1.216   9.244  15.415  0.00  0.00    +0.000 HD
ATOM     16  H   UNL     1      -2.625  10.254  15.681  0.00  0.00    +0.000 HD
ATOM     17  H   UNL     1      -1.159  11.506  14.158  0.00  0.00    +0.000 HD
BRANCH   5  19
ATOM     18  O   UNL     1      -5.306   8.180  13.911  0.00  0.00    +0.000 OA
ATOM     19  C   UNL     1      -4.412   8.928  14.297  0.00  0.00    +0.000 C 
ATOM     20  H   UNL     1      -4.630   9.978  14.557  0.00  0.00    +0.000 HD
ENDBRANCH   5  19
ENDBRANCH   1   4
BRANCH   1  21
ATOM     21  C   UNL     1      -0.928  10.568  10.153  0.00  0.00    +0.000 C 
ATOM     22  H   UNL     1      -1.622  10.889   9.369  0.00  0.00    +0.000 HD
ATOM     23  H   UNL     1      -1.098   9.495  10.299  0.00  0.00    +0.000 HD
BRANCH  21  24
ATOM     24  C   UNL     1       0.528  10.814   9.737  0.00  0.00    +0.000 C 
ATOM     25  H   UNL     1       0.600  10.950   8.651  0.00  0.00    +0.000 HD
ATOM     26  H   UNL     1       0.850  11.757  10.199  0.00  0.00    +0.000 HD
BRANCH  24  27
ATOM     27  C   UNL     1       1.509   9.701  10.155  0.00  0.00    +0.000 C 
BRANCH  27  28
ATOM     28  C   UNL     1       2.225  10.013  11.471  0.00  0.00    +0.000 C 
ATOM     29  H   UNL     1       1.998  11.023  11.828  0.00  0.00    +0.000 HD
ATOM     30  H   UNL     1       1.952   9.298  12.255  0.00  0.00    +0.000 HD
ATOM     31  H   UNL     1       3.312   9.981  11.337  0.00  0.00    +0.000 HD
ENDBRANCH  27  28
BRANCH  27  32
ATOM     32  C   UNL     1       0.757   8.371  10.272  0.00  0.00    +0.000 C 
ATOM     33  H   UNL     1       1.216   7.591   9.656  0.00  0.00    +0.000 HD
ATOM     34  H   UNL     1      -0.289   8.486   9.964  0.00  0.00    +0.000 HD
ATOM     35  H   UNL     1       0.734   8.025  11.312  0.00  0.00    +0.000 HD
ENDBRANCH  27  32
BRANCH  27  36
ATOM     36  O   UNL     1       2.493   9.559   9.128  0.00  0.00    +0.000 OA
ATOM     37  H   UNL     1       3.259  10.113   9.354  0.00  0.00    +0.000 HD
ENDBRANCH  27  36
ENDBRANCH  24  27
ENDBRANCH  21  24
ENDBRANCH   1  21
TORSDOF 8
ENDMDL
MODEL 8
REMARK VINA RESULT:    -4.742     17.252     19.071
REMARK INTER + INTRA:          -7.139
REMARK INTER:                  -6.476
REMARK INTRA:                  -0.663
REMARK UNBOUND:                -0.595
REMARK  Name = 91604
REMARK  8 active torsions:
REMARK  status: ('A' for Active; 'I' for Inactive)
REMARK    1  A    between atoms: O_1  and  C_11
REMARK    2  A    between atoms: C_3  and  C_7
REMARK    3  A    between atoms: C_4  and  C_15
REMARK    4  A    between atoms: C_7  and  C_8
REMARK    5  A    between atoms: C_8  and  C_10
REMARK    6  A    between atoms: C_10  and  C_11
REMARK    7  A    between atoms: C_11  and  C_13
REMARK    8  A    between atoms: C_11  and  C_14
REMARK                            x       y       z     vdW  Elec       q    Type
REMARK                         _______ _______ _______ _____ _____    ______ ____
ROOT
ATOM      1  C   UNL     1       5.872  15.382 -12.161  0.00  0.00    +0.000 C 
ATOM      2  H   UNL     1       5.914  16.445 -12.432  0.00  0.00    +0.000 HD
ATOM      3  H   UNL     1       6.850  14.960 -12.426  0.00  0.00    +0.000 HD
ENDROOT
BRANCH   1   4
ATOM      4  C   UNL     1       5.648  15.205 -10.689  0.00  0.00    +0.000 C 
ATOM      5  C   UNL     1       4.982  15.154  -7.860  0.00  0.00    +0.000 C 
ATOM      6  C   UNL     1       4.269  14.762 -10.276  0.00  0.00    +0.000 C 
ATOM      7  C   UNL     1       4.183  14.278  -8.824  0.00  0.00    +0.000 C 
ATOM      8  C   UNL     1       6.439  15.309  -8.305  0.00  0.00    +0.000 C 
ATOM      9  C   UNL     1       6.621  15.435  -9.790  0.00  0.00    +0.000 C 
ATOM     10  H   UNL     1       4.965  14.702  -6.860  0.00  0.00    +0.000 HD
ATOM     11  H   UNL     1       3.569  15.598 -10.406  0.00  0.00    +0.000 HD
ATOM     12  H   UNL     1       3.926  13.951 -10.928  0.00  0.00    +0.000 HD
ATOM     13  H   UNL     1       3.129  14.227  -8.523  0.00  0.00    +0.000 HD
ATOM     14  H   UNL     1       4.573  13.253  -8.771  0.00  0.00    +0.000 HD
ATOM     15  H   UNL     1       7.000  14.421  -7.985  0.00  0.00    +0.000 HD
ATOM     16  H   UNL     1       6.916  16.164  -7.811  0.00  0.00    +0.000 HD
ATOM     17  H   UNL     1       7.608  15.737 -10.130  0.00  0.00    +0.000 HD
BRANCH   5  19
ATOM     18  O   UNL     1       4.871  17.471  -7.216  0.00  0.00    +0.000 OA
ATOM     19  C   UNL     1       4.318  16.493  -7.710  0.00  0.00    +0.000 C 
ATOM     20  H   UNL     1       3.273  16.555  -8.061  0.00  0.00    +0.000 HD
ENDBRANCH   5  19
ENDBRANCH   1   4
BRANCH   1  21
ATOM     21  C   UNL     1       4.787  14.691 -12.991  0.00  0.00    +0.000 C 
ATOM     22  H   UNL     1       4.655  15.200 -13.951  0.00  0.00    +0.000 HD
ATOM     23  H   UNL     1       3.840  14.797 -12.450  0.00  0.00    +0.000 HD
BRANCH  21  24
ATOM     24  C   UNL     1       5.110  13.205 -13.193  0.00  0.00    +0.000 C 
ATOM     25  H   UNL     1       5.659  13.055 -14.130  0.00  0.00    +0.000 HD
ATOM     26  H   UNL     1       5.778  12.897 -12.378  0.00  0.00    +0.000 HD
BRANCH  24  27
ATOM     27  C   UNL     1       3.879  12.277 -13.197  0.00  0.00    +0.000 C 
BRANCH  27  28
ATOM     28  C   UNL     1       3.707  11.524 -11.876  0.00  0.00    +0.000 C 
ATOM     29  H   UNL     1       3.902  12.169 -11.012  0.00  0.00    +0.000 HD
ATOM     30  H   UNL     1       2.699  11.109 -11.779  0.00  0.00    +0.000 HD
ATOM     31  H   UNL     1       4.428  10.702 -11.804  0.00  0.00    +0.000 HD
ENDBRANCH  27  28
BRANCH  27  32
ATOM     32  C   UNL     1       2.619  13.097 -13.498  0.00  0.00    +0.000 C 
ATOM     33  H   UNL     1       2.866  14.113 -13.822  0.00  0.00    +0.000 HD
ATOM     34  H   UNL     1       1.976  13.162 -12.613  0.00  0.00    +0.000 HD
ATOM     35  H   UNL     1       2.018  12.618 -14.280  0.00  0.00    +0.000 HD
ENDBRANCH  27  32
BRANCH  27  36
ATOM     36  O   UNL     1       4.039  11.320 -14.246  0.00  0.00    +0.000 OA
ATOM     37  H   UNL     1       4.656  10.631 -13.945  0.00  0.00    +0.000 HD
ENDBRANCH  27  36
ENDBRANCH  24  27
ENDBRANCH  21  24
ENDBRANCH   1  21
TORSDOF 8
ENDMDL
MODEL 9
REMARK VINA RESULT:    -4.717     17.267     18.881
REMARK INTER + INTRA:          -7.104
REMARK INTER:                  -6.509
REMARK INTRA:                  -0.595
REMARK UNBOUND:                -0.595
REMARK  Name = 91604
REMARK  8 active torsions:
REMARK  status: ('A' for Active; 'I' for Inactive)
REMARK    1  A    between atoms: O_1  and  C_11
REMARK    2  A    between atoms: C_3  and  C_7
REMARK    3  A    between atoms: C_4  and  C_15
REMARK    4  A    between atoms: C_7  and  C_8
REMARK    5  A    between atoms: C_8  and  C_10
REMARK    6  A    between atoms: C_10  and  C_11
REMARK    7  A    between atoms: C_11  and  C_13
REMARK    8  A    between atoms: C_11  and  C_14
REMARK                            x       y       z     vdW  Elec       q    Type
REMARK                         _______ _______ _______ _____ _____    ______ ____
ROOT
ATOM      1  C   UNL     1       2.506  13.000 -10.334  0.00  0.00    +0.000 C 
ATOM      2  H   UNL     1       1.780  12.331  -9.856  0.00  0.00    +0.000 HD
ATOM      3  H   UNL     1       1.955  13.545 -11.112  0.00  0.00    +0.000 HD
ENDROOT
BRANCH   1   4
ATOM      4  C   UNL     1       3.064  13.986  -9.351  0.00  0.00    +0.000 C 
ATOM      5  C   UNL     1       4.059  16.159  -7.697  0.00  0.00    +0.000 C 
ATOM      6  C   UNL     1       2.074  14.939  -8.733  0.00  0.00    +0.000 C 
ATOM      7  C   UNL     1       2.617  15.687  -7.510  0.00  0.00    +0.000 C 
ATOM      8  C   UNL     1       4.988  15.009  -8.098  0.00  0.00    +0.000 C 
ATOM      9  C   UNL     1       4.372  14.020  -9.045  0.00  0.00    +0.000 C 
ATOM     10  H   UNL     1       4.423  16.595  -6.758  0.00  0.00    +0.000 HD
ATOM     11  H   UNL     1       1.768  15.677  -9.484  0.00  0.00    +0.000 HD
ATOM     12  H   UNL     1       1.172  14.396  -8.429  0.00  0.00    +0.000 HD
ATOM     13  H   UNL     1       1.957  16.533  -7.282  0.00  0.00    +0.000 HD
ATOM     14  H   UNL     1       2.579  15.017  -6.640  0.00  0.00    +0.000 HD
ATOM     15  H   UNL     1       5.271  14.455  -7.193  0.00  0.00    +0.000 HD
ATOM     16  H   UNL     1       5.922  15.386  -8.529  0.00  0.00    +0.000 HD
ATOM     17  H   UNL     1       5.051  13.304  -9.501  0.00  0.00    +0.000 HD
BRANCH   5  19
ATOM     18  O   UNL     1       5.055  17.449  -9.468  0.00  0.00    +0.000 OA
ATOM     19  C   UNL     1       4.110  17.271  -8.706  0.00  0.00    +0.000 C 
ATOM     20  H   UNL     1       3.240  17.950  -8.720  0.00  0.00    +0.000 HD
ENDBRANCH   5  19
ENDBRANCH   1   4
BRANCH   1  21
ATOM     21  C   UNL     1       3.607  12.165 -10.993  0.00  0.00    +0.000 C 
ATOM     22  H   UNL     1       3.926  11.357 -10.327  0.00  0.00    +0.000 HD
ATOM     23  H   UNL     1       4.478  12.816 -11.131  0.00  0.00    +0.000 HD
BRANCH  21  24
ATOM     24  C   UNL     1       3.146  11.615 -12.349  0.00  0.00    +0.000 C 
ATOM     25  H   UNL     1       3.359  10.542 -12.421  0.00  0.00    +0.000 HD
ATOM     26  H   UNL     1       2.055  11.729 -12.399  0.00  0.00    +0.000 HD
BRANCH  24  27
ATOM     27  C   UNL     1       3.770  12.319 -13.570  0.00  0.00    +0.000 C 
BRANCH  27  28
ATOM     28  C   UNL     1       2.859  13.400 -14.154  0.00  0.00    +0.000 C 
ATOM     29  H   UNL     1       2.542  14.120 -13.392  0.00  0.00    +0.000 HD
ATOM     30  H   UNL     1       3.352  13.946 -14.965  0.00  0.00    +0.000 HD
ATOM     31  H   UNL     1       1.936  12.957 -14.547  0.00  0.00    +0.000 HD
ENDBRANCH  27  28
BRANCH  27  32
ATOM     32  C   UNL     1       5.119  12.930 -13.177  0.00  0.00    +0.000 C 
ATOM     33  H   UNL     1       5.926  12.585 -13.832  0.00  0.00    +0.000 HD
ATOM     34  H   UNL     1       5.377  12.671 -12.143  0.00  0.00    +0.000 HD
ATOM     35  H   UNL     1       5.080  14.025 -13.219  0.00  0.00    +0.000 HD
ENDBRANCH  27  32
BRANCH  27  36
ATOM     36  O   UNL     1       4.012  11.337 -14.580  0.00  0.00    +0.000 OA
ATOM     37  H   UNL     1       3.338  11.434 -15.275  0.00  0.00    +0.000 HD
ENDBRANCH  27  36
ENDBRANCH  24  27
ENDBRANCH  21  24
ENDBRANCH   1  21
TORSDOF 8
ENDMDL
MODEL 10
REMARK VINA RESULT:    -4.709     19.543     21.561
REMARK INTER + INTRA:          -7.094
REMARK INTER:                  -6.772
REMARK INTRA:                  -0.322
REMARK UNBOUND:                -0.595
REMARK  Name = 91604
REMARK  8 active torsions:
REMARK  status: ('A' for Active; 'I' for Inactive)
REMARK    1  A    between atoms: O_1  and  C_11
REMARK    2  A    between atoms: C_3  and  C_7
REMARK    3  A    between atoms: C_4  and  C_15
REMARK    4  A    between atoms: C_7  and  C_8
REMARK    5  A    between atoms: C_8  and  C_10
REMARK    6  A    between atoms: C_10  and  C_11
REMARK    7  A    between atoms: C_11  and  C_13
REMARK    8  A    between atoms: C_11  and  C_14
REMARK                            x       y       z     vdW  Elec       q    Type
REMARK                         _______ _______ _______ _____ _____    ______ ____
ROOT
ATOM      1  C   UNL     1      -1.816   9.887  16.805  0.00  0.00    +0.000 C 
ATOM      2  H   UNL     1      -1.135  10.718  17.027  0.00  0.00    +0.000 HD
ATOM      3  H   UNL     1      -2.684  10.017  17.463  0.00  0.00    +0.000 HD
ENDROOT
BRANCH   1   4
ATOM      4  C   UNL     1      -2.276   9.930  15.378  0.00  0.00    +0.000 C 
ATOM      5  C   UNL     1      -2.944   9.719  12.556  0.00  0.00    +0.000 C 
ATOM      6  C   UNL     1      -3.112   8.765  14.915  0.00  0.00    +0.000 C 
ATOM      7  C   UNL     1      -3.827   9.008  13.581  0.00  0.00    +0.000 C 
ATOM      8  C   UNL     1      -2.358  11.020  13.114  0.00  0.00    +0.000 C 
ATOM      9  C   UNL     1      -1.956  10.947  14.559  0.00  0.00    +0.000 C 
ATOM     10  H   UNL     1      -3.538   9.954  11.665  0.00  0.00    +0.000 HD
ATOM     11  H   UNL     1      -2.470   7.882  14.809  0.00  0.00    +0.000 HD
ATOM     12  H   UNL     1      -3.869   8.524  15.670  0.00  0.00    +0.000 HD
ATOM     13  H   UNL     1      -4.189   8.050  13.186  0.00  0.00    +0.000 HD
ATOM     14  H   UNL     1      -4.716   9.626  13.765  0.00  0.00    +0.000 HD
ATOM     15  H   UNL     1      -3.116  11.810  13.030  0.00  0.00    +0.000 HD
ATOM     16  H   UNL     1      -1.501  11.356  12.519  0.00  0.00    +0.000 HD
ATOM     17  H   UNL     1      -1.365  11.777  14.936  0.00  0.00    +0.000 HD
BRANCH   5  19
ATOM     18  O   UNL     1      -1.991   7.579  12.002  0.00  0.00    +0.000 OA
ATOM     19  C   UNL     1      -1.856   8.796  12.086  0.00  0.00    +0.000 C 
ATOM     20  H   UNL     1      -0.895   9.274  11.828  0.00  0.00    +0.000 HD
ENDBRANCH   5  19
ENDBRANCH   1   4
BRANCH   1  21
ATOM     21  C   UNL     1      -1.126   8.563  17.142  0.00  0.00    +0.000 C 
ATOM     22  H   UNL     1      -0.857   8.026  16.227  0.00  0.00    +0.000 HD
ATOM     23  H   UNL     1      -1.854   7.935  17.669  0.00  0.00    +0.000 HD
BRANCH  21  24
ATOM     24  C   UNL     1       0.104   8.793  18.030  0.00  0.00    +0.000 C 
ATOM     25  H   UNL     1       1.003   8.924  17.416  0.00  0.00    +0.000 HD
ATOM     26  H   UNL     1      -0.051   9.734  18.575  0.00  0.00    +0.000 HD
BRANCH  24  27
ATOM     27  C   UNL     1       0.373   7.671  19.053  0.00  0.00    +0.000 C 
BRANCH  27  28
ATOM     28  C   UNL     1       1.856   7.309  19.151  0.00  0.00    +0.000 C 
ATOM     29  H   UNL     1       2.282   7.596  20.118  0.00  0.00    +0.000 HD
ATOM     30  H   UNL     1       2.018   6.236  19.004  0.00  0.00    +0.000 HD
ATOM     31  H   UNL     1       2.437   7.852  18.396  0.00  0.00    +0.000 HD
ENDBRANCH  27  28
BRANCH  27  32
ATOM     32  C   UNL     1      -0.152   8.095  20.429  0.00  0.00    +0.000 C 
ATOM     33  H   UNL     1      -1.221   7.885  20.537  0.00  0.00    +0.000 HD
ATOM     34  H   UNL     1       0.010   9.167  20.595  0.00  0.00    +0.000 HD
ATOM     35  H   UNL     1       0.387   7.576  21.231  0.00  0.00    +0.000 HD
ENDBRANCH  27  32
BRANCH  27  36
ATOM     36  O   UNL     1      -0.352   6.508  18.647  0.00  0.00    +0.000 OA
ATOM     37  H   UNL     1       0.189   6.014  18.008  0.00  0.00    +0.000 HD
ENDBRANCH  27  36
ENDBRANCH  24  27
ENDBRANCH  21  24
ENDBRANCH   1  21
TORSDOF 8
ENDMDL
