MODEL 1
REMARK VINA RESULT:    -4.423      0.000      0.000
REMARK INTER + INTRA:          -5.233
REMARK INTER:                  -5.113
REMARK INTRA:                  -0.120
REMARK UNBOUND:                -0.163
REMARK  Name = 26447
REMARK  4 active torsions:
REMARK  status: ('A' for Active; 'I' for Inactive)
REMARK    1  A    between atoms: C_2  and  C_6
REMARK    2  A    between atoms: C_4  and  C_9
REMARK    3  A    between atoms: C_6  and  C_10
REMARK    4  A    between atoms: C_6  and  C_11
REMARK                            x       y       z     vdW  Elec       q    Type
REMARK                         _______ _______ _______ _____ _____    ______ ____
ROOT
ATOM      1  O   UNL     1     -15.659 -12.854   2.345  0.00  0.00    +0.000 OA
ATOM      2  C   UNL     1     -16.721 -10.827   1.615  0.00  0.00    +0.000 C 
ATOM      3  C   UNL     1     -18.116 -10.311   1.976  0.00  0.00    +0.000 C 
ATOM      4  C   UNL     1     -17.782 -10.906   4.435  0.00  0.00    +0.000 C 
ATOM      5  C   UNL     1     -18.229  -9.839   3.427  0.00  0.00    +0.000 C 
ATOM      6  C   UNL     1     -16.372 -11.406   4.118  0.00  0.00    +0.000 C 
ATOM      7  C   UNL     1     -16.231 -11.811   2.665  0.00  0.00    +0.000 C 
ATOM      8  H   UNL     1     -16.813 -11.383   0.672  0.00  0.00    +0.000 HD
ATOM      9  H   UNL     1     -18.828 -11.135   1.832  0.00  0.00    +0.000 HD
ATOM     10  H   UNL     1     -18.465  -9.528   1.299  0.00  0.00    +0.000 HD
ATOM     11  H   UNL     1     -17.760 -10.440   5.428  0.00  0.00    +0.000 HD
ATOM     12  H   UNL     1     -17.620  -8.937   3.562  0.00  0.00    +0.000 HD
ATOM     13  H   UNL     1     -19.266  -9.543   3.631  0.00  0.00    +0.000 HD
ATOM     14  H   UNL     1     -16.116 -12.263   4.751  0.00  0.00    +0.000 HD
ATOM     15  H   UNL     1     -15.633 -10.621   4.319  0.00  0.00    +0.000 HD
ENDROOT
BRANCH   4  16
ATOM     16  C   UNL     1     -18.776 -12.069   4.514  0.00  0.00    +0.000 C 
ATOM     17  H   UNL     1     -19.476 -12.039   3.673  0.00  0.00    +0.000 HD
ATOM     18  H   UNL     1     -18.279 -13.044   4.508  0.00  0.00    +0.000 HD
ATOM     19  H   UNL     1     -19.364 -12.006   5.436  0.00  0.00    +0.000 HD
ENDBRANCH   4  16
BRANCH   2  20
ATOM     20  C   UNL     1     -15.702  -9.705   1.441  0.00  0.00    +0.000 C 
ATOM     21  H   UNL     1     -15.229  -9.462   2.402  0.00  0.00    +0.000 HD
BRANCH  20  22
ATOM     22  C   UNL     1     -14.582 -10.136   0.494  0.00  0.00    +0.000 C 
ATOM     23  H   UNL     1     -14.922 -10.916  -0.197  0.00  0.00    +0.000 HD
ATOM     24  H   UNL     1     -14.237  -9.288  -0.106  0.00  0.00    +0.000 HD
ATOM     25  H   UNL     1     -13.710 -10.512   1.037  0.00  0.00    +0.000 HD
ENDBRANCH  20  22
BRANCH  20  26
ATOM     26  C   UNL     1     -16.379  -8.437   0.928  0.00  0.00    +0.000 C 
ATOM     27  H   UNL     1     -15.777  -7.938   0.161  0.00  0.00    +0.000 HD
ATOM     28  H   UNL     1     -16.530  -7.722   1.745  0.00  0.00    +0.000 HD
ATOM     29  H   UNL     1     -17.373  -8.640   0.518  0.00  0.00    +0.000 HD
ENDBRANCH  20  26
ENDBRANCH   2  20
TORSDOF 4
ENDMDL
MODEL 2
REMARK VINA RESULT:    -4.142      1.138      3.665
REMARK INTER + INTRA:          -4.911
REMARK INTER:                  -4.749
REMARK INTRA:                  -0.162
REMARK UNBOUND:                -0.163
REMARK  Name = 26447
REMARK  4 active torsions:
REMARK  status: ('A' for Active; 'I' for Inactive)
REMARK    1  A    between atoms: C_2  and  C_6
REMARK    2  A    between atoms: C_4  and  C_9
REMARK    3  A    between atoms: C_6  and  C_10
REMARK    4  A    between atoms: C_6  and  C_11
REMARK                            x       y       z     vdW  Elec       q    Type
REMARK                         _______ _______ _______ _____ _____    ______ ____
ROOT
ATOM      1  O   UNL     1     -15.777 -12.879   2.582  0.00  0.00    +0.000 OA
ATOM      2  C   UNL     1     -16.260 -10.528   2.678  0.00  0.00    +0.000 C 
ATOM      3  C   UNL     1     -15.767  -9.426   1.738  0.00  0.00    +0.000 C 
ATOM      4  C   UNL     1     -16.230 -10.865  -0.316  0.00  0.00    +0.000 C 
ATOM      5  C   UNL     1     -16.396  -9.490   0.346  0.00  0.00    +0.000 C 
ATOM      6  C   UNL     1     -16.757 -11.980   0.588  0.00  0.00    +0.000 C 
ATOM      7  C   UNL     1     -16.191 -11.882   1.990  0.00  0.00    +0.000 C 
ATOM      8  H   UNL     1     -15.568 -10.565   3.530  0.00  0.00    +0.000 HD
ATOM      9  H   UNL     1     -14.680  -9.541   1.624  0.00  0.00    +0.000 HD
ATOM     10  H   UNL     1     -15.891  -8.424   2.159  0.00  0.00    +0.000 HD
ATOM     11  H   UNL     1     -16.827 -10.867  -1.237  0.00  0.00    +0.000 HD
ATOM     12  H   UNL     1     -17.464  -9.253   0.421  0.00  0.00    +0.000 HD
ATOM     13  H   UNL     1     -15.952  -8.714  -0.288  0.00  0.00    +0.000 HD
ATOM     14  H   UNL     1     -16.507 -12.963   0.173  0.00  0.00    +0.000 HD
ATOM     15  H   UNL     1     -17.849 -11.926   0.664  0.00  0.00    +0.000 HD
ENDROOT
BRANCH   4  16
ATOM     16  C   UNL     1     -14.778 -11.128  -0.730  0.00  0.00    +0.000 C 
ATOM     17  H   UNL     1     -14.239 -11.656   0.062  0.00  0.00    +0.000 HD
ATOM     18  H   UNL     1     -14.708 -11.724  -1.645  0.00  0.00    +0.000 HD
ATOM     19  H   UNL     1     -14.257 -10.182  -0.912  0.00  0.00    +0.000 HD
ENDBRANCH   4  16
BRANCH   2  20
ATOM     20  C   UNL     1     -17.676 -10.279   3.190  0.00  0.00    +0.000 C 
ATOM     21  H   UNL     1     -18.415 -10.553   2.427  0.00  0.00    +0.000 HD
BRANCH  20  22
ATOM     22  C   UNL     1     -17.965 -11.144   4.416  0.00  0.00    +0.000 C 
ATOM     23  H   UNL     1     -18.793 -10.735   5.007  0.00  0.00    +0.000 HD
ATOM     24  H   UNL     1     -18.242 -12.160   4.115  0.00  0.00    +0.000 HD
ATOM     25  H   UNL     1     -17.091 -11.237   5.067  0.00  0.00    +0.000 HD
ENDBRANCH  20  22
BRANCH  20  26
ATOM     26  C   UNL     1     -17.878  -8.801   3.517  0.00  0.00    +0.000 C 
ATOM     27  H   UNL     1     -16.964  -8.346   3.914  0.00  0.00    +0.000 HD
ATOM     28  H   UNL     1     -18.663  -8.677   4.272  0.00  0.00    +0.000 HD
ATOM     29  H   UNL     1     -18.205  -8.230   2.643  0.00  0.00    +0.000 HD
ENDBRANCH  20  26
ENDBRANCH   2  20
TORSDOF 4
ENDMDL
MODEL 3
REMARK VINA RESULT:    -4.091     18.187     20.106
REMARK INTER + INTRA:          -4.852
REMARK INTER:                  -4.774
REMARK INTRA:                  -0.078
REMARK UNBOUND:                -0.163
REMARK  Name = 26447
REMARK  4 active torsions:
REMARK  status: ('A' for Active; 'I' for Inactive)
REMARK    1  A    between atoms: C_2  and  C_6
REMARK    2  A    between atoms: C_4  and  C_9
REMARK    3  A    between atoms: C_6  and  C_10
REMARK    4  A    between atoms: C_6  and  C_11
REMARK                            x       y       z     vdW  Elec       q    Type
REMARK                         _______ _______ _______ _____ _____    ______ ____
ROOT
ATOM      1  O   UNL     1     -16.767 -14.321  21.249  0.00  0.00    +0.000 OA
ATOM      2  C   UNL     1     -14.799 -15.188  22.318  0.00  0.00    +0.000 C 
ATOM      3  C   UNL     1     -13.556 -15.789  21.660  0.00  0.00    +0.000 C 
ATOM      4  C   UNL     1     -13.492 -13.933  19.911  0.00  0.00    +0.000 C 
ATOM      5  C   UNL     1     -12.695 -14.754  20.934  0.00  0.00    +0.000 C 
ATOM      6  C   UNL     1     -14.718 -13.287  20.558  0.00  0.00    +0.000 C 
ATOM      7  C   UNL     1     -15.540 -14.293  21.338  0.00  0.00    +0.000 C 
ATOM      8  H   UNL     1     -15.473 -16.020  22.565  0.00  0.00    +0.000 HD
ATOM      9  H   UNL     1     -13.890 -16.530  20.921  0.00  0.00    +0.000 HD
ATOM     10  H   UNL     1     -12.942 -16.362  22.360  0.00  0.00    +0.000 HD
ATOM     11  H   UNL     1     -12.840 -13.129  19.546  0.00  0.00    +0.000 HD
ATOM     12  H   UNL     1     -12.247 -14.076  21.670  0.00  0.00    +0.000 HD
ATOM     13  H   UNL     1     -11.860 -15.263  20.436  0.00  0.00    +0.000 HD
ATOM     14  H   UNL     1     -15.355 -12.823  19.797  0.00  0.00    +0.000 HD
ATOM     15  H   UNL     1     -14.411 -12.496  21.253  0.00  0.00    +0.000 HD
ENDROOT
BRANCH   4  16
ATOM     16  C   UNL     1     -13.888 -14.770  18.690  0.00  0.00    +0.000 C 
ATOM     17  H   UNL     1     -14.120 -14.125  17.837  0.00  0.00    +0.000 HD
ATOM     18  H   UNL     1     -13.097 -15.463  18.387  0.00  0.00    +0.000 HD
ATOM     19  H   UNL     1     -14.781 -15.364  18.908  0.00  0.00    +0.000 HD
ENDBRANCH   4  16
BRANCH   2  20
ATOM     20  C   UNL     1     -14.477 -14.408  23.590  0.00  0.00    +0.000 C 
ATOM     21  H   UNL     1     -13.766 -13.600  23.375  0.00  0.00    +0.000 HD
BRANCH  20  22
ATOM     22  C   UNL     1     -15.736 -13.752  24.154  0.00  0.00    +0.000 C 
ATOM     23  H   UNL     1     -15.579 -13.401  25.180  0.00  0.00    +0.000 HD
ATOM     24  H   UNL     1     -16.025 -12.887  23.548  0.00  0.00    +0.000 HD
ATOM     25  H   UNL     1     -16.590 -14.436  24.151  0.00  0.00    +0.000 HD
ENDBRANCH  20  22
BRANCH  20  26
ATOM     26  C   UNL     1     -13.835 -15.320  24.633  0.00  0.00    +0.000 C 
ATOM     27  H   UNL     1     -14.577 -15.715  25.336  0.00  0.00    +0.000 HD
ATOM     28  H   UNL     1     -13.087 -14.772  25.217  0.00  0.00    +0.000 HD
ATOM     29  H   UNL     1     -13.304 -16.159  24.173  0.00  0.00    +0.000 HD
ENDBRANCH  20  26
ENDBRANCH   2  20
TORSDOF 4
ENDMDL
MODEL 4
REMARK VINA RESULT:    -4.065      1.950      4.199
REMARK INTER + INTRA:          -4.822
REMARK INTER:                  -4.662
REMARK INTRA:                  -0.160
REMARK UNBOUND:                -0.163
REMARK  Name = 26447
REMARK  4 active torsions:
REMARK  status: ('A' for Active; 'I' for Inactive)
REMARK    1  A    between atoms: C_2  and  C_6
REMARK    2  A    between atoms: C_4  and  C_9
REMARK    3  A    between atoms: C_6  and  C_10
REMARK    4  A    between atoms: C_6  and  C_11
REMARK                            x       y       z     vdW  Elec       q    Type
REMARK                         _______ _______ _______ _____ _____    ______ ____
ROOT
ATOM      1  O   UNL     1     -17.802  -8.784   3.799  0.00  0.00    +0.000 OA
ATOM      2  C   UNL     1     -18.647 -10.790   2.785  0.00  0.00    +0.000 C 
ATOM      3  C   UNL     1     -18.696 -11.146   1.298  0.00  0.00    +0.000 C 
ATOM      4  C   UNL     1     -16.319 -10.292   0.938  0.00  0.00    +0.000 C 
ATOM      5  C   UNL     1     -17.319 -11.432   0.698  0.00  0.00    +0.000 C 
ATOM      6  C   UNL     1     -16.221  -9.949   2.425  0.00  0.00    +0.000 C 
ATOM      7  C   UNL     1     -17.587  -9.731   3.044  0.00  0.00    +0.000 C 
ATOM      8  H   UNL     1     -19.617 -10.345   3.047  0.00  0.00    +0.000 HD
ATOM      9  H   UNL     1     -19.128 -10.290   0.761  0.00  0.00    +0.000 HD
ATOM     10  H   UNL     1     -19.378 -11.973   1.083  0.00  0.00    +0.000 HD
ATOM     11  H   UNL     1     -15.332 -10.638   0.605  0.00  0.00    +0.000 HD
ATOM     12  H   UNL     1     -16.921 -12.358   1.132  0.00  0.00    +0.000 HD
ATOM     13  H   UNL     1     -17.424 -11.617  -0.378  0.00  0.00    +0.000 HD
ATOM     14  H   UNL     1     -15.617  -9.047   2.572  0.00  0.00    +0.000 HD
ATOM     15  H   UNL     1     -15.732 -10.762   2.974  0.00  0.00    +0.000 HD
ENDROOT
BRANCH   4  16
ATOM     16  C   UNL     1     -16.657  -9.052   0.104  0.00  0.00    +0.000 C 
ATOM     17  H   UNL     1     -15.744  -8.553  -0.236  0.00  0.00    +0.000 HD
ATOM     18  H   UNL     1     -17.259  -9.294  -0.777  0.00  0.00    +0.000 HD
ATOM     19  H   UNL     1     -17.223  -8.332   0.704  0.00  0.00    +0.000 HD
ENDBRANCH   4  16
BRANCH   2  20
ATOM     20  C   UNL     1     -18.395 -12.003   3.676  0.00  0.00    +0.000 C 
ATOM     21  H   UNL     1     -17.348 -12.325   3.600  0.00  0.00    +0.000 HD
BRANCH  20  22
ATOM     22  C   UNL     1     -18.645 -11.657   5.143  0.00  0.00    +0.000 C 
ATOM     23  H   UNL     1     -19.699 -11.791   5.411  0.00  0.00    +0.000 HD
ATOM     24  H   UNL     1     -18.051 -12.303   5.798  0.00  0.00    +0.000 HD
ATOM     25  H   UNL     1     -18.359 -10.627   5.374  0.00  0.00    +0.000 HD
ENDBRANCH  20  22
BRANCH  20  26
ATOM     26  C   UNL     1     -19.270 -13.178   3.245  0.00  0.00    +0.000 C 
ATOM     27  H   UNL     1     -19.572 -13.793   4.101  0.00  0.00    +0.000 HD
ATOM     28  H   UNL     1     -18.728 -13.828   2.549  0.00  0.00    +0.000 HD
ATOM     29  H   UNL     1     -20.167 -12.848   2.715  0.00  0.00    +0.000 HD
ENDBRANCH  20  26
ENDBRANCH   2  20
TORSDOF 4
ENDMDL
MODEL 5
REMARK VINA RESULT:    -4.033     32.926     35.136
REMARK INTER + INTRA:          -4.786
REMARK INTER:                  -4.628
REMARK INTRA:                  -0.158
REMARK UNBOUND:                -0.163
REMARK  Name = 26447
REMARK  4 active torsions:
REMARK  status: ('A' for Active; 'I' for Inactive)
REMARK    1  A    between atoms: C_2  and  C_6
REMARK    2  A    between atoms: C_4  and  C_9
REMARK    3  A    between atoms: C_6  and  C_10
REMARK    4  A    between atoms: C_6  and  C_11
REMARK                            x       y       z     vdW  Elec       q    Type
REMARK                         _______ _______ _______ _____ _____    ______ ____
ROOT
ATOM      1  O   UNL     1       3.523  11.496 -14.159  0.00  0.00    +0.000 OA
ATOM      2  C   UNL     1       4.147  13.648 -13.295  0.00  0.00    +0.000 C 
ATOM      3  C   UNL     1       3.447  14.467 -12.208  0.00  0.00    +0.000 C 
ATOM      4  C   UNL     1       3.152  12.403 -10.738  0.00  0.00    +0.000 C 
ATOM      5  C   UNL     1       3.599  13.870 -10.809  0.00  0.00    +0.000 C 
ATOM      6  C   UNL     1       3.872  11.557 -11.788  0.00  0.00    +0.000 C 
ATOM      7  C   UNL     1       3.786  12.177 -13.168  0.00  0.00    +0.000 C 
ATOM      8  H   UNL     1       3.759  13.991 -14.264  0.00  0.00    +0.000 HD
ATOM      9  H   UNL     1       2.375  14.498 -12.448  0.00  0.00    +0.000 HD
ATOM     10  H   UNL     1       3.755  15.515 -12.204  0.00  0.00    +0.000 HD
ATOM     11  H   UNL     1       3.426  12.018  -9.747  0.00  0.00    +0.000 HD
ATOM     12  H   UNL     1       4.648  13.943 -10.497  0.00  0.00    +0.000 HD
ATOM     13  H   UNL     1       3.023  14.471 -10.094  0.00  0.00    +0.000 HD
ATOM     14  H   UNL     1       3.448  10.547 -11.826  0.00  0.00    +0.000 HD
ATOM     15  H   UNL     1       4.934  11.454 -11.534  0.00  0.00    +0.000 HD
ENDROOT
BRANCH   4  16
ATOM     16  C   UNL     1       1.631  12.262 -10.861  0.00  0.00    +0.000 C 
ATOM     17  H   UNL     1       1.141  12.504  -9.913  0.00  0.00    +0.000 HD
ATOM     18  H   UNL     1       1.214  12.915 -11.635  0.00  0.00    +0.000 HD
ATOM     19  H   UNL     1       1.363  11.232 -11.119  0.00  0.00    +0.000 HD
ENDBRANCH   4  16
BRANCH   2  20
ATOM     20  C   UNL     1       5.664  13.812 -13.275  0.00  0.00    +0.000 C 
ATOM     21  H   UNL     1       6.094  13.300 -12.405  0.00  0.00    +0.000 HD
BRANCH  20  22
ATOM     22  C   UNL     1       6.291  13.180 -14.516  0.00  0.00    +0.000 C 
ATOM     23  H   UNL     1       5.743  12.284 -14.828  0.00  0.00    +0.000 HD
ATOM     24  H   UNL     1       6.281  13.884 -15.355  0.00  0.00    +0.000 HD
ATOM     25  H   UNL     1       7.337  12.904 -14.350  0.00  0.00    +0.000 HD
ENDBRANCH  20  22
BRANCH  20  26
ATOM     26  C   UNL     1       6.044  15.287 -13.174  0.00  0.00    +0.000 C 
ATOM     27  H   UNL     1       5.186  15.941 -13.367  0.00  0.00    +0.000 HD
ATOM     28  H   UNL     1       6.819  15.537 -13.908  0.00  0.00    +0.000 HD
ATOM     29  H   UNL     1       6.463  15.537 -12.195  0.00  0.00    +0.000 HD
ENDBRANCH  20  26
ENDBRANCH   2  20
TORSDOF 4
ENDMDL
MODEL 6
REMARK VINA RESULT:    -4.008      1.869      2.889
REMARK INTER + INTRA:          -4.757
REMARK INTER:                  -4.716
REMARK INTRA:                  -0.041
REMARK UNBOUND:                -0.163
REMARK  Name = 26447
REMARK  4 active torsions:
REMARK  status: ('A' for Active; 'I' for Inactive)
REMARK    1  A    between atoms: C_2  and  C_6
REMARK    2  A    between atoms: C_4  and  C_9
REMARK    3  A    between atoms: C_6  and  C_10
REMARK    4  A    between atoms: C_6  and  C_11
REMARK                            x       y       z     vdW  Elec       q    Type
REMARK                         _______ _______ _______ _____ _____    ______ ____
ROOT
ATOM      1  O   UNL     1     -16.904 -12.618   1.426  0.00  0.00    +0.000 OA
ATOM      2  C   UNL     1     -16.722 -10.942  -0.285  0.00  0.00    +0.000 C 
ATOM      3  C   UNL     1     -17.174  -9.481  -0.225  0.00  0.00    +0.000 C 
ATOM      4  C   UNL     1     -16.204  -9.198   2.117  0.00  0.00    +0.000 C 
ATOM      5  C   UNL     1     -16.314  -8.619   0.700  0.00  0.00    +0.000 C 
ATOM      6  C   UNL     1     -15.712 -10.646   2.084  0.00  0.00    +0.000 C 
ATOM      7  C   UNL     1     -16.515 -11.492   1.117  0.00  0.00    +0.000 C 
ATOM      8  H   UNL     1     -17.540 -11.519  -0.739  0.00  0.00    +0.000 HD
ATOM      9  H   UNL     1     -18.205  -9.463   0.155  0.00  0.00    +0.000 HD
ATOM     10  H   UNL     1     -17.241  -9.019  -1.213  0.00  0.00    +0.000 HD
ATOM     11  H   UNL     1     -15.463  -8.602   2.665  0.00  0.00    +0.000 HD
ATOM     12  H   UNL     1     -15.310  -8.520   0.272  0.00  0.00    +0.000 HD
ATOM     13  H   UNL     1     -16.732  -7.606   0.742  0.00  0.00    +0.000 HD
ATOM     14  H   UNL     1     -15.771 -11.095   3.082  0.00  0.00    +0.000 HD
ATOM     15  H   UNL     1     -14.662 -10.685   1.771  0.00  0.00    +0.000 HD
ENDROOT
BRANCH   4  16
ATOM     16  C   UNL     1     -17.524  -9.080   2.887  0.00  0.00    +0.000 C 
ATOM     17  H   UNL     1     -18.223  -8.423   2.359  0.00  0.00    +0.000 HD
ATOM     18  H   UNL     1     -18.011 -10.049   3.030  0.00  0.00    +0.000 HD
ATOM     19  H   UNL     1     -17.349  -8.649   3.878  0.00  0.00    +0.000 HD
ENDBRANCH   4  16
BRANCH   2  20
ATOM     20  C   UNL     1     -15.453 -11.135  -1.110  0.00  0.00    +0.000 C 
ATOM     21  H   UNL     1     -14.656 -10.470  -0.752  0.00  0.00    +0.000 HD
BRANCH  20  22
ATOM     22  C   UNL     1     -14.931 -12.564  -0.969  0.00  0.00    +0.000 C 
ATOM     23  H   UNL     1     -15.106 -12.956   0.039  0.00  0.00    +0.000 HD
ATOM     24  H   UNL     1     -15.436 -13.231  -1.677  0.00  0.00    +0.000 HD
ATOM     25  H   UNL     1     -13.860 -12.632  -1.184  0.00  0.00    +0.000 HD
ENDBRANCH  20  22
BRANCH  20  26
ATOM     26  C   UNL     1     -15.708 -10.800  -2.577  0.00  0.00    +0.000 C 
ATOM     27  H   UNL     1     -15.075  -9.973  -2.920  0.00  0.00    +0.000 HD
ATOM     28  H   UNL     1     -16.751 -10.500  -2.729  0.00  0.00    +0.000 HD
ATOM     29  H   UNL     1     -15.543 -11.662  -3.229  0.00  0.00    +0.000 HD
ENDBRANCH  20  26
ENDBRANCH   2  20
TORSDOF 4
ENDMDL
MODEL 7
REMARK VINA RESULT:    -3.978     23.959     25.119
REMARK INTER + INTRA:          -4.722
REMARK INTER:                  -4.575
REMARK INTRA:                  -0.148
REMARK UNBOUND:                -0.163
REMARK  Name = 26447
REMARK  4 active torsions:
REMARK  status: ('A' for Active; 'I' for Inactive)
REMARK    1  A    between atoms: C_2  and  C_6
REMARK    2  A    between atoms: C_4  and  C_9
REMARK    3  A    between atoms: C_6  and  C_10
REMARK    4  A    between atoms: C_6  and  C_11
REMARK                            x       y       z     vdW  Elec       q    Type
REMARK                         _______ _______ _______ _____ _____    ______ ____
ROOT
ATOM      1  O   UNL     1       5.415  -6.319  14.300  0.00  0.00    +0.000 OA
ATOM      2  C   UNL     1       5.542  -4.099  13.395  0.00  0.00    +0.000 C 
ATOM      3  C   UNL     1       6.101  -3.664  12.038  0.00  0.00    +0.000 C 
ATOM      4  C   UNL     1       4.923  -5.592  10.852  0.00  0.00    +0.000 C 
ATOM      5  C   UNL     1       5.223  -4.086  10.859  0.00  0.00    +0.000 C 
ATOM      6  C   UNL     1       4.323  -6.040  12.185  0.00  0.00    +0.000 C 
ATOM      7  C   UNL     1       5.150  -5.567  13.363  0.00  0.00    +0.000 C 
ATOM      8  H   UNL     1       6.353  -3.998  14.129  0.00  0.00    +0.000 HD
ATOM      9  H   UNL     1       7.085  -4.136  11.913  0.00  0.00    +0.000 HD
ATOM     10  H   UNL     1       6.305  -2.592  11.988  0.00  0.00    +0.000 HD
ATOM     11  H   UNL     1       4.180  -5.781  10.066  0.00  0.00    +0.000 HD
ATOM     12  H   UNL     1       4.278  -3.531  10.895  0.00  0.00    +0.000 HD
ATOM     13  H   UNL     1       5.714  -3.799   9.921  0.00  0.00    +0.000 HD
ATOM     14  H   UNL     1       4.244  -7.133  12.223  0.00  0.00    +0.000 HD
ATOM     15  H   UNL     1       3.311  -5.636  12.304  0.00  0.00    +0.000 HD
ENDROOT
BRANCH   4  16
ATOM     16  C   UNL     1       6.163  -6.419  10.497  0.00  0.00    +0.000 C 
ATOM     17  H   UNL     1       6.434  -6.280   9.445  0.00  0.00    +0.000 HD
ATOM     18  H   UNL     1       7.030  -6.154  11.109  0.00  0.00    +0.000 HD
ATOM     19  H   UNL     1       5.966  -7.486  10.649  0.00  0.00    +0.000 HD
ENDBRANCH   4  16
BRANCH   2  20
ATOM     20  C   UNL     1       4.352  -3.254  13.842  0.00  0.00    +0.000 C 
ATOM     21  H   UNL     1       3.480  -3.451  13.205  0.00  0.00    +0.000 HD
BRANCH  20  22
ATOM     22  C   UNL     1       3.946  -3.610  15.271  0.00  0.00    +0.000 C 
ATOM     23  H   UNL     1       4.724  -3.329  15.990  0.00  0.00    +0.000 HD
ATOM     24  H   UNL     1       3.028  -3.084  15.554  0.00  0.00    +0.000 HD
ATOM     25  H   UNL     1       3.742  -4.679  15.385  0.00  0.00    +0.000 HD
ENDBRANCH  20  22
BRANCH  20  26
ATOM     26  C   UNL     1       4.676  -1.766  13.731  0.00  0.00    +0.000 C 
ATOM     27  H   UNL     1       3.941  -1.237  13.115  0.00  0.00    +0.000 HD
ATOM     28  H   UNL     1       5.659  -1.618  13.271  0.00  0.00    +0.000 HD
ATOM     29  H   UNL     1       4.725  -1.284  14.712  0.00  0.00    +0.000 HD
ENDBRANCH  20  26
ENDBRANCH   2  20
TORSDOF 4
ENDMDL
MODEL 8
REMARK VINA RESULT:    -3.956     27.399     28.617
REMARK INTER + INTRA:          -4.697
REMARK INTER:                  -4.538
REMARK INTRA:                  -0.159
REMARK UNBOUND:                -0.163
REMARK  Name = 26447
REMARK  4 active torsions:
REMARK  status: ('A' for Active; 'I' for Inactive)
REMARK    1  A    between atoms: C_2  and  C_6
REMARK    2  A    between atoms: C_4  and  C_9
REMARK    3  A    between atoms: C_6  and  C_10
REMARK    4  A    between atoms: C_6  and  C_11
REMARK                            x       y       z     vdW  Elec       q    Type
REMARK                         _______ _______ _______ _____ _____    ______ ____
ROOT
ATOM      1  O   UNL     1      -2.695   2.380 -15.362  0.00  0.00    +0.000 OA
ATOM      2  C   UNL     1      -2.362   4.148 -16.952  0.00  0.00    +0.000 C 
ATOM      3  C   UNL     1      -2.049   5.619 -16.675  0.00  0.00    +0.000 C 
ATOM      4  C   UNL     1      -0.327   4.995 -14.899  0.00  0.00    +0.000 C 
ATOM      5  C   UNL     1      -0.635   5.846 -16.139  0.00  0.00    +0.000 C 
ATOM      6  C   UNL     1      -0.592   3.514 -15.169  0.00  0.00    +0.000 C 
ATOM      7  C   UNL     1      -1.966   3.286 -15.765  0.00  0.00    +0.000 C 
ATOM      8  H   UNL     1      -3.452   4.061 -17.063  0.00  0.00    +0.000 HD
ATOM      9  H   UNL     1      -2.760   5.978 -15.917  0.00  0.00    +0.000 HD
ATOM     10  H   UNL     1      -2.229   6.261 -17.541  0.00  0.00    +0.000 HD
ATOM     11  H   UNL     1       0.741   5.112 -14.671  0.00  0.00    +0.000 HD
ATOM     12  H   UNL     1       0.092   5.613 -16.927  0.00  0.00    +0.000 HD
ATOM     13  H   UNL     1      -0.503   6.910 -15.905  0.00  0.00    +0.000 HD
ATOM     14  H   UNL     1      -0.506   2.933 -14.243  0.00  0.00    +0.000 HD
ATOM     15  H   UNL     1       0.148   3.115 -15.873  0.00  0.00    +0.000 HD
ENDROOT
BRANCH   4  16
ATOM     16  C   UNL     1      -1.098   5.481 -13.667  0.00  0.00    +0.000 C 
ATOM     17  H   UNL     1      -1.884   4.769 -13.397  0.00  0.00    +0.000 HD
ATOM     18  H   UNL     1      -0.448   5.616 -12.797  0.00  0.00    +0.000 HD
ATOM     19  H   UNL     1      -1.578   6.443 -13.873  0.00  0.00    +0.000 HD
ENDBRANCH   4  16
BRANCH   2  20
ATOM     20  C   UNL     1      -1.686   3.628 -18.218  0.00  0.00    +0.000 C 
ATOM     21  H   UNL     1      -0.608   3.501 -18.053  0.00  0.00    +0.000 HD
BRANCH  20  22
ATOM     22  C   UNL     1      -2.239   2.256 -18.600  0.00  0.00    +0.000 C 
ATOM     23  H   UNL     1      -2.951   1.889 -17.852  0.00  0.00    +0.000 HD
ATOM     24  H   UNL     1      -2.763   2.305 -19.560  0.00  0.00    +0.000 HD
ATOM     25  H   UNL     1      -1.445   1.512 -18.713  0.00  0.00    +0.000 HD
ENDBRANCH  20  22
BRANCH  20  26
ATOM     26  C   UNL     1      -1.863   4.616 -19.368  0.00  0.00    +0.000 C 
ATOM     27  H   UNL     1      -2.906   4.671 -19.698  0.00  0.00    +0.000 HD
ATOM     28  H   UNL     1      -1.259   4.315 -20.232  0.00  0.00    +0.000 HD
ATOM     29  H   UNL     1      -1.525   5.621 -19.100  0.00  0.00    +0.000 HD
ENDBRANCH  20  26
ENDBRANCH   2  20
TORSDOF 4
ENDMDL
MODEL 9
REMARK VINA RESULT:    -3.910     33.334     35.563
REMARK INTER + INTRA:          -4.645
REMARK INTER:                  -4.502
REMARK INTRA:                  -0.143
REMARK UNBOUND:                -0.163
REMARK  Name = 26447
REMARK  4 active torsions:
REMARK  status: ('A' for Active; 'I' for Inactive)
REMARK    1  A    between atoms: C_2  and  C_6
REMARK    2  A    between atoms: C_4  and  C_9
REMARK    3  A    between atoms: C_6  and  C_10
REMARK    4  A    between atoms: C_6  and  C_11
REMARK                            x       y       z     vdW  Elec       q    Type
REMARK                         _______ _______ _______ _____ _____    ______ ____
ROOT
ATOM      1  O   UNL     1       2.907  15.326  -7.740  0.00  0.00    +0.000 OA
ATOM      2  C   UNL     1       3.768  14.946  -9.949  0.00  0.00    +0.000 C 
ATOM      3  C   UNL     1       4.921  15.669 -10.648  0.00  0.00    +0.000 C 
ATOM      4  C   UNL     1       6.365  15.558  -8.547  0.00  0.00    +0.000 C 
ATOM      5  C   UNL     1       6.293  15.328 -10.063  0.00  0.00    +0.000 C 
ATOM      6  C   UNL     1       5.245  14.808  -7.823  0.00  0.00    +0.000 C 
ATOM      7  C   UNL     1       3.890  15.086  -8.440  0.00  0.00    +0.000 C 
ATOM      8  H   UNL     1       2.838  15.451 -10.245  0.00  0.00    +0.000 HD
ATOM      9  H   UNL     1       4.762  16.750 -10.530  0.00  0.00    +0.000 HD
ATOM     10  H   UNL     1       4.926  15.512 -11.730  0.00  0.00    +0.000 HD
ATOM     11  H   UNL     1       7.323  15.157  -8.193  0.00  0.00    +0.000 HD
ATOM     12  H   UNL     1       6.528  14.279 -10.281  0.00  0.00    +0.000 HD
ATOM     13  H   UNL     1       7.061  15.927 -10.569  0.00  0.00    +0.000 HD
ATOM     14  H   UNL     1       5.217  15.088  -6.764  0.00  0.00    +0.000 HD
ATOM     15  H   UNL     1       5.418  13.726  -7.869  0.00  0.00    +0.000 HD
ENDROOT
BRANCH   4  16
ATOM     16  C   UNL     1       6.351  17.049  -8.194  0.00  0.00    +0.000 C 
ATOM     17  H   UNL     1       5.369  17.487  -8.400  0.00  0.00    +0.000 HD
ATOM     18  H   UNL     1       6.589  17.229  -7.141  0.00  0.00    +0.000 HD
ATOM     19  H   UNL     1       7.088  17.590  -8.796  0.00  0.00    +0.000 HD
ENDBRANCH   4  16
BRANCH   2  20
ATOM     20  C   UNL     1       3.680  13.470 -10.326  0.00  0.00    +0.000 C 
ATOM     21  H   UNL     1       4.362  12.873  -9.707  0.00  0.00    +0.000 HD
BRANCH  20  22
ATOM     22  C   UNL     1       2.272  12.933 -10.076  0.00  0.00    +0.000 C 
ATOM     23  H   UNL     1       2.284  12.089  -9.377  0.00  0.00    +0.000 HD
ATOM     24  H   UNL     1       1.633  13.711  -9.646  0.00  0.00    +0.000 HD
ATOM     25  H   UNL     1       1.788  12.606 -11.002  0.00  0.00    +0.000 HD
ENDBRANCH  20  22
BRANCH  20  26
ATOM     26  C   UNL     1       4.082  13.262 -11.785  0.00  0.00    +0.000 C 
ATOM     27  H   UNL     1       5.167  13.331 -11.919  0.00  0.00    +0.000 HD
ATOM     28  H   UNL     1       3.622  14.024 -12.424  0.00  0.00    +0.000 HD
ATOM     29  H   UNL     1       3.740  12.298 -12.170  0.00  0.00    +0.000 HD
ENDBRANCH  20  26
ENDBRANCH   2  20
TORSDOF 4
ENDMDL
MODEL 10
REMARK VINA RESULT:    -3.892     26.917     28.120
REMARK INTER + INTRA:          -4.624
REMARK INTER:                  -4.460
REMARK INTRA:                  -0.163
REMARK UNBOUND:                -0.163
REMARK  Name = 26447
REMARK  4 active torsions:
REMARK  status: ('A' for Active; 'I' for Inactive)
REMARK    1  A    between atoms: C_2  and  C_6
REMARK    2  A    between atoms: C_4  and  C_9
REMARK    3  A    between atoms: C_6  and  C_10
REMARK    4  A    between atoms: C_6  and  C_11
REMARK                            x       y       z     vdW  Elec       q    Type
REMARK                         _______ _______ _______ _____ _____    ______ ____
ROOT
ATOM      1  O   UNL     1      -2.088  12.253  14.047  0.00  0.00    +0.000 OA
ATOM      2  C   UNL     1      -2.607  10.064  13.208  0.00  0.00    +0.000 C 
ATOM      3  C   UNL     1      -2.478   9.549  11.773  0.00  0.00    +0.000 C 
ATOM      4  C   UNL     1      -0.187  10.640  11.509  0.00  0.00    +0.000 C 
ATOM      5  C   UNL     1      -1.027   9.369  11.323  0.00  0.00    +0.000 C 
ATOM      6  C   UNL     1      -0.267  11.148  12.949  0.00  0.00    +0.000 C 
ATOM      7  C   UNL     1      -1.701  11.264  13.427  0.00  0.00    +0.000 C 
ATOM      8  H   UNL     1      -3.641  10.414  13.338  0.00  0.00    +0.000 HD
ATOM      9  H   UNL     1      -2.950  10.286  11.107  0.00  0.00    +0.000 HD
ATOM     10  H   UNL     1      -3.041   8.628  11.601  0.00  0.00    +0.000 HD
ATOM     11  H   UNL     1       0.859  10.383  11.299  0.00  0.00    +0.000 HD
ATOM     12  H   UNL     1      -0.572   8.549  11.891  0.00  0.00    +0.000 HD
ATOM     13  H   UNL     1      -1.010   9.060  10.271  0.00  0.00    +0.000 HD
ATOM     14  H   UNL     1       0.217  12.127  13.039  0.00  0.00    +0.000 HD
ATOM     15  H   UNL     1       0.256  10.463  13.626  0.00  0.00    +0.000 HD
ENDROOT
BRANCH   4  16
ATOM     16  C   UNL     1      -0.580  11.736  10.513  0.00  0.00    +0.000 C 
ATOM     17  H   UNL     1      -1.285  11.349   9.769  0.00  0.00    +0.000 HD
ATOM     18  H   UNL     1      -1.043  12.598  11.003  0.00  0.00    +0.000 HD
ATOM     19  H   UNL     1       0.302  12.097   9.975  0.00  0.00    +0.000 HD
ENDBRANCH   4  16
BRANCH   2  20
ATOM     20  C   UNL     1      -2.306   8.991  14.250  0.00  0.00    +0.000 C 
ATOM     21  H   UNL     1      -1.225   8.823  14.328  0.00  0.00    +0.000 HD
BRANCH  20  22
ATOM     22  C   UNL     1      -2.785   9.432  15.633  0.00  0.00    +0.000 C 
ATOM     23  H   UNL     1      -3.057   8.572  16.255  0.00  0.00    +0.000 HD
ATOM     24  H   UNL     1      -1.997   9.984  16.156  0.00  0.00    +0.000 HD
ATOM     25  H   UNL     1      -3.649  10.101  15.572  0.00  0.00    +0.000 HD
ENDBRANCH  20  22
BRANCH  20  26
ATOM     26  C   UNL     1      -2.951   7.663  13.859  0.00  0.00    +0.000 C 
ATOM     27  H   UNL     1      -2.212   6.951  13.475  0.00  0.00    +0.000 HD
ATOM     28  H   UNL     1      -3.700   7.815  13.073  0.00  0.00    +0.000 HD
ATOM     29  H   UNL     1      -3.482   7.203  14.697  0.00  0.00    +0.000 HD
ENDBRANCH  20  26
ENDBRANCH   2  20
TORSDOF 4
ENDMDL
