MODEL 1
REMARK VINA RESULT:    -4.452      0.000      0.000
REMARK INTER + INTRA:          -6.515
REMARK INTER:                  -6.073
REMARK INTRA:                  -0.442
REMARK UNBOUND:                -0.241
REMARK  Name = 7826
REMARK  8 active torsions:
REMARK  status: ('A' for Active; 'I' for Inactive)
REMARK    1  A    between atoms: O_1  and  C_9
REMARK    2  A    between atoms: O_1  and  C_10
REMARK    3  A    between atoms: C_3  and  C_4
REMARK    4  A    between atoms: C_3  and  C_5
REMARK    5  A    between atoms: C_4  and  C_6
REMARK    6  A    between atoms: C_5  and  C_7
REMARK    7  A    between atoms: C_6  and  C_8
REMARK    8  A    between atoms: C_7  and  C_9
REMARK                            x       y       z     vdW  Elec       q    Type
REMARK                         _______ _______ _______ _____ _____    ______ ____
ROOT
ATOM      1  C   UNL     1       6.085  -1.682  -2.818  0.00  0.00    +0.000 C 
ATOM      2  H   UNL     1       6.416  -1.811  -3.856  0.00  0.00    +0.000 HD
ATOM      3  H   UNL     1       5.305  -2.430  -2.631  0.00  0.00    +0.000 HD
ENDROOT
BRANCH   1   4
ATOM      4  C   UNL     1       5.505  -0.279  -2.630  0.00  0.00    +0.000 C 
ATOM      5  H   UNL     1       4.584  -0.337  -2.038  0.00  0.00    +0.000 HD
ATOM      6  H   UNL     1       6.214   0.338  -2.065  0.00  0.00    +0.000 HD
BRANCH   4   7
ATOM      7  C   UNL     1       5.207   0.384  -3.976  0.00  0.00    +0.000 C 
ATOM      8  H   UNL     1       5.369   1.465  -3.901  0.00  0.00    +0.000 HD
ATOM      9  H   UNL     1       4.154   0.230  -4.241  0.00  0.00    +0.000 HD
BRANCH   7  10
ATOM     10  C   UNL     1       6.086  -0.179  -5.081  0.00  0.00    +0.000 C 
ATOM     11  H   UNL     1       5.484  -0.693  -5.837  0.00  0.00    +0.000 HD
ATOM     12  H   UNL     1       6.800  -0.898  -4.668  0.00  0.00    +0.000 HD
ATOM     13  H   UNL     1       6.653   0.617  -5.575  0.00  0.00    +0.000 HD
ENDBRANCH   7  10
ENDBRANCH   4   7
ENDBRANCH   1   4
BRANCH   1  14
ATOM     14  C   UNL     1       7.264  -1.927  -1.871  0.00  0.00    +0.000 C 
ATOM     15  H   UNL     1       7.333  -1.103  -1.149  0.00  0.00    +0.000 HD
ATOM     16  H   UNL     1       7.081  -2.838  -1.287  0.00  0.00    +0.000 HD
BRANCH  14  17
ATOM     17  C   UNL     1       8.592  -2.062  -2.615  0.00  0.00    +0.000 C 
ATOM     18  H   UNL     1       9.342  -2.507  -1.950  0.00  0.00    +0.000 HD
ATOM     19  H   UNL     1       8.456  -2.717  -3.483  0.00  0.00    +0.000 HD
BRANCH  17  21
ATOM     20  O   UNL     1       9.058   0.323  -2.505  0.00  0.00    +0.000 OA
ATOM     21  C   UNL     1       9.137  -0.739  -3.107  0.00  0.00    +0.000 C 
BRANCH  21  22
ATOM     22  O   UNL     1       9.698  -0.920  -4.339  0.00  0.00    +0.000 OA
BRANCH  22  23
ATOM     23  C   UNL     1      10.630  -2.001  -4.440  0.00  0.00    +0.000 C 
ATOM     24  H   UNL     1      11.086  -2.016  -5.434  0.00  0.00    +0.000 HD
ATOM     25  H   UNL     1      10.082  -2.935  -4.292  0.00  0.00    +0.000 HD
ATOM     26  H   UNL     1      11.395  -1.915  -3.663  0.00  0.00    +0.000 HD
ENDBRANCH  22  23
ENDBRANCH  21  22
ENDBRANCH  17  21
ENDBRANCH  14  17
ENDBRANCH   1  14
TORSDOF 8
ENDMDL
MODEL 2
REMARK VINA RESULT:    -4.073     15.473     16.376
REMARK INTER + INTRA:          -5.981
REMARK INTER:                  -5.761
REMARK INTRA:                  -0.219
REMARK UNBOUND:                -0.241
REMARK  Name = 7826
REMARK  8 active torsions:
REMARK  status: ('A' for Active; 'I' for Inactive)
REMARK    1  A    between atoms: O_1  and  C_9
REMARK    2  A    between atoms: O_1  and  C_10
REMARK    3  A    between atoms: C_3  and  C_4
REMARK    4  A    between atoms: C_3  and  C_5
REMARK    5  A    between atoms: C_4  and  C_6
REMARK    6  A    between atoms: C_5  and  C_7
REMARK    7  A    between atoms: C_6  and  C_8
REMARK    8  A    between atoms: C_7  and  C_9
REMARK                            x       y       z     vdW  Elec       q    Type
REMARK                         _______ _______ _______ _____ _____    ______ ____
ROOT
ATOM      1  C   UNL     1      -0.899 -13.548 -10.205  0.00  0.00    +0.000 C 
ATOM      2  H   UNL     1      -0.337 -14.337  -9.691  0.00  0.00    +0.000 HD
ATOM      3  H   UNL     1      -1.751 -14.027 -10.702  0.00  0.00    +0.000 HD
ENDROOT
BRANCH   1   4
ATOM      4  C   UNL     1      -0.007 -12.876 -11.251  0.00  0.00    +0.000 C 
ATOM      5  H   UNL     1      -0.245 -11.807 -11.307  0.00  0.00    +0.000 HD
ATOM      6  H   UNL     1       1.043 -12.957 -10.943  0.00  0.00    +0.000 HD
BRANCH   4   7
ATOM      7  C   UNL     1      -0.188 -13.513 -12.629  0.00  0.00    +0.000 C 
ATOM      8  H   UNL     1       0.643 -14.197 -12.835  0.00  0.00    +0.000 HD
ATOM      9  H   UNL     1      -0.169 -12.737 -13.403  0.00  0.00    +0.000 HD
BRANCH   7  10
ATOM     10  C   UNL     1      -1.500 -14.276 -12.721  0.00  0.00    +0.000 C 
ATOM     11  H   UNL     1      -2.068 -14.194 -11.789  0.00  0.00    +0.000 HD
ATOM     12  H   UNL     1      -1.308 -15.337 -12.911  0.00  0.00    +0.000 HD
ATOM     13  H   UNL     1      -2.121 -13.892 -13.537  0.00  0.00    +0.000 HD
ENDBRANCH   7  10
ENDBRANCH   4   7
ENDBRANCH   1   4
BRANCH   1  14
ATOM     14  C   UNL     1      -1.412 -12.533  -9.178  0.00  0.00    +0.000 C 
ATOM     15  H   UNL     1      -1.739 -11.622  -9.695  0.00  0.00    +0.000 HD
ATOM     16  H   UNL     1      -2.297 -12.940  -8.674  0.00  0.00    +0.000 HD
BRANCH  14  17
ATOM     17  C   UNL     1      -0.356 -12.174  -8.135  0.00  0.00    +0.000 C 
ATOM     18  H   UNL     1       0.587 -12.680  -8.376  0.00  0.00    +0.000 HD
ATOM     19  H   UNL     1      -0.188 -11.090  -8.147  0.00  0.00    +0.000 HD
BRANCH  17  21
ATOM     20  O   UNL     1      -0.222 -12.153  -5.706  0.00  0.00    +0.000 OA
ATOM     21  C   UNL     1      -0.747 -12.571  -6.729  0.00  0.00    +0.000 C 
BRANCH  21  22
ATOM     22  O   UNL     1      -1.755 -13.492  -6.791  0.00  0.00    +0.000 OA
BRANCH  22  23
ATOM     23  C   UNL     1      -1.905 -14.322  -5.635  0.00  0.00    +0.000 C 
ATOM     24  H   UNL     1      -1.863 -15.377  -5.919  0.00  0.00    +0.000 HD
ATOM     25  H   UNL     1      -2.884 -14.116  -5.194  0.00  0.00    +0.000 HD
ATOM     26  H   UNL     1      -1.131 -14.088  -4.898  0.00  0.00    +0.000 HD
ENDBRANCH  22  23
ENDBRANCH  21  22
ENDBRANCH  17  21
ENDBRANCH  14  17
ENDBRANCH   1  14
TORSDOF 8
ENDMDL
MODEL 3
REMARK VINA RESULT:    -4.063     15.949     16.931
REMARK INTER + INTRA:          -5.966
REMARK INTER:                  -5.762
REMARK INTRA:                  -0.204
REMARK UNBOUND:                -0.241
REMARK  Name = 7826
REMARK  8 active torsions:
REMARK  status: ('A' for Active; 'I' for Inactive)
REMARK    1  A    between atoms: O_1  and  C_9
REMARK    2  A    between atoms: O_1  and  C_10
REMARK    3  A    between atoms: C_3  and  C_4
REMARK    4  A    between atoms: C_3  and  C_5
REMARK    5  A    between atoms: C_4  and  C_6
REMARK    6  A    between atoms: C_5  and  C_7
REMARK    7  A    between atoms: C_6  and  C_8
REMARK    8  A    between atoms: C_7  and  C_9
REMARK                            x       y       z     vdW  Elec       q    Type
REMARK                         _______ _______ _______ _____ _____    ______ ____
ROOT
ATOM      1  C   UNL     1      -0.710 -12.295  -8.406  0.00  0.00    +0.000 C 
ATOM      2  H   UNL     1       0.130 -11.995  -7.768  0.00  0.00    +0.000 HD
ATOM      3  H   UNL     1      -1.479 -11.518  -8.317  0.00  0.00    +0.000 HD
ENDROOT
BRANCH   1   4
ATOM      4  C   UNL     1      -1.274 -13.633  -7.923  0.00  0.00    +0.000 C 
ATOM      5  H   UNL     1      -2.226 -13.835  -8.428  0.00  0.00    +0.000 HD
ATOM      6  H   UNL     1      -0.585 -14.441  -8.197  0.00  0.00    +0.000 HD
BRANCH   4   7
ATOM      7  C   UNL     1      -1.487 -13.632  -6.409  0.00  0.00    +0.000 C 
ATOM      8  H   UNL     1      -1.303 -14.635  -6.008  0.00  0.00    +0.000 HD
ATOM      9  H   UNL     1      -2.528 -13.376  -6.180  0.00  0.00    +0.000 HD
BRANCH   7  10
ATOM     10  C   UNL     1      -0.567 -12.639  -5.717  0.00  0.00    +0.000 C 
ATOM     11  H   UNL     1      -0.891 -12.456  -4.688  0.00  0.00    +0.000 HD
ATOM     12  H   UNL     1      -0.571 -11.684  -6.251  0.00  0.00    +0.000 HD
ATOM     13  H   UNL     1       0.463 -13.011  -5.692  0.00  0.00    +0.000 HD
ENDBRANCH   7  10
ENDBRANCH   4   7
ENDBRANCH   1   4
BRANCH   1  14
ATOM     14  C   UNL     1      -0.240 -12.383  -9.862  0.00  0.00    +0.000 C 
ATOM     15  H   UNL     1      -0.379 -11.411 -10.352  0.00  0.00    +0.000 HD
ATOM     16  H   UNL     1       0.837 -12.593  -9.886  0.00  0.00    +0.000 HD
BRANCH  14  17
ATOM     17  C   UNL     1      -0.983 -13.460 -10.651  0.00  0.00    +0.000 C 
ATOM     18  H   UNL     1      -0.845 -14.433 -10.165  0.00  0.00    +0.000 HD
ATOM     19  H   UNL     1      -2.053 -13.223 -10.668  0.00  0.00    +0.000 HD
BRANCH  17  21
ATOM     20  O   UNL     1       0.455 -13.001 -12.558  0.00  0.00    +0.000 OA
ATOM     21  C   UNL     1      -0.508 -13.585 -12.082  0.00  0.00    +0.000 C 
BRANCH  21  22
ATOM     22  O   UNL     1      -1.345 -14.428 -12.756  0.00  0.00    +0.000 OA
BRANCH  22  23
ATOM     23  C   UNL     1      -1.226 -15.814 -12.422  0.00  0.00    +0.000 C 
ATOM     24  H   UNL     1      -1.602 -15.994 -11.411  0.00  0.00    +0.000 HD
ATOM     25  H   UNL     1      -0.166 -16.081 -12.454  0.00  0.00    +0.000 HD
ATOM     26  H   UNL     1      -1.764 -16.427 -13.151  0.00  0.00    +0.000 HD
ENDBRANCH  22  23
ENDBRANCH  21  22
ENDBRANCH  17  21
ENDBRANCH  14  17
ENDBRANCH   1  14
TORSDOF 8
ENDMDL
MODEL 4
REMARK VINA RESULT:    -3.789      2.552      3.328
REMARK INTER + INTRA:          -5.580
REMARK INTER:                  -5.297
REMARK INTRA:                  -0.283
REMARK UNBOUND:                -0.241
REMARK  Name = 7826
REMARK  8 active torsions:
REMARK  status: ('A' for Active; 'I' for Inactive)
REMARK    1  A    between atoms: O_1  and  C_9
REMARK    2  A    between atoms: O_1  and  C_10
REMARK    3  A    between atoms: C_3  and  C_4
REMARK    4  A    between atoms: C_3  and  C_5
REMARK    5  A    between atoms: C_4  and  C_6
REMARK    6  A    between atoms: C_5  and  C_7
REMARK    7  A    between atoms: C_6  and  C_8
REMARK    8  A    between atoms: C_7  and  C_9
REMARK                            x       y       z     vdW  Elec       q    Type
REMARK                         _______ _______ _______ _____ _____    ______ ____
ROOT
ATOM      1  C   UNL     1       5.654  -1.099  -2.213  0.00  0.00    +0.000 C 
ATOM      2  H   UNL     1       4.925  -1.734  -1.693  0.00  0.00    +0.000 HD
ATOM      3  H   UNL     1       5.092  -0.294  -2.701  0.00  0.00    +0.000 HD
ENDROOT
BRANCH   1   4
ATOM      4  C   UNL     1       6.394  -1.922  -3.269  0.00  0.00    +0.000 C 
ATOM      5  H   UNL     1       7.364  -2.245  -2.871  0.00  0.00    +0.000 HD
ATOM      6  H   UNL     1       5.821  -2.829  -3.495  0.00  0.00    +0.000 HD
BRANCH   4   7
ATOM      7  C   UNL     1       6.610  -1.117  -4.551  0.00  0.00    +0.000 C 
ATOM      8  H   UNL     1       6.014  -0.198  -4.516  0.00  0.00    +0.000 HD
ATOM      9  H   UNL     1       6.264  -1.696  -5.416  0.00  0.00    +0.000 HD
BRANCH   7  10
ATOM     10  C   UNL     1       8.074  -0.758  -4.744  0.00  0.00    +0.000 C 
ATOM     11  H   UNL     1       8.651  -0.963  -3.837  0.00  0.00    +0.000 HD
ATOM     12  H   UNL     1       8.175   0.305  -4.980  0.00  0.00    +0.000 HD
ATOM     13  H   UNL     1       8.513  -1.332  -5.567  0.00  0.00    +0.000 HD
ENDBRANCH   7  10
ENDBRANCH   4   7
ENDBRANCH   1   4
BRANCH   1  14
ATOM     14  C   UNL     1       6.627  -0.498  -1.194  0.00  0.00    +0.000 C 
ATOM     15  H   UNL     1       6.918   0.510  -1.515  0.00  0.00    +0.000 HD
ATOM     16  H   UNL     1       6.119  -0.383  -0.228  0.00  0.00    +0.000 HD
BRANCH  14  17
ATOM     17  C   UNL     1       7.880  -1.353  -1.008  0.00  0.00    +0.000 C 
ATOM     18  H   UNL     1       7.589  -2.387  -0.787  0.00  0.00    +0.000 HD
ATOM     19  H   UNL     1       8.467  -1.340  -1.933  0.00  0.00    +0.000 HD
BRANCH  17  21
ATOM     20  O   UNL     1       9.235   0.255   0.215  0.00  0.00    +0.000 OA
ATOM     21  C   UNL     1       8.768  -0.871   0.118  0.00  0.00    +0.000 C 
BRANCH  21  22
ATOM     22  O   UNL     1       8.987  -1.905   0.985  0.00  0.00    +0.000 OA
BRANCH  22  23
ATOM     23  C   UNL     1       9.910  -1.636   2.044  0.00  0.00    +0.000 C 
ATOM     24  H   UNL     1      10.797  -1.128   1.654  0.00  0.00    +0.000 HD
ATOM     25  H   UNL     1      10.216  -2.592   2.478  0.00  0.00    +0.000 HD
ATOM     26  H   UNL     1       9.430  -1.035   2.822  0.00  0.00    +0.000 HD
ENDBRANCH  22  23
ENDBRANCH  21  22
ENDBRANCH  17  21
ENDBRANCH  14  17
ENDBRANCH   1  14
TORSDOF 8
ENDMDL
MODEL 5
REMARK VINA RESULT:    -3.729     24.767     25.732
REMARK INTER + INTRA:          -5.496
REMARK INTER:                  -5.297
REMARK INTRA:                  -0.199
REMARK UNBOUND:                -0.241
REMARK  Name = 7826
REMARK  8 active torsions:
REMARK  status: ('A' for Active; 'I' for Inactive)
REMARK    1  A    between atoms: O_1  and  C_9
REMARK    2  A    between atoms: O_1  and  C_10
REMARK    3  A    between atoms: C_3  and  C_4
REMARK    4  A    between atoms: C_3  and  C_5
REMARK    5  A    between atoms: C_4  and  C_6
REMARK    6  A    between atoms: C_5  and  C_7
REMARK    7  A    between atoms: C_6  and  C_8
REMARK    8  A    between atoms: C_7  and  C_9
REMARK                            x       y       z     vdW  Elec       q    Type
REMARK                         _______ _______ _______ _____ _____    ______ ____
ROOT
ATOM      1  C   UNL     1       0.604  -7.871  20.600  0.00  0.00    +0.000 C 
ATOM      2  H   UNL     1       0.450  -8.495  19.711  0.00  0.00    +0.000 HD
ATOM      3  H   UNL     1       0.505  -8.524  21.475  0.00  0.00    +0.000 HD
ENDROOT
BRANCH   1   4
ATOM      4  C   UNL     1      -0.461  -6.775  20.653  0.00  0.00    +0.000 C 
ATOM      5  H   UNL     1      -0.083  -5.920  21.227  0.00  0.00    +0.000 HD
ATOM      6  H   UNL     1      -0.668  -6.416  19.638  0.00  0.00    +0.000 HD
BRANCH   4   7
ATOM      7  C   UNL     1      -1.754  -7.287  21.290  0.00  0.00    +0.000 C 
ATOM      8  H   UNL     1      -1.552  -7.640  22.307  0.00  0.00    +0.000 HD
ATOM      9  H   UNL     1      -2.137  -8.141  20.719  0.00  0.00    +0.000 HD
BRANCH   7  10
ATOM     10  C   UNL     1      -2.818  -6.202  21.339  0.00  0.00    +0.000 C 
ATOM     11  H   UNL     1      -2.378  -5.233  21.595  0.00  0.00    +0.000 HD
ATOM     12  H   UNL     1      -3.571  -6.444  22.094  0.00  0.00    +0.000 HD
ATOM     13  H   UNL     1      -3.324  -6.106  20.372  0.00  0.00    +0.000 HD
ENDBRANCH   7  10
ENDBRANCH   4   7
ENDBRANCH   1   4
BRANCH   1  14
ATOM     14  C   UNL     1       2.015  -7.274  20.566  0.00  0.00    +0.000 C 
ATOM     15  H   UNL     1       2.716  -7.960  21.056  0.00  0.00    +0.000 HD
ATOM     16  H   UNL     1       2.347  -7.180  19.524  0.00  0.00    +0.000 HD
BRANCH  14  17
ATOM     17  C   UNL     1       2.086  -5.906  21.244  0.00  0.00    +0.000 C 
ATOM     18  H   UNL     1       1.144  -5.368  21.085  0.00  0.00    +0.000 HD
ATOM     19  H   UNL     1       2.237  -6.043  22.321  0.00  0.00    +0.000 HD
BRANCH  17  21
ATOM     20  O   UNL     1       3.065  -4.048  20.017  0.00  0.00    +0.000 OA
ATOM     21  C   UNL     1       3.209  -5.039  20.720  0.00  0.00    +0.000 C 
BRANCH  21  22
ATOM     22  O   UNL     1       4.403  -5.560  21.132  0.00  0.00    +0.000 OA
BRANCH  22  23
ATOM     23  C   UNL     1       4.942  -4.994  22.330  0.00  0.00    +0.000 C 
ATOM     24  H   UNL     1       5.557  -4.121  22.094  0.00  0.00    +0.000 HD
ATOM     25  H   UNL     1       5.574  -5.748  22.807  0.00  0.00    +0.000 HD
ATOM     26  H   UNL     1       4.136  -4.726  23.019  0.00  0.00    +0.000 HD
ENDBRANCH  22  23
ENDBRANCH  21  22
ENDBRANCH  17  21
ENDBRANCH  14  17
ENDBRANCH   1  14
TORSDOF 8
ENDMDL
MODEL 6
REMARK VINA RESULT:    -3.589     20.122     21.752
REMARK INTER + INTRA:          -5.298
REMARK INTER:                  -4.980
REMARK INTRA:                  -0.318
REMARK UNBOUND:                -0.241
REMARK  Name = 7826
REMARK  8 active torsions:
REMARK  status: ('A' for Active; 'I' for Inactive)
REMARK    1  A    between atoms: O_1  and  C_9
REMARK    2  A    between atoms: O_1  and  C_10
REMARK    3  A    between atoms: C_3  and  C_4
REMARK    4  A    between atoms: C_3  and  C_5
REMARK    5  A    between atoms: C_4  and  C_6
REMARK    6  A    between atoms: C_5  and  C_7
REMARK    7  A    between atoms: C_6  and  C_8
REMARK    8  A    between atoms: C_7  and  C_9
REMARK                            x       y       z     vdW  Elec       q    Type
REMARK                         _______ _______ _______ _____ _____    ______ ____
ROOT
ATOM      1  C   UNL     1      -2.237   8.678  12.460  0.00  0.00    +0.000 C 
ATOM      2  H   UNL     1      -2.230   8.033  11.573  0.00  0.00    +0.000 HD
ATOM      3  H   UNL     1      -1.199   8.973  12.656  0.00  0.00    +0.000 HD
ENDROOT
BRANCH   1   4
ATOM      4  C   UNL     1      -2.786   7.902  13.659  0.00  0.00    +0.000 C 
ATOM      5  H   UNL     1      -3.616   7.262  13.336  0.00  0.00    +0.000 HD
ATOM      6  H   UNL     1      -2.005   7.242  14.055  0.00  0.00    +0.000 HD
BRANCH   4   7
ATOM      7  C   UNL     1      -3.267   8.847  14.760  0.00  0.00    +0.000 C 
ATOM      8  H   UNL     1      -4.161   8.433  15.240  0.00  0.00    +0.000 HD
ATOM      9  H   UNL     1      -3.549   9.812  14.325  0.00  0.00    +0.000 HD
BRANCH   7  10
ATOM     10  C   UNL     1      -2.192   9.070  15.812  0.00  0.00    +0.000 C 
ATOM     11  H   UNL     1      -1.217   9.244  15.346  0.00  0.00    +0.000 HD
ATOM     12  H   UNL     1      -2.108   8.192  16.459  0.00  0.00    +0.000 HD
ATOM     13  H   UNL     1      -2.432   9.934  16.441  0.00  0.00    +0.000 HD
ENDBRANCH   7  10
ENDBRANCH   4   7
ENDBRANCH   1   4
BRANCH   1  14
ATOM     14  C   UNL     1      -3.078   9.928  12.176  0.00  0.00    +0.000 C 
ATOM     15  H   UNL     1      -3.650   9.783  11.251  0.00  0.00    +0.000 HD
ATOM     16  H   UNL     1      -3.813  10.064  12.979  0.00  0.00    +0.000 HD
BRANCH  14  17
ATOM     17  C   UNL     1      -2.225  11.189  12.052  0.00  0.00    +0.000 C 
ATOM     18  H   UNL     1      -2.654  11.985  12.673  0.00  0.00    +0.000 HD
ATOM     19  H   UNL     1      -1.209  10.975  12.405  0.00  0.00    +0.000 HD
BRANCH  17  21
ATOM     20  O   UNL     1      -2.738  12.672  10.194  0.00  0.00    +0.000 OA
ATOM     21  C   UNL     1      -2.129  11.707  10.635  0.00  0.00    +0.000 C 
BRANCH  21  22
ATOM     22  O   UNL     1      -1.280  10.906   9.924  0.00  0.00    +0.000 OA
BRANCH  22  23
ATOM     23  C   UNL     1       0.115  11.153  10.126  0.00  0.00    +0.000 C 
ATOM     24  H   UNL     1       0.255  11.961  10.850  0.00  0.00    +0.000 HD
ATOM     25  H   UNL     1       0.547  11.460   9.170  0.00  0.00    +0.000 HD
ATOM     26  H   UNL     1       0.617  10.241  10.461  0.00  0.00    +0.000 HD
ENDBRANCH  22  23
ENDBRANCH  21  22
ENDBRANCH  17  21
ENDBRANCH  14  17
ENDBRANCH   1  14
TORSDOF 8
ENDMDL
MODEL 7
REMARK VINA RESULT:    -3.540      3.099      4.874
REMARK INTER + INTRA:          -5.229
REMARK INTER:                  -4.971
REMARK INTRA:                  -0.258
REMARK UNBOUND:                -0.241
REMARK  Name = 7826
REMARK  8 active torsions:
REMARK  status: ('A' for Active; 'I' for Inactive)
REMARK    1  A    between atoms: O_1  and  C_9
REMARK    2  A    between atoms: O_1  and  C_10
REMARK    3  A    between atoms: C_3  and  C_4
REMARK    4  A    between atoms: C_3  and  C_5
REMARK    5  A    between atoms: C_4  and  C_6
REMARK    6  A    between atoms: C_5  and  C_7
REMARK    7  A    between atoms: C_6  and  C_8
REMARK    8  A    between atoms: C_7  and  C_9
REMARK                            x       y       z     vdW  Elec       q    Type
REMARK                         _______ _______ _______ _____ _____    ______ ____
ROOT
ATOM      1  C   UNL     1       8.737  -0.999  -0.742  0.00  0.00    +0.000 C 
ATOM      2  H   UNL     1       9.327  -1.439   0.072  0.00  0.00    +0.000 HD
ATOM      3  H   UNL     1       7.683  -1.065  -0.449  0.00  0.00    +0.000 HD
ENDROOT
BRANCH   1   4
ATOM      4  C   UNL     1       8.963  -1.792  -2.031  0.00  0.00    +0.000 C 
ATOM      5  H   UNL     1       9.566  -2.683  -1.815  0.00  0.00    +0.000 HD
ATOM      6  H   UNL     1       7.999  -2.141  -2.419  0.00  0.00    +0.000 HD
BRANCH   4   7
ATOM      7  C   UNL     1       9.667  -0.943  -3.090  0.00  0.00    +0.000 C 
ATOM      8  H   UNL     1      10.381  -0.265  -2.608  0.00  0.00    +0.000 HD
ATOM      9  H   UNL     1       8.933  -0.321  -3.615  0.00  0.00    +0.000 HD
BRANCH   7  10
ATOM     10  C   UNL     1      10.401  -1.809  -4.100  0.00  0.00    +0.000 C 
ATOM     11  H   UNL     1      10.456  -2.848  -3.760  0.00  0.00    +0.000 HD
ATOM     12  H   UNL     1      11.422  -1.442  -4.242  0.00  0.00    +0.000 HD
ATOM     13  H   UNL     1       9.896  -1.792  -5.072  0.00  0.00    +0.000 HD
ENDBRANCH   7  10
ENDBRANCH   4   7
ENDBRANCH   1   4
BRANCH   1  14
ATOM     14  C   UNL     1       9.127   0.472  -0.919  0.00  0.00    +0.000 C 
ATOM     15  H   UNL     1      10.191   0.601  -0.680  0.00  0.00    +0.000 HD
ATOM     16  H   UNL     1       9.007   0.757  -1.972  0.00  0.00    +0.000 HD
BRANCH  14  17
ATOM     17  C   UNL     1       8.294   1.406  -0.043  0.00  0.00    +0.000 C 
ATOM     18  H   UNL     1       7.937   0.862   0.839  0.00  0.00    +0.000 HD
ATOM     19  H   UNL     1       8.917   2.245   0.287  0.00  0.00    +0.000 HD
BRANCH  17  21
ATOM     20  O   UNL     1       6.660   1.586  -1.836  0.00  0.00    +0.000 OA
ATOM     21  C   UNL     1       7.086   1.973  -0.757  0.00  0.00    +0.000 C 
BRANCH  21  22
ATOM     22  O   UNL     1       6.574   3.001  -0.017  0.00  0.00    +0.000 OA
BRANCH  22  23
ATOM     23  C   UNL     1       7.500   4.039   0.320  0.00  0.00    +0.000 C 
ATOM     24  H   UNL     1       8.443   3.606   0.668  0.00  0.00    +0.000 HD
ATOM     25  H   UNL     1       7.066   4.631   1.130  0.00  0.00    +0.000 HD
ATOM     26  H   UNL     1       7.668   4.691  -0.542  0.00  0.00    +0.000 HD
ENDBRANCH  22  23
ENDBRANCH  21  22
ENDBRANCH  17  21
ENDBRANCH  14  17
ENDBRANCH   1  14
TORSDOF 8
ENDMDL
MODEL 8
REMARK VINA RESULT:    -3.486     16.084     16.902
REMARK INTER + INTRA:          -5.153
REMARK INTER:                  -4.912
REMARK INTRA:                  -0.241
REMARK UNBOUND:                -0.241
REMARK  Name = 7826
REMARK  8 active torsions:
REMARK  status: ('A' for Active; 'I' for Inactive)
REMARK    1  A    between atoms: O_1  and  C_9
REMARK    2  A    between atoms: O_1  and  C_10
REMARK    3  A    between atoms: C_3  and  C_4
REMARK    4  A    between atoms: C_3  and  C_5
REMARK    5  A    between atoms: C_4  and  C_6
REMARK    6  A    between atoms: C_5  and  C_7
REMARK    7  A    between atoms: C_6  and  C_8
REMARK    8  A    between atoms: C_7  and  C_9
REMARK                            x       y       z     vdW  Elec       q    Type
REMARK                         _______ _______ _______ _____ _____    ______ ____
ROOT
ATOM      1  C   UNL     1       2.433  13.327  -9.936  0.00  0.00    +0.000 C 
ATOM      2  H   UNL     1       1.856  13.827 -10.723  0.00  0.00    +0.000 HD
ATOM      3  H   UNL     1       1.753  12.635  -9.424  0.00  0.00    +0.000 HD
ENDROOT
BRANCH   1   4
ATOM      4  C   UNL     1       2.956  14.363  -8.940  0.00  0.00    +0.000 C 
ATOM      5  H   UNL     1       2.609  15.362  -9.231  0.00  0.00    +0.000 HD
ATOM      6  H   UNL     1       2.544  14.156  -7.945  0.00  0.00    +0.000 HD
BRANCH   4   7
ATOM      7  C   UNL     1       4.484  14.352  -8.876  0.00  0.00    +0.000 C 
ATOM      8  H   UNL     1       4.898  14.716  -9.823  0.00  0.00    +0.000 HD
ATOM      9  H   UNL     1       4.842  13.326  -8.737  0.00  0.00    +0.000 HD
BRANCH   7  10
ATOM     10  C   UNL     1       5.000  15.218  -7.739  0.00  0.00    +0.000 C 
ATOM     11  H   UNL     1       5.501  14.610  -6.979  0.00  0.00    +0.000 HD
ATOM     12  H   UNL     1       4.171  15.747  -7.259  0.00  0.00    +0.000 HD
ATOM     13  H   UNL     1       5.712  15.965  -8.106  0.00  0.00    +0.000 HD
ENDBRANCH   7  10
ENDBRANCH   4   7
ENDBRANCH   1   4
BRANCH   1  14
ATOM     14  C   UNL     1       3.583  12.536 -10.569  0.00  0.00    +0.000 C 
ATOM     15  H   UNL     1       4.358  13.230 -10.918  0.00  0.00    +0.000 HD
ATOM     16  H   UNL     1       4.053  11.901  -9.807  0.00  0.00    +0.000 HD
BRANCH  14  17
ATOM     17  C   UNL     1       3.119  11.665 -11.736  0.00  0.00    +0.000 C 
ATOM     18  H   UNL     1       3.296  10.609 -11.500  0.00  0.00    +0.000 HD
ATOM     19  H   UNL     1       2.045  11.816 -11.896  0.00  0.00    +0.000 HD
BRANCH  17  21
ATOM     20  O   UNL     1       5.017  12.270 -13.132  0.00  0.00    +0.000 OA
ATOM     21  C   UNL     1       3.834  11.976 -13.033  0.00  0.00    +0.000 C 
BRANCH  21  22
ATOM     22  O   UNL     1       2.938  11.905 -14.062  0.00  0.00    +0.000 OA
BRANCH  22  23
ATOM     23  C   UNL     1       1.643  12.448 -13.791  0.00  0.00    +0.000 C 
ATOM     24  H   UNL     1       1.729  13.487 -13.460  0.00  0.00    +0.000 HD
ATOM     25  H   UNL     1       1.190  11.861 -12.988  0.00  0.00    +0.000 HD
ATOM     26  H   UNL     1       1.008  12.376 -14.679  0.00  0.00    +0.000 HD
ENDBRANCH  22  23
ENDBRANCH  21  22
ENDBRANCH  17  21
ENDBRANCH  14  17
ENDBRANCH   1  14
TORSDOF 8
ENDMDL
MODEL 9
REMARK VINA RESULT:    -3.470     16.226     17.076
REMARK INTER + INTRA:          -5.130
REMARK INTER:                  -4.910
REMARK INTRA:                  -0.220
REMARK UNBOUND:                -0.241
REMARK  Name = 7826
REMARK  8 active torsions:
REMARK  status: ('A' for Active; 'I' for Inactive)
REMARK    1  A    between atoms: O_1  and  C_9
REMARK    2  A    between atoms: O_1  and  C_10
REMARK    3  A    between atoms: C_3  and  C_4
REMARK    4  A    between atoms: C_3  and  C_5
REMARK    5  A    between atoms: C_4  and  C_6
REMARK    6  A    between atoms: C_5  and  C_7
REMARK    7  A    between atoms: C_6  and  C_8
REMARK    8  A    between atoms: C_7  and  C_9
REMARK                            x       y       z     vdW  Elec       q    Type
REMARK                         _______ _______ _______ _____ _____    ______ ____
ROOT
ATOM      1  C   UNL     1       2.993  14.491  -8.858  0.00  0.00    +0.000 C 
ATOM      2  H   UNL     1       2.731  14.352  -7.802  0.00  0.00    +0.000 HD
ATOM      3  H   UNL     1       2.670  15.499  -9.143  0.00  0.00    +0.000 HD
ENDROOT
BRANCH   1   4
ATOM      4  C   UNL     1       2.259  13.456  -9.713  0.00  0.00    +0.000 C 
ATOM      5  H   UNL     1       1.660  12.803  -9.067  0.00  0.00    +0.000 HD
ATOM      6  H   UNL     1       1.563  13.967 -10.389  0.00  0.00    +0.000 HD
BRANCH   4   7
ATOM      7  C   UNL     1       3.239  12.612 -10.528  0.00  0.00    +0.000 C 
ATOM      8  H   UNL     1       3.880  12.032  -9.853  0.00  0.00    +0.000 HD
ATOM      9  H   UNL     1       3.894  13.265 -11.116  0.00  0.00    +0.000 HD
BRANCH   7  10
ATOM     10  C   UNL     1       2.511  11.662 -11.465  0.00  0.00    +0.000 C 
ATOM     11  H   UNL     1       2.340  10.693 -10.986  0.00  0.00    +0.000 HD
ATOM     12  H   UNL     1       3.103  11.495 -12.370  0.00  0.00    +0.000 HD
ATOM     13  H   UNL     1       1.541  12.074 -11.765  0.00  0.00    +0.000 HD
ENDBRANCH   7  10
ENDBRANCH   4   7
ENDBRANCH   1   4
BRANCH   1  14
ATOM     14  C   UNL     1       4.512  14.375  -9.027  0.00  0.00    +0.000 C 
ATOM     15  H   UNL     1       4.789  13.319  -9.136  0.00  0.00    +0.000 HD
ATOM     16  H   UNL     1       4.815  14.874  -9.956  0.00  0.00    +0.000 HD
BRANCH  14  17
ATOM     17  C   UNL     1       5.278  14.982  -7.853  0.00  0.00    +0.000 C 
ATOM     18  H   UNL     1       4.577  15.491  -7.181  0.00  0.00    +0.000 HD
ATOM     19  H   UNL     1       5.783  14.183  -7.298  0.00  0.00    +0.000 HD
BRANCH  17  21
ATOM     20  O   UNL     1       6.481  17.095  -7.782  0.00  0.00    +0.000 OA
ATOM     21  C   UNL     1       6.323  15.989  -8.280  0.00  0.00    +0.000 C 
BRANCH  21  22
ATOM     22  O   UNL     1       7.034  15.475  -9.328  0.00  0.00    +0.000 OA
BRANCH  22  23
ATOM     23  C   UNL     1       7.414  16.416 -10.336  0.00  0.00    +0.000 C 
ATOM     24  H   UNL     1       8.454  16.254 -10.633  0.00  0.00    +0.000 HD
ATOM     25  H   UNL     1       7.322  17.421  -9.914  0.00  0.00    +0.000 HD
ATOM     26  H   UNL     1       6.747  16.336 -11.200  0.00  0.00    +0.000 HD
ENDBRANCH  22  23
ENDBRANCH  21  22
ENDBRANCH  17  21
ENDBRANCH  14  17
ENDBRANCH   1  14
TORSDOF 8
ENDMDL
MODEL 10
REMARK VINA RESULT:    -3.372     22.637     24.043
REMARK INTER + INTRA:          -4.993
REMARK INTER:                  -4.763
REMARK INTRA:                  -0.229
REMARK UNBOUND:                -0.241
REMARK  Name = 7826
REMARK  8 active torsions:
REMARK  status: ('A' for Active; 'I' for Inactive)
REMARK    1  A    between atoms: O_1  and  C_9
REMARK    2  A    between atoms: O_1  and  C_10
REMARK    3  A    between atoms: C_3  and  C_4
REMARK    4  A    between atoms: C_3  and  C_5
REMARK    5  A    between atoms: C_4  and  C_6
REMARK    6  A    between atoms: C_5  and  C_7
REMARK    7  A    between atoms: C_6  and  C_8
REMARK    8  A    between atoms: C_7  and  C_9
REMARK                            x       y       z     vdW  Elec       q    Type
REMARK                         _______ _______ _______ _____ _____    ______ ____
ROOT
ATOM      1  C   UNL     1       1.507  -6.162  21.033  0.00  0.00    +0.000 C 
ATOM      2  H   UNL     1       1.653  -6.729  21.961  0.00  0.00    +0.000 HD
ATOM      3  H   UNL     1       1.156  -5.162  21.316  0.00  0.00    +0.000 HD
ENDROOT
BRANCH   1   4
ATOM      4  C   UNL     1       0.451  -6.850  20.167  0.00  0.00    +0.000 C 
ATOM      5  H   UNL     1       0.035  -6.131  19.451  0.00  0.00    +0.000 HD
ATOM      6  H   UNL     1       0.921  -7.651  19.584  0.00  0.00    +0.000 HD
BRANCH   4   7
ATOM      7  C   UNL     1      -0.676  -7.432  21.021  0.00  0.00    +0.000 C 
ATOM      8  H   UNL     1      -0.349  -7.509  22.065  0.00  0.00    +0.000 HD
ATOM      9  H   UNL     1      -0.916  -8.445  20.680  0.00  0.00    +0.000 HD
BRANCH   7  10
ATOM     10  C   UNL     1      -1.928  -6.573  20.952  0.00  0.00    +0.000 C 
ATOM     11  H   UNL     1      -2.742  -7.106  20.450  0.00  0.00    +0.000 HD
ATOM     12  H   UNL     1      -1.726  -5.654  20.392  0.00  0.00    +0.000 HD
ATOM     13  H   UNL     1      -2.267  -6.292  21.954  0.00  0.00    +0.000 HD
ENDBRANCH   7  10
ENDBRANCH   4   7
ENDBRANCH   1   4
BRANCH   1  14
ATOM     14  C   UNL     1       2.843  -6.043  20.292  0.00  0.00    +0.000 C 
ATOM     15  H   UNL     1       3.669  -6.182  21.000  0.00  0.00    +0.000 HD
ATOM     16  H   UNL     1       2.924  -6.851  19.554  0.00  0.00    +0.000 HD
BRANCH  14  17
ATOM     17  C   UNL     1       3.001  -4.697  19.586  0.00  0.00    +0.000 C 
ATOM     18  H   UNL     1       2.234  -4.001  19.946  0.00  0.00    +0.000 HD
ATOM     19  H   UNL     1       3.990  -4.282  19.815  0.00  0.00    +0.000 HD
BRANCH  17  21
ATOM     20  O   UNL     1       2.689  -3.846  17.329  0.00  0.00    +0.000 OA
ATOM     21  C   UNL     1       2.869  -4.793  18.082  0.00  0.00    +0.000 C 
BRANCH  21  22
ATOM     22  O   UNL     1       2.952  -6.105  17.711  0.00  0.00    +0.000 OA
BRANCH  22  23
ATOM     23  C   UNL     1       3.664  -6.359  16.496  0.00  0.00    +0.000 C 
ATOM     24  H   UNL     1       4.567  -5.743  16.451  0.00  0.00    +0.000 HD
ATOM     25  H   UNL     1       3.014  -6.090  15.659  0.00  0.00    +0.000 HD
ATOM     26  H   UNL     1       3.915  -7.420  16.419  0.00  0.00    +0.000 HD
ENDBRANCH  22  23
ENDBRANCH  21  22
ENDBRANCH  17  21
ENDBRANCH  14  17
ENDBRANCH   1  14
TORSDOF 8
ENDMDL
