MODEL 1
REMARK VINA RESULT:    -4.096      0.000      0.000
REMARK INTER + INTRA:          -5.681
REMARK INTER:                  -5.452
REMARK INTRA:                  -0.229
REMARK UNBOUND:                -0.148
REMARK  Name = 7824
REMARK  7 active torsions:
REMARK  status: ('A' for Active; 'I' for Inactive)
REMARK    1  A    between atoms: O_1  and  C_8
REMARK    2  A    between atoms: O_1  and  C_9
REMARK    3  A    between atoms: C_3  and  C_4
REMARK    4  A    between atoms: C_3  and  C_5
REMARK    5  A    between atoms: C_4  and  C_6
REMARK    6  A    between atoms: C_5  and  C_7
REMARK    7  A    between atoms: C_6  and  C_8
REMARK                            x       y       z     vdW  Elec       q    Type
REMARK                         _______ _______ _______ _____ _____    ______ ____
ROOT
ATOM      1  C   UNL     1       5.255   0.247  -3.507  0.00  0.00    +0.000 C 
ATOM      2  H   UNL     1       4.236   0.594  -3.722  0.00  0.00    +0.000 HD
ATOM      3  H   UNL     1       5.152  -0.652  -2.886  0.00  0.00    +0.000 HD
ENDROOT
BRANCH   1   4
ATOM      4  C   UNL     1       5.960  -0.117  -4.818  0.00  0.00    +0.000 C 
ATOM      5  H   UNL     1       6.527   0.748  -5.183  0.00  0.00    +0.000 HD
ATOM      6  H   UNL     1       5.210  -0.359  -5.579  0.00  0.00    +0.000 HD
BRANCH   4   7
ATOM      7  C   UNL     1       6.901  -1.307  -4.628  0.00  0.00    +0.000 C 
ATOM      8  H   UNL     1       6.788  -1.715  -3.616  0.00  0.00    +0.000 HD
ATOM      9  H   UNL     1       6.638  -2.106  -5.332  0.00  0.00    +0.000 HD
BRANCH   7  10
ATOM     10  C   UNL     1       8.352  -0.912  -4.849  0.00  0.00    +0.000 C 
ATOM     11  H   UNL     1       9.022  -1.509  -4.222  0.00  0.00    +0.000 HD
ATOM     12  H   UNL     1       8.643  -1.055  -5.895  0.00  0.00    +0.000 HD
ATOM     13  H   UNL     1       8.501   0.142  -4.596  0.00  0.00    +0.000 HD
ENDBRANCH   7  10
ENDBRANCH   4   7
ENDBRANCH   1   4
BRANCH   1  14
ATOM     14  C   UNL     1       6.001   1.325  -2.723  0.00  0.00    +0.000 C 
ATOM     15  H   UNL     1       6.550   1.971  -3.417  0.00  0.00    +0.000 HD
ATOM     16  H   UNL     1       5.278   1.935  -2.168  0.00  0.00    +0.000 HD
BRANCH  14  18
ATOM     17  O   UNL     1       8.209   0.899  -1.793  0.00  0.00    +0.000 OA
ATOM     18  C   UNL     1       6.994   0.761  -1.730  0.00  0.00    +0.000 C 
BRANCH  18  19
ATOM     19  O   UNL     1       6.318   0.053  -0.778  0.00  0.00    +0.000 OA
BRANCH  19  20
ATOM     20  C   UNL     1       6.909   0.052   0.525  0.00  0.00    +0.000 C 
ATOM     21  H   UNL     1       6.432   0.839   1.115  0.00  0.00    +0.000 HD
ATOM     22  H   UNL     1       7.980   0.265   0.455  0.00  0.00    +0.000 HD
ATOM     23  H   UNL     1       6.737  -0.910   1.019  0.00  0.00    +0.000 HD
ENDBRANCH  19  20
ENDBRANCH  18  19
ENDBRANCH  14  18
ENDBRANCH   1  14
TORSDOF 7
ENDMDL
MODEL 2
REMARK VINA RESULT:    -3.969      1.510      2.140
REMARK INTER + INTRA:          -5.509
REMARK INTER:                  -5.195
REMARK INTRA:                  -0.314
REMARK UNBOUND:                -0.148
REMARK  Name = 7824
REMARK  7 active torsions:
REMARK  status: ('A' for Active; 'I' for Inactive)
REMARK    1  A    between atoms: O_1  and  C_8
REMARK    2  A    between atoms: O_1  and  C_9
REMARK    3  A    between atoms: C_3  and  C_4
REMARK    4  A    between atoms: C_3  and  C_5
REMARK    5  A    between atoms: C_4  and  C_6
REMARK    6  A    between atoms: C_5  and  C_7
REMARK    7  A    between atoms: C_6  and  C_8
REMARK                            x       y       z     vdW  Elec       q    Type
REMARK                         _______ _______ _______ _____ _____    ______ ____
ROOT
ATOM      1  C   UNL     1       6.172   0.847  -2.695  0.00  0.00    +0.000 C 
ATOM      2  H   UNL     1       5.770   1.647  -3.329  0.00  0.00    +0.000 HD
ATOM      3  H   UNL     1       5.310   0.266  -2.343  0.00  0.00    +0.000 HD
ENDROOT
BRANCH   1   4
ATOM      4  C   UNL     1       7.090  -0.054  -3.526  0.00  0.00    +0.000 C 
ATOM      5  H   UNL     1       8.018  -0.246  -2.973  0.00  0.00    +0.000 HD
ATOM      6  H   UNL     1       7.366   0.461  -4.453  0.00  0.00    +0.000 HD
BRANCH   4   7
ATOM      7  C   UNL     1       6.408  -1.381  -3.861  0.00  0.00    +0.000 C 
ATOM      8  H   UNL     1       5.519  -1.198  -4.478  0.00  0.00    +0.000 HD
ATOM      9  H   UNL     1       7.086  -2.012  -4.449  0.00  0.00    +0.000 HD
BRANCH   7  10
ATOM     10  C   UNL     1       5.999  -2.132  -2.604  0.00  0.00    +0.000 C 
ATOM     11  H   UNL     1       5.094  -2.723  -2.777  0.00  0.00    +0.000 HD
ATOM     12  H   UNL     1       6.794  -2.809  -2.276  0.00  0.00    +0.000 HD
ATOM     13  H   UNL     1       5.795  -1.429  -1.791  0.00  0.00    +0.000 HD
ENDBRANCH   7  10
ENDBRANCH   4   7
ENDBRANCH   1   4
BRANCH   1  14
ATOM     14  C   UNL     1       6.891   1.466  -1.497  0.00  0.00    +0.000 C 
ATOM     15  H   UNL     1       7.898   1.779  -1.794  0.00  0.00    +0.000 HD
ATOM     16  H   UNL     1       6.334   2.347  -1.156  0.00  0.00    +0.000 HD
BRANCH  14  18
ATOM     17  O   UNL     1       6.108   0.155   0.396  0.00  0.00    +0.000 OA
ATOM     18  C   UNL     1       7.027   0.517  -0.327  0.00  0.00    +0.000 C 
BRANCH  18  19
ATOM     19  O   UNL     1       8.339   0.160  -0.194  0.00  0.00    +0.000 OA
BRANCH  19  20
ATOM     20  C   UNL     1       8.591  -1.247  -0.131  0.00  0.00    +0.000 C 
ATOM     21  H   UNL     1       8.848  -1.591  -1.136  0.00  0.00    +0.000 HD
ATOM     22  H   UNL     1       7.694  -1.778   0.203  0.00  0.00    +0.000 HD
ATOM     23  H   UNL     1       9.433  -1.452   0.536  0.00  0.00    +0.000 HD
ENDBRANCH  19  20
ENDBRANCH  18  19
ENDBRANCH  14  18
ENDBRANCH   1  14
TORSDOF 7
ENDMDL
MODEL 3
REMARK VINA RESULT:    -3.957      2.539      4.813
REMARK INTER + INTRA:          -5.494
REMARK INTER:                  -5.332
REMARK INTRA:                  -0.162
REMARK UNBOUND:                -0.148
REMARK  Name = 7824
REMARK  7 active torsions:
REMARK  status: ('A' for Active; 'I' for Inactive)
REMARK    1  A    between atoms: O_1  and  C_8
REMARK    2  A    between atoms: O_1  and  C_9
REMARK    3  A    between atoms: C_3  and  C_4
REMARK    4  A    between atoms: C_3  and  C_5
REMARK    5  A    between atoms: C_4  and  C_6
REMARK    6  A    between atoms: C_5  and  C_7
REMARK    7  A    between atoms: C_6  and  C_8
REMARK                            x       y       z     vdW  Elec       q    Type
REMARK                         _______ _______ _______ _____ _____    ______ ____
ROOT
ATOM      1  C   UNL     1       8.041   1.371  -1.153  0.00  0.00    +0.000 C 
ATOM      2  H   UNL     1       8.702   1.592  -2.001  0.00  0.00    +0.000 HD
ATOM      3  H   UNL     1       8.216   0.321  -0.888  0.00  0.00    +0.000 HD
ENDROOT
BRANCH   1   4
ATOM      4  C   UNL     1       8.414   2.265   0.034  0.00  0.00    +0.000 C 
ATOM      5  H   UNL     1       9.388   2.734  -0.149  0.00  0.00    +0.000 HD
ATOM      6  H   UNL     1       8.513   1.651   0.936  0.00  0.00    +0.000 HD
BRANCH   4   7
ATOM      7  C   UNL     1       7.358   3.347   0.265  0.00  0.00    +0.000 C 
ATOM      8  H   UNL     1       6.834   3.564  -0.674  0.00  0.00    +0.000 HD
ATOM      9  H   UNL     1       6.607   2.988   0.980  0.00  0.00    +0.000 HD
BRANCH   7  10
ATOM     10  C   UNL     1       7.978   4.628   0.799  0.00  0.00    +0.000 C 
ATOM     11  H   UNL     1       7.724   4.776   1.854  0.00  0.00    +0.000 HD
ATOM     12  H   UNL     1       9.069   4.602   0.710  0.00  0.00    +0.000 HD
ATOM     13  H   UNL     1       7.611   5.491   0.237  0.00  0.00    +0.000 HD
ENDBRANCH   7  10
ENDBRANCH   4   7
ENDBRANCH   1   4
BRANCH   1  14
ATOM     14  C   UNL     1       6.587   1.553  -1.586  0.00  0.00    +0.000 C 
ATOM     15  H   UNL     1       5.927   1.029  -0.887  0.00  0.00    +0.000 HD
ATOM     16  H   UNL     1       6.337   2.621  -1.576  0.00  0.00    +0.000 HD
BRANCH  14  18
ATOM     17  O   UNL     1       5.279   1.215  -3.609  0.00  0.00    +0.000 OA
ATOM     18  C   UNL     1       6.308   1.021  -2.975  0.00  0.00    +0.000 C 
BRANCH  18  19
ATOM     19  O   UNL     1       7.373   0.271  -3.386  0.00  0.00    +0.000 OA
BRANCH  19  20
ATOM     20  C   UNL     1       7.166  -0.489  -4.582  0.00  0.00    +0.000 C 
ATOM     21  H   UNL     1       8.078  -0.434  -5.181  0.00  0.00    +0.000 HD
ATOM     22  H   UNL     1       6.340  -0.065  -5.161  0.00  0.00    +0.000 HD
ATOM     23  H   UNL     1       6.970  -1.537  -4.336  0.00  0.00    +0.000 HD
ENDBRANCH  19  20
ENDBRANCH  18  19
ENDBRANCH  14  18
ENDBRANCH   1  14
TORSDOF 7
ENDMDL
MODEL 4
REMARK VINA RESULT:    -3.944      1.753      2.193
REMARK INTER + INTRA:          -5.475
REMARK INTER:                  -5.251
REMARK INTRA:                  -0.224
REMARK UNBOUND:                -0.148
REMARK  Name = 7824
REMARK  7 active torsions:
REMARK  status: ('A' for Active; 'I' for Inactive)
REMARK    1  A    between atoms: O_1  and  C_8
REMARK    2  A    between atoms: O_1  and  C_9
REMARK    3  A    between atoms: C_3  and  C_4
REMARK    4  A    between atoms: C_3  and  C_5
REMARK    5  A    between atoms: C_4  and  C_6
REMARK    6  A    between atoms: C_5  and  C_7
REMARK    7  A    between atoms: C_6  and  C_8
REMARK                            x       y       z     vdW  Elec       q    Type
REMARK                         _______ _______ _______ _____ _____    ______ ____
ROOT
ATOM      1  C   UNL     1       6.015   0.616  -2.854  0.00  0.00    +0.000 C 
ATOM      2  H   UNL     1       5.325   1.186  -3.489  0.00  0.00    +0.000 HD
ATOM      3  H   UNL     1       5.403  -0.109  -2.303  0.00  0.00    +0.000 HD
ENDROOT
BRANCH   1   4
ATOM      4  C   UNL     1       7.022  -0.131  -3.733  0.00  0.00    +0.000 C 
ATOM      5  H   UNL     1       7.994  -0.172  -3.227  0.00  0.00    +0.000 HD
ATOM      6  H   UNL     1       7.168   0.419  -4.670  0.00  0.00    +0.000 HD
BRANCH   4   7
ATOM      7  C   UNL     1       6.542  -1.550  -4.042  0.00  0.00    +0.000 C 
ATOM      8  H   UNL     1       5.661  -1.512  -4.694  0.00  0.00    +0.000 HD
ATOM      9  H   UNL     1       7.323  -2.098  -4.582  0.00  0.00    +0.000 HD
BRANCH   7  10
ATOM     10  C   UNL     1       6.192  -2.309  -2.772  0.00  0.00    +0.000 C 
ATOM     11  H   UNL     1       5.744  -1.643  -2.028  0.00  0.00    +0.000 HD
ATOM     12  H   UNL     1       5.483  -3.116  -2.981  0.00  0.00    +0.000 HD
ATOM     13  H   UNL     1       7.092  -2.752  -2.334  0.00  0.00    +0.000 HD
ENDBRANCH   7  10
ENDBRANCH   4   7
ENDBRANCH   1   4
BRANCH   1  14
ATOM     14  C   UNL     1       6.693   1.565  -1.867  0.00  0.00    +0.000 C 
ATOM     15  H   UNL     1       7.752   1.671  -2.127  0.00  0.00    +0.000 HD
ATOM     16  H   UNL     1       6.215   2.550  -1.925  0.00  0.00    +0.000 HD
BRANCH  14  18
ATOM     17  O   UNL     1       6.418  -0.066  -0.083  0.00  0.00    +0.000 OA
ATOM     18  C   UNL     1       6.613   1.091  -0.433  0.00  0.00    +0.000 C 
BRANCH  18  19
ATOM     19  O   UNL     1       6.763   2.163   0.399  0.00  0.00    +0.000 OA
BRANCH  19  20
ATOM     20  C   UNL     1       6.247   3.404  -0.096  0.00  0.00    +0.000 C 
ATOM     21  H   UNL     1       7.082   3.980  -0.504  0.00  0.00    +0.000 HD
ATOM     22  H   UNL     1       5.792   3.976   0.718  0.00  0.00    +0.000 HD
ATOM     23  H   UNL     1       5.522   3.221  -0.894  0.00  0.00    +0.000 HD
ENDBRANCH  19  20
ENDBRANCH  18  19
ENDBRANCH  14  18
ENDBRANCH   1  14
TORSDOF 7
ENDMDL
MODEL 5
REMARK VINA RESULT:    -3.633     16.902     18.378
REMARK INTER + INTRA:          -5.056
REMARK INTER:                  -4.941
REMARK INTRA:                  -0.114
REMARK UNBOUND:                -0.148
REMARK  Name = 7824
REMARK  7 active torsions:
REMARK  status: ('A' for Active; 'I' for Inactive)
REMARK    1  A    between atoms: O_1  and  C_8
REMARK    2  A    between atoms: O_1  and  C_9
REMARK    3  A    between atoms: C_3  and  C_4
REMARK    4  A    between atoms: C_3  and  C_5
REMARK    5  A    between atoms: C_4  and  C_6
REMARK    6  A    between atoms: C_5  and  C_7
REMARK    7  A    between atoms: C_6  and  C_8
REMARK                            x       y       z     vdW  Elec       q    Type
REMARK                         _______ _______ _______ _____ _____    ______ ____
ROOT
ATOM      1  C   UNL     1      -1.601 -13.437 -10.181  0.00  0.00    +0.000 C 
ATOM      2  H   UNL     1      -2.400 -13.600  -9.446  0.00  0.00    +0.000 HD
ATOM      3  H   UNL     1      -2.036 -12.827 -10.983  0.00  0.00    +0.000 HD
ENDROOT
BRANCH   1   4
ATOM      4  C   UNL     1      -0.449 -12.670  -9.524  0.00  0.00    +0.000 C 
ATOM      5  H   UNL     1      -0.238 -11.760 -10.099  0.00  0.00    +0.000 HD
ATOM      6  H   UNL     1       0.457 -13.285  -9.546  0.00  0.00    +0.000 HD
BRANCH   4   7
ATOM      7  C   UNL     1      -0.784 -12.300  -8.079  0.00  0.00    +0.000 C 
ATOM      8  H   UNL     1       0.134 -12.038  -7.539  0.00  0.00    +0.000 HD
ATOM      9  H   UNL     1      -1.434 -11.417  -8.061  0.00  0.00    +0.000 HD
BRANCH   7  10
ATOM     10  C   UNL     1      -1.481 -13.442  -7.357  0.00  0.00    +0.000 C 
ATOM     11  H   UNL     1      -1.167 -13.493  -6.309  0.00  0.00    +0.000 HD
ATOM     12  H   UNL     1      -2.568 -13.318  -7.384  0.00  0.00    +0.000 HD
ATOM     13  H   UNL     1      -1.236 -14.397  -7.832  0.00  0.00    +0.000 HD
ENDBRANCH   7  10
ENDBRANCH   4   7
ENDBRANCH   1   4
BRANCH   1  14
ATOM     14  C   UNL     1      -1.156 -14.784 -10.749  0.00  0.00    +0.000 C 
ATOM     15  H   UNL     1      -0.118 -14.980 -10.460  0.00  0.00    +0.000 HD
ATOM     16  H   UNL     1      -1.793 -15.578 -10.341  0.00  0.00    +0.000 HD
BRANCH  14  18
ATOM     17  O   UNL     1      -1.576 -15.834 -12.903  0.00  0.00    +0.000 OA
ATOM     18  C   UNL     1      -1.237 -14.850 -12.259  0.00  0.00    +0.000 C 
BRANCH  18  19
ATOM     19  O   UNL     1      -0.843 -13.650 -12.778  0.00  0.00    +0.000 OA
BRANCH  19  20
ATOM     20  C   UNL     1       0.558 -13.524 -13.044  0.00  0.00    +0.000 C 
ATOM     21  H   UNL     1       0.700 -12.680 -13.724  0.00  0.00    +0.000 HD
ATOM     22  H   UNL     1       0.935 -14.430 -13.526  0.00  0.00    +0.000 HD
ATOM     23  H   UNL     1       1.103 -13.323 -12.116  0.00  0.00    +0.000 HD
ENDBRANCH  19  20
ENDBRANCH  18  19
ENDBRANCH  14  18
ENDBRANCH   1  14
TORSDOF 7
ENDMDL
MODEL 6
REMARK VINA RESULT:    -3.494     23.372     25.201
REMARK INTER + INTRA:          -4.867
REMARK INTER:                  -4.690
REMARK INTRA:                  -0.177
REMARK UNBOUND:                -0.148
REMARK  Name = 7824
REMARK  7 active torsions:
REMARK  status: ('A' for Active; 'I' for Inactive)
REMARK    1  A    between atoms: O_1  and  C_8
REMARK    2  A    between atoms: O_1  and  C_9
REMARK    3  A    between atoms: C_3  and  C_4
REMARK    4  A    between atoms: C_3  and  C_5
REMARK    5  A    between atoms: C_4  and  C_6
REMARK    6  A    between atoms: C_5  and  C_7
REMARK    7  A    between atoms: C_6  and  C_8
REMARK                            x       y       z     vdW  Elec       q    Type
REMARK                         _______ _______ _______ _____ _____    ______ ____
ROOT
ATOM      1  C   UNL     1       0.354  -8.093  20.696  0.00  0.00    +0.000 C 
ATOM      2  H   UNL     1       0.988  -8.152  21.590  0.00  0.00    +0.000 HD
ATOM      3  H   UNL     1       0.548  -9.005  20.118  0.00  0.00    +0.000 HD
ENDROOT
BRANCH   1   4
ATOM      4  C   UNL     1      -1.119  -8.056  21.114  0.00  0.00    +0.000 C 
ATOM      5  H   UNL     1      -1.191  -7.942  22.202  0.00  0.00    +0.000 HD
ATOM      6  H   UNL     1      -1.595  -9.009  20.855  0.00  0.00    +0.000 HD
BRANCH   4   7
ATOM      7  C   UNL     1      -1.861  -6.909  20.426  0.00  0.00    +0.000 C 
ATOM      8  H   UNL     1      -1.140  -6.194  20.013  0.00  0.00    +0.000 HD
ATOM      9  H   UNL     1      -2.450  -7.298  19.586  0.00  0.00    +0.000 HD
BRANCH   7  10
ATOM     10  C   UNL     1      -2.788  -6.187  21.389  0.00  0.00    +0.000 C 
ATOM     11  H   UNL     1      -2.256  -5.396  21.928  0.00  0.00    +0.000 HD
ATOM     12  H   UNL     1      -3.630  -5.733  20.857  0.00  0.00    +0.000 HD
ATOM     13  H   UNL     1      -3.191  -6.888  22.127  0.00  0.00    +0.000 HD
ENDBRANCH   7  10
ENDBRANCH   4   7
ENDBRANCH   1   4
BRANCH   1  14
ATOM     14  C   UNL     1       0.757  -6.871  19.872  0.00  0.00    +0.000 C 
ATOM     15  H   UNL     1       1.127  -7.195  18.892  0.00  0.00    +0.000 HD
ATOM     16  H   UNL     1      -0.119  -6.229  19.724  0.00  0.00    +0.000 HD
BRANCH  14  18
ATOM     17  O   UNL     1       1.934  -5.826  21.726  0.00  0.00    +0.000 OA
ATOM     18  C   UNL     1       1.840  -6.041  20.525  0.00  0.00    +0.000 C 
BRANCH  18  19
ATOM     19  O   UNL     1       2.669  -5.550  19.557  0.00  0.00    +0.000 OA
BRANCH  19  20
ATOM     20  C   UNL     1       3.278  -4.288  19.848  0.00  0.00    +0.000 C 
ATOM     21  H   UNL     1       3.166  -4.096  20.919  0.00  0.00    +0.000 HD
ATOM     22  H   UNL     1       2.777  -3.489  19.294  0.00  0.00    +0.000 HD
ATOM     23  H   UNL     1       4.345  -4.317  19.607  0.00  0.00    +0.000 HD
ENDBRANCH  19  20
ENDBRANCH  18  19
ENDBRANCH  14  18
ENDBRANCH   1  14
TORSDOF 7
ENDMDL
MODEL 7
REMARK VINA RESULT:    -3.471      2.897      4.947
REMARK INTER + INTRA:          -4.837
REMARK INTER:                  -4.692
REMARK INTRA:                  -0.145
REMARK UNBOUND:                -0.148
REMARK  Name = 7824
REMARK  7 active torsions:
REMARK  status: ('A' for Active; 'I' for Inactive)
REMARK    1  A    between atoms: O_1  and  C_8
REMARK    2  A    between atoms: O_1  and  C_9
REMARK    3  A    between atoms: C_3  and  C_4
REMARK    4  A    between atoms: C_3  and  C_5
REMARK    5  A    between atoms: C_4  and  C_6
REMARK    6  A    between atoms: C_5  and  C_7
REMARK    7  A    between atoms: C_6  and  C_8
REMARK                            x       y       z     vdW  Elec       q    Type
REMARK                         _______ _______ _______ _____ _____    ______ ____
ROOT
ATOM      1  C   UNL     1       9.523   0.364  -1.820  0.00  0.00    +0.000 C 
ATOM      2  H   UNL     1      10.434   0.489  -2.418  0.00  0.00    +0.000 HD
ATOM      3  H   UNL     1       9.714  -0.468  -1.130  0.00  0.00    +0.000 HD
ENDROOT
BRANCH   1   4
ATOM      4  C   UNL     1       9.258   1.641  -1.016  0.00  0.00    +0.000 C 
ATOM      5  H   UNL     1       8.456   2.217  -1.493  0.00  0.00    +0.000 HD
ATOM      6  H   UNL     1      10.156   2.269  -1.023  0.00  0.00    +0.000 HD
BRANCH   4   7
ATOM      7  C   UNL     1       8.870   1.317   0.427  0.00  0.00    +0.000 C 
ATOM      8  H   UNL     1       9.001   2.205   1.057  0.00  0.00    +0.000 HD
ATOM      9  H   UNL     1       7.810   1.038   0.475  0.00  0.00    +0.000 HD
BRANCH   7  10
ATOM     10  C   UNL     1       9.707   0.178   0.987  0.00  0.00    +0.000 C 
ATOM     11  H   UNL     1       9.278  -0.202   1.920  0.00  0.00    +0.000 HD
ATOM     12  H   UNL     1       9.768  -0.651   0.275  0.00  0.00    +0.000 HD
ATOM     13  H   UNL     1      10.724   0.522   1.197  0.00  0.00    +0.000 HD
ENDBRANCH   7  10
ENDBRANCH   4   7
ENDBRANCH   1   4
BRANCH   1  14
ATOM     14  C   UNL     1       8.359   0.004  -2.742  0.00  0.00    +0.000 C 
ATOM     15  H   UNL     1       7.607  -0.562  -2.181  0.00  0.00    +0.000 HD
ATOM     16  H   UNL     1       7.899   0.925  -3.121  0.00  0.00    +0.000 HD
BRANCH  14  18
ATOM     17  O   UNL     1       8.334  -0.716  -5.065  0.00  0.00    +0.000 OA
ATOM     18  C   UNL     1       8.777  -0.833  -3.931  0.00  0.00    +0.000 C 
BRANCH  18  19
ATOM     19  O   UNL     1       9.702  -1.752  -3.524  0.00  0.00    +0.000 OA
BRANCH  19  20
ATOM     20  C   UNL     1      10.752  -2.026  -4.458  0.00  0.00    +0.000 C 
ATOM     21  H   UNL     1      10.775  -1.214  -5.191  0.00  0.00    +0.000 HD
ATOM     22  H   UNL     1      10.557  -2.966  -4.982  0.00  0.00    +0.000 HD
ATOM     23  H   UNL     1      11.717  -2.062  -3.944  0.00  0.00    +0.000 HD
ENDBRANCH  19  20
ENDBRANCH  18  19
ENDBRANCH  14  18
ENDBRANCH   1  14
TORSDOF 7
ENDMDL
MODEL 8
REMARK VINA RESULT:    -3.390     15.463     16.317
REMARK INTER + INTRA:          -4.727
REMARK INTER:                  -4.579
REMARK INTRA:                  -0.148
REMARK UNBOUND:                -0.148
REMARK  Name = 7824
REMARK  7 active torsions:
REMARK  status: ('A' for Active; 'I' for Inactive)
REMARK    1  A    between atoms: O_1  and  C_8
REMARK    2  A    between atoms: O_1  and  C_9
REMARK    3  A    between atoms: C_3  and  C_4
REMARK    4  A    between atoms: C_3  and  C_5
REMARK    5  A    between atoms: C_4  and  C_6
REMARK    6  A    between atoms: C_5  and  C_7
REMARK    7  A    between atoms: C_6  and  C_8
REMARK                            x       y       z     vdW  Elec       q    Type
REMARK                         _______ _______ _______ _____ _____    ______ ____
ROOT
ATOM      1  C   UNL     1       2.314  12.163 -11.355  0.00  0.00    +0.000 C 
ATOM      2  H   UNL     1       1.617  11.338 -11.157  0.00  0.00    +0.000 HD
ATOM      3  H   UNL     1       1.905  12.716 -12.210  0.00  0.00    +0.000 HD
ENDROOT
BRANCH   1   4
ATOM      4  C   UNL     1       2.376  13.086 -10.134  0.00  0.00    +0.000 C 
ATOM      5  H   UNL     1       1.900  12.596  -9.277  0.00  0.00    +0.000 HD
ATOM      6  H   UNL     1       1.811  14.002 -10.340  0.00  0.00    +0.000 HD
BRANCH   4   7
ATOM      7  C   UNL     1       3.821  13.444  -9.785  0.00  0.00    +0.000 C 
ATOM      8  H   UNL     1       4.335  12.566  -9.376  0.00  0.00    +0.000 HD
ATOM      9  H   UNL     1       4.361  13.742 -10.692  0.00  0.00    +0.000 HD
BRANCH   7  10
ATOM     10  C   UNL     1       3.887  14.578  -8.774  0.00  0.00    +0.000 C 
ATOM     11  H   UNL     1       4.412  15.444  -9.190  0.00  0.00    +0.000 HD
ATOM     12  H   UNL     1       2.883  14.896  -8.477  0.00  0.00    +0.000 HD
ATOM     13  H   UNL     1       4.422  14.256  -7.876  0.00  0.00    +0.000 HD
ENDBRANCH   7  10
ENDBRANCH   4   7
ENDBRANCH   1   4
BRANCH   1  14
ATOM     14  C   UNL     1       3.681  11.591 -11.725  0.00  0.00    +0.000 C 
ATOM     15  H   UNL     1       4.436  11.958 -11.021  0.00  0.00    +0.000 HD
ATOM     16  H   UNL     1       3.644  10.497 -11.665  0.00  0.00    +0.000 HD
BRANCH  14  18
ATOM     17  O   UNL     1       3.768  11.411 -14.149  0.00  0.00    +0.000 OA
ATOM     18  C   UNL     1       4.128  11.968 -13.121  0.00  0.00    +0.000 C 
BRANCH  18  19
ATOM     19  O   UNL     1       5.014  13.003 -13.040  0.00  0.00    +0.000 OA
BRANCH  19  20
ATOM     20  C   UNL     1       6.027  13.028 -14.050  0.00  0.00    +0.000 C 
ATOM     21  H   UNL     1       5.827  13.876 -14.711  0.00  0.00    +0.000 HD
ATOM     22  H   UNL     1       5.995  12.107 -14.641  0.00  0.00    +0.000 HD
ATOM     23  H   UNL     1       7.014  13.162 -13.596  0.00  0.00    +0.000 HD
ENDBRANCH  19  20
ENDBRANCH  18  19
ENDBRANCH  14  18
ENDBRANCH   1  14
TORSDOF 7
ENDMDL
MODEL 9
REMARK VINA RESULT:    -3.375      2.468      4.261
REMARK INTER + INTRA:          -4.707
REMARK INTER:                  -4.566
REMARK INTRA:                  -0.141
REMARK UNBOUND:                -0.148
REMARK  Name = 7824
REMARK  7 active torsions:
REMARK  status: ('A' for Active; 'I' for Inactive)
REMARK    1  A    between atoms: O_1  and  C_8
REMARK    2  A    between atoms: O_1  and  C_9
REMARK    3  A    between atoms: C_3  and  C_4
REMARK    4  A    between atoms: C_3  and  C_5
REMARK    5  A    between atoms: C_4  and  C_6
REMARK    6  A    between atoms: C_5  and  C_7
REMARK    7  A    between atoms: C_6  and  C_8
REMARK                            x       y       z     vdW  Elec       q    Type
REMARK                         _______ _______ _______ _____ _____    ______ ____
ROOT
ATOM      1  C   UNL     1       9.070   0.256  -1.935  0.00  0.00    +0.000 C 
ATOM      2  H   UNL     1       9.843   0.079  -2.692  0.00  0.00    +0.000 HD
ATOM      3  H   UNL     1       9.122  -0.587  -1.234  0.00  0.00    +0.000 HD
ENDROOT
BRANCH   1   4
ATOM      4  C   UNL     1       9.373   1.559  -1.188  0.00  0.00    +0.000 C 
ATOM      5  H   UNL     1       8.774   2.374  -1.612  0.00  0.00    +0.000 HD
ATOM      6  H   UNL     1      10.427   1.824  -1.329  0.00  0.00    +0.000 HD
BRANCH   4   7
ATOM      7  C   UNL     1       9.074   1.423   0.306  0.00  0.00    +0.000 C 
ATOM      8  H   UNL     1       9.608   2.201   0.865  0.00  0.00    +0.000 HD
ATOM      9  H   UNL     1       8.003   1.571   0.487  0.00  0.00    +0.000 HD
BRANCH   7  10
ATOM     10  C   UNL     1       9.481   0.057   0.834  0.00  0.00    +0.000 C 
ATOM     11  H   UNL     1       9.060  -0.120   1.829  0.00  0.00    +0.000 HD
ATOM     12  H   UNL     1       9.136  -0.740   0.168  0.00  0.00    +0.000 HD
ATOM     13  H   UNL     1      10.571  -0.011   0.910  0.00  0.00    +0.000 HD
ENDBRANCH   7  10
ENDBRANCH   4   7
ENDBRANCH   1   4
BRANCH   1  14
ATOM     14  C   UNL     1       7.698   0.275  -2.608  0.00  0.00    +0.000 C 
ATOM     15  H   UNL     1       6.939  -0.085  -1.906  0.00  0.00    +0.000 HD
ATOM     16  H   UNL     1       7.452   1.304  -2.898  0.00  0.00    +0.000 HD
BRANCH  14  18
ATOM     17  O   UNL     1       8.473  -0.615  -4.735  0.00  0.00    +0.000 OA
ATOM     18  C   UNL     1       7.631  -0.589  -3.848  0.00  0.00    +0.000 C 
BRANCH  18  19
ATOM     19  O   UNL     1       6.468  -1.305  -3.828  0.00  0.00    +0.000 OA
BRANCH  19  20
ATOM     20  C   UNL     1       6.223  -2.049  -2.630  0.00  0.00    +0.000 C 
ATOM     21  H   UNL     1       6.872  -1.651  -1.844  0.00  0.00    +0.000 HD
ATOM     22  H   UNL     1       6.466  -3.105  -2.784  0.00  0.00    +0.000 HD
ATOM     23  H   UNL     1       5.181  -1.932  -2.317  0.00  0.00    +0.000 HD
ENDBRANCH  19  20
ENDBRANCH  18  19
ENDBRANCH  14  18
ENDBRANCH   1  14
TORSDOF 7
ENDMDL
MODEL 10
REMARK VINA RESULT:    -3.356     25.236     26.478
REMARK INTER + INTRA:          -4.682
REMARK INTER:                  -4.533
REMARK INTRA:                  -0.148
REMARK UNBOUND:                -0.148
REMARK  Name = 7824
REMARK  7 active torsions:
REMARK  status: ('A' for Active; 'I' for Inactive)
REMARK    1  A    between atoms: O_1  and  C_8
REMARK    2  A    between atoms: O_1  and  C_9
REMARK    3  A    between atoms: C_3  and  C_4
REMARK    4  A    between atoms: C_3  and  C_5
REMARK    5  A    between atoms: C_4  and  C_6
REMARK    6  A    between atoms: C_5  and  C_7
REMARK    7  A    between atoms: C_6  and  C_8
REMARK                            x       y       z     vdW  Elec       q    Type
REMARK                         _______ _______ _______ _____ _____    ______ ____
ROOT
ATOM      1  C   UNL     1     -16.260  -9.190   2.243  0.00  0.00    +0.000 C 
ATOM      2  H   UNL     1     -15.452  -8.649   2.751  0.00  0.00    +0.000 HD
ATOM      3  H   UNL     1     -15.967 -10.248   2.233  0.00  0.00    +0.000 HD
ENDROOT
BRANCH   1   4
ATOM      4  C   UNL     1     -17.561  -9.029   3.035  0.00  0.00    +0.000 C 
ATOM      5  H   UNL     1     -18.181  -8.252   2.571  0.00  0.00    +0.000 HD
ATOM      6  H   UNL     1     -17.331  -8.695   4.052  0.00  0.00    +0.000 HD
BRANCH   4   7
ATOM      7  C   UNL     1     -18.341 -10.344   3.091  0.00  0.00    +0.000 C 
ATOM      8  H   UNL     1     -19.385 -10.171   2.805  0.00  0.00    +0.000 HD
ATOM      9  H   UNL     1     -17.921 -11.057   2.371  0.00  0.00    +0.000 HD
BRANCH   7  10
ATOM     10  C   UNL     1     -18.297 -10.960   4.480  0.00  0.00    +0.000 C 
ATOM     11  H   UNL     1     -18.269 -12.053   4.424  0.00  0.00    +0.000 HD
ATOM     12  H   UNL     1     -17.413 -10.622   5.031  0.00  0.00    +0.000 HD
ATOM     13  H   UNL     1     -19.185 -10.672   5.051  0.00  0.00    +0.000 HD
ENDBRANCH   7  10
ENDBRANCH   4   7
ENDBRANCH   1   4
BRANCH   1  14
ATOM     14  C   UNL     1     -16.383  -8.682   0.808  0.00  0.00    +0.000 C 
ATOM     15  H   UNL     1     -17.297  -8.087   0.706  0.00  0.00    +0.000 HD
ATOM     16  H   UNL     1     -15.520  -8.047   0.573  0.00  0.00    +0.000 HD
BRANCH  14  18
ATOM     17  O   UNL     1     -15.484 -10.480  -0.562  0.00  0.00    +0.000 OA
ATOM     18  C   UNL     1     -16.437  -9.794  -0.217  0.00  0.00    +0.000 C 
BRANCH  18  19
ATOM     19  O   UNL     1     -17.708  -9.884  -0.709  0.00  0.00    +0.000 OA
BRANCH  19  20
ATOM     20  C   UNL     1     -17.942  -9.194  -1.941  0.00  0.00    +0.000 C 
ATOM     21  H   UNL     1     -17.658  -8.147  -1.803  0.00  0.00    +0.000 HD
ATOM     22  H   UNL     1     -19.003  -9.238  -2.204  0.00  0.00    +0.000 HD
ATOM     23  H   UNL     1     -17.326  -9.622  -2.738  0.00  0.00    +0.000 HD
ENDBRANCH  19  20
ENDBRANCH  18  19
ENDBRANCH  14  18
ENDBRANCH   1  14
TORSDOF 7
ENDMDL
