MODEL 1
REMARK VINA RESULT:    -4.693      0.000      0.000
REMARK INTER + INTRA:          -7.623
REMARK INTER:                  -7.163
REMARK INTRA:                  -0.460
REMARK UNBOUND:                -0.187
REMARK  Name = 8050
REMARK  11 active torsions:
REMARK  status: ('A' for Active; 'I' for Inactive)
REMARK    1  A    between atoms: O_1  and  C_12
REMARK    2  A    between atoms: O_1  and  C_13
REMARK    3  A    between atoms: C_3  and  C_4
REMARK    4  A    between atoms: C_3  and  C_5
REMARK    5  A    between atoms: C_4  and  C_6
REMARK    6  A    between atoms: C_5  and  C_7
REMARK    7  A    between atoms: C_6  and  C_8
REMARK    8  A    between atoms: C_7  and  C_9
REMARK    9  A    between atoms: C_8  and  C_10
REMARK   10  A    between atoms: C_9  and  C_11
REMARK   11  A    between atoms: C_10  and  C_12
REMARK                            x       y       z     vdW  Elec       q    Type
REMARK                         _______ _______ _______ _____ _____    ______ ____
ROOT
ATOM      1  C   UNL     1      12.329  -0.979  -4.589  0.00  0.00    +0.000 C 
ATOM      2  H   UNL     1      13.139  -1.647  -4.270  0.00  0.00    +0.000 HD
ATOM      3  H   UNL     1      12.495  -0.755  -5.650  0.00  0.00    +0.000 HD
ENDROOT
BRANCH   1   4
ATOM      4  C   UNL     1      10.983  -1.688  -4.421  0.00  0.00    +0.000 C 
ATOM      5  H   UNL     1      10.432  -1.668  -5.369  0.00  0.00    +0.000 HD
ATOM      6  H   UNL     1      11.151  -2.741  -4.165  0.00  0.00    +0.000 HD
BRANCH   4   7
ATOM      7  C   UNL     1      10.142  -1.027  -3.326  0.00  0.00    +0.000 C 
ATOM      8  H   UNL     1      10.338   0.052  -3.322  0.00  0.00    +0.000 HD
ATOM      9  H   UNL     1      10.457  -1.411  -2.348  0.00  0.00    +0.000 HD
BRANCH   7  10
ATOM     10  C   UNL     1       8.638  -1.261  -3.490  0.00  0.00    +0.000 C 
ATOM     11  H   UNL     1       8.101  -0.718  -2.702  0.00  0.00    +0.000 HD
ATOM     12  H   UNL     1       8.427  -2.327  -3.340  0.00  0.00    +0.000 HD
BRANCH  10  13
ATOM     13  C   UNL     1       8.100  -0.826  -4.854  0.00  0.00    +0.000 C 
ATOM     14  H   UNL     1       8.681   0.024  -5.229  0.00  0.00    +0.000 HD
ATOM     15  H   UNL     1       8.216  -1.643  -5.576  0.00  0.00    +0.000 HD
BRANCH  13  16
ATOM     16  C   UNL     1       6.632  -0.439  -4.773  0.00  0.00    +0.000 C 
ATOM     17  H   UNL     1       6.498   0.480  -4.194  0.00  0.00    +0.000 HD
ATOM     18  H   UNL     1       6.057  -1.234  -4.287  0.00  0.00    +0.000 HD
ATOM     19  H   UNL     1       6.213  -0.280  -5.772  0.00  0.00    +0.000 HD
ENDBRANCH  13  16
ENDBRANCH  10  13
ENDBRANCH   7  10
ENDBRANCH   4   7
ENDBRANCH   1   4
BRANCH   1  20
ATOM     20  C   UNL     1      12.380   0.317  -3.779  0.00  0.00    +0.000 C 
ATOM     21  H   UNL     1      11.843   1.108  -4.315  0.00  0.00    +0.000 HD
ATOM     22  H   UNL     1      11.867   0.169  -2.821  0.00  0.00    +0.000 HD
BRANCH  20  23
ATOM     23  C   UNL     1      13.822   0.760  -3.529  0.00  0.00    +0.000 C 
ATOM     24  H   UNL     1      14.392   0.706  -4.465  0.00  0.00    +0.000 HD
ATOM     25  H   UNL     1      14.300   0.064  -2.827  0.00  0.00    +0.000 HD
BRANCH  23  26
ATOM     26  C   UNL     1      13.878   2.177  -2.968  0.00  0.00    +0.000 C 
ATOM     27  H   UNL     1      14.613   2.233  -2.158  0.00  0.00    +0.000 HD
ATOM     28  H   UNL     1      12.892   2.463  -2.584  0.00  0.00    +0.000 HD
BRANCH  26  30
ATOM     29  O   UNL     1      15.438   3.458  -4.290  0.00  0.00    +0.000 OA
ATOM     30  C   UNL     1      14.278   3.158  -4.040  0.00  0.00    +0.000 C 
BRANCH  30  31
ATOM     31  O   UNL     1      13.168   3.625  -4.681  0.00  0.00    +0.000 OA
BRANCH  31  32
ATOM     32  C   UNL     1      12.417   4.613  -3.968  0.00  0.00    +0.000 C 
ATOM     33  H   UNL     1      11.415   4.710  -4.398  0.00  0.00    +0.000 HD
ATOM     34  H   UNL     1      12.941   5.574  -3.988  0.00  0.00    +0.000 HD
ATOM     35  H   UNL     1      12.323   4.285  -2.930  0.00  0.00    +0.000 HD
ENDBRANCH  31  32
ENDBRANCH  30  31
ENDBRANCH  26  30
ENDBRANCH  23  26
ENDBRANCH  20  23
ENDBRANCH   1  20
TORSDOF 11
ENDMDL
MODEL 2
REMARK VINA RESULT:    -4.237     24.003     25.477
REMARK INTER + INTRA:          -6.900
REMARK INTER:                  -6.421
REMARK INTRA:                  -0.479
REMARK UNBOUND:                -0.187
REMARK  Name = 8050
REMARK  11 active torsions:
REMARK  status: ('A' for Active; 'I' for Inactive)
REMARK    1  A    between atoms: O_1  and  C_12
REMARK    2  A    between atoms: O_1  and  C_13
REMARK    3  A    between atoms: C_3  and  C_4
REMARK    4  A    between atoms: C_3  and  C_5
REMARK    5  A    between atoms: C_4  and  C_6
REMARK    6  A    between atoms: C_5  and  C_7
REMARK    7  A    between atoms: C_6  and  C_8
REMARK    8  A    between atoms: C_7  and  C_9
REMARK    9  A    between atoms: C_8  and  C_10
REMARK   10  A    between atoms: C_9  and  C_11
REMARK   11  A    between atoms: C_10  and  C_12
REMARK                            x       y       z     vdW  Elec       q    Type
REMARK                         _______ _______ _______ _____ _____    ______ ____
ROOT
ATOM      1  C   UNL     1       2.901  -5.274  20.249  0.00  0.00    +0.000 C 
ATOM      2  H   UNL     1       2.877  -4.226  20.571  0.00  0.00    +0.000 HD
ATOM      3  H   UNL     1       3.917  -5.645  20.435  0.00  0.00    +0.000 HD
ENDROOT
BRANCH   1   4
ATOM      4  C   UNL     1       1.902  -6.088  21.076  0.00  0.00    +0.000 C 
ATOM      5  H   UNL     1       2.407  -6.952  21.523  0.00  0.00    +0.000 HD
ATOM      6  H   UNL     1       1.519  -5.473  21.899  0.00  0.00    +0.000 HD
BRANCH   4   7
ATOM      7  C   UNL     1       0.732  -6.569  20.213  0.00  0.00    +0.000 C 
ATOM      8  H   UNL     1       1.050  -6.610  19.164  0.00  0.00    +0.000 HD
ATOM      9  H   UNL     1      -0.083  -5.837  20.269  0.00  0.00    +0.000 HD
BRANCH   7  10
ATOM     10  C   UNL     1       0.195  -7.941  20.628  0.00  0.00    +0.000 C 
ATOM     11  H   UNL     1       0.847  -8.365  21.403  0.00  0.00    +0.000 HD
ATOM     12  H   UNL     1       0.249  -8.618  19.766  0.00  0.00    +0.000 HD
BRANCH  10  13
ATOM     13  C   UNL     1      -1.242  -7.899  21.150  0.00  0.00    +0.000 C 
ATOM     14  H   UNL     1      -1.844  -8.661  20.642  0.00  0.00    +0.000 HD
ATOM     15  H   UNL     1      -1.254  -8.135  22.221  0.00  0.00    +0.000 HD
BRANCH  13  16
ATOM     16  C   UNL     1      -1.870  -6.531  20.934  0.00  0.00    +0.000 C 
ATOM     17  H   UNL     1      -2.807  -6.612  20.374  0.00  0.00    +0.000 HD
ATOM     18  H   UNL     1      -1.190  -5.888  20.368  0.00  0.00    +0.000 HD
ATOM     19  H   UNL     1      -2.082  -6.043  21.891  0.00  0.00    +0.000 HD
ENDBRANCH  13  16
ENDBRANCH  10  13
ENDBRANCH   7  10
ENDBRANCH   4   7
ENDBRANCH   1   4
BRANCH   1  20
ATOM     20  C   UNL     1       2.590  -5.363  18.755  0.00  0.00    +0.000 C 
ATOM     21  H   UNL     1       3.141  -6.200  18.312  0.00  0.00    +0.000 HD
ATOM     22  H   UNL     1       1.521  -5.569  18.616  0.00  0.00    +0.000 HD
BRANCH  20  23
ATOM     23  C   UNL     1       2.962  -4.068  18.032  0.00  0.00    +0.000 C 
ATOM     24  H   UNL     1       4.044  -3.902  18.108  0.00  0.00    +0.000 HD
ATOM     25  H   UNL     1       2.476  -3.220  18.531  0.00  0.00    +0.000 HD
BRANCH  23  26
ATOM     26  C   UNL     1       2.546  -4.112  16.566  0.00  0.00    +0.000 C 
ATOM     27  H   UNL     1       1.831  -3.310  16.352  0.00  0.00    +0.000 HD
ATOM     28  H   UNL     1       2.082  -5.079  16.340  0.00  0.00    +0.000 HD
BRANCH  26  30
ATOM     29  O   UNL     1       4.014  -2.885  15.096  0.00  0.00    +0.000 OA
ATOM     30  C   UNL     1       3.742  -3.933  15.667  0.00  0.00    +0.000 C 
BRANCH  30  31
ATOM     31  O   UNL     1       4.461  -5.091  15.614  0.00  0.00    +0.000 OA
BRANCH  31  32
ATOM     32  C   UNL     1       3.763  -6.225  15.091  0.00  0.00    +0.000 C 
ATOM     33  H   UNL     1       4.356  -7.134  15.236  0.00  0.00    +0.000 HD
ATOM     34  H   UNL     1       3.538  -6.076  14.031  0.00  0.00    +0.000 HD
ATOM     35  H   UNL     1       2.824  -6.328  15.640  0.00  0.00    +0.000 HD
ENDBRANCH  31  32
ENDBRANCH  30  31
ENDBRANCH  26  30
ENDBRANCH  23  26
ENDBRANCH  20  23
ENDBRANCH   1  20
TORSDOF 11
ENDMDL
MODEL 3
REMARK VINA RESULT:    -4.208      7.015      8.152
REMARK INTER + INTRA:          -6.854
REMARK INTER:                  -6.494
REMARK INTRA:                  -0.360
REMARK UNBOUND:                -0.187
REMARK  Name = 8050
REMARK  11 active torsions:
REMARK  status: ('A' for Active; 'I' for Inactive)
REMARK    1  A    between atoms: O_1  and  C_12
REMARK    2  A    between atoms: O_1  and  C_13
REMARK    3  A    between atoms: C_3  and  C_4
REMARK    4  A    between atoms: C_3  and  C_5
REMARK    5  A    between atoms: C_4  and  C_6
REMARK    6  A    between atoms: C_5  and  C_7
REMARK    7  A    between atoms: C_6  and  C_8
REMARK    8  A    between atoms: C_7  and  C_9
REMARK    9  A    between atoms: C_8  and  C_10
REMARK   10  A    between atoms: C_9  and  C_11
REMARK   11  A    between atoms: C_10  and  C_12
REMARK                            x       y       z     vdW  Elec       q    Type
REMARK                         _______ _______ _______ _____ _____    ______ ____
ROOT
ATOM      1  C   UNL     1       9.251  -0.771   0.765  0.00  0.00    +0.000 C 
ATOM      2  H   UNL     1      10.189  -0.208   0.844  0.00  0.00    +0.000 HD
ATOM      3  H   UNL     1       9.307  -1.364  -0.157  0.00  0.00    +0.000 HD
ENDROOT
BRANCH   1   4
ATOM      4  C   UNL     1       9.112  -1.708   1.967  0.00  0.00    +0.000 C 
ATOM      5  H   UNL     1       8.854  -2.717   1.623  0.00  0.00    +0.000 HD
ATOM      6  H   UNL     1      10.073  -1.780   2.491  0.00  0.00    +0.000 HD
BRANCH   4   7
ATOM      7  C   UNL     1       8.040  -1.208   2.938  0.00  0.00    +0.000 C 
ATOM      8  H   UNL     1       7.061  -1.239   2.443  0.00  0.00    +0.000 HD
ATOM      9  H   UNL     1       8.237  -0.157   3.184  0.00  0.00    +0.000 HD
BRANCH   7  10
ATOM     10  C   UNL     1       7.969  -2.016   4.236  0.00  0.00    +0.000 C 
ATOM     11  H   UNL     1       8.673  -2.856   4.177  0.00  0.00    +0.000 HD
ATOM     12  H   UNL     1       6.966  -2.451   4.329  0.00  0.00    +0.000 HD
BRANCH  10  13
ATOM     13  C   UNL     1       8.281  -1.190   5.485  0.00  0.00    +0.000 C 
ATOM     14  H   UNL     1       9.354  -1.230   5.699  0.00  0.00    +0.000 HD
ATOM     15  H   UNL     1       8.023  -0.139   5.307  0.00  0.00    +0.000 HD
BRANCH  13  16
ATOM     16  C   UNL     1       7.505  -1.695   6.691  0.00  0.00    +0.000 C 
ATOM     17  H   UNL     1       7.938  -1.318   7.624  0.00  0.00    +0.000 HD
ATOM     18  H   UNL     1       7.527  -2.788   6.725  0.00  0.00    +0.000 HD
ATOM     19  H   UNL     1       6.458  -1.377   6.645  0.00  0.00    +0.000 HD
ENDBRANCH  13  16
ENDBRANCH  10  13
ENDBRANCH   7  10
ENDBRANCH   4   7
ENDBRANCH   1   4
BRANCH   1  20
ATOM     20  C   UNL     1       8.073   0.199   0.677  0.00  0.00    +0.000 C 
ATOM     21  H   UNL     1       7.421  -0.086  -0.156  0.00  0.00    +0.000 HD
ATOM     22  H   UNL     1       7.474   0.132   1.594  0.00  0.00    +0.000 HD
BRANCH  20  23
ATOM     23  C   UNL     1       8.551   1.638   0.479  0.00  0.00    +0.000 C 
ATOM     24  H   UNL     1       9.568   1.635   0.070  0.00  0.00    +0.000 HD
ATOM     25  H   UNL     1       8.604   2.141   1.454  0.00  0.00    +0.000 HD
BRANCH  23  26
ATOM     26  C   UNL     1       7.620   2.410  -0.449  0.00  0.00    +0.000 C 
ATOM     27  H   UNL     1       6.972   1.716  -0.996  0.00  0.00    +0.000 HD
ATOM     28  H   UNL     1       8.209   2.995  -1.165  0.00  0.00    +0.000 HD
BRANCH  26  30
ATOM     29  O   UNL     1       5.744   3.005   0.947  0.00  0.00    +0.000 OA
ATOM     30  C   UNL     1       6.746   3.353   0.338  0.00  0.00    +0.000 C 
BRANCH  30  31
ATOM     31  O   UNL     1       7.256   4.617   0.277  0.00  0.00    +0.000 OA
BRANCH  31  32
ATOM     32  C   UNL     1       7.948   5.058   1.449  0.00  0.00    +0.000 C 
ATOM     33  H   UNL     1       8.457   4.216   1.927  0.00  0.00    +0.000 HD
ATOM     34  H   UNL     1       7.251   5.535   2.145  0.00  0.00    +0.000 HD
ATOM     35  H   UNL     1       8.698   5.793   1.144  0.00  0.00    +0.000 HD
ENDBRANCH  31  32
ENDBRANCH  30  31
ENDBRANCH  26  30
ENDBRANCH  23  26
ENDBRANCH  20  23
ENDBRANCH   1  20
TORSDOF 11
ENDMDL
MODEL 4
REMARK VINA RESULT:    -4.170     31.079     34.510
REMARK INTER + INTRA:          -6.794
REMARK INTER:                  -6.330
REMARK INTRA:                  -0.464
REMARK UNBOUND:                -0.187
REMARK  Name = 8050
REMARK  11 active torsions:
REMARK  status: ('A' for Active; 'I' for Inactive)
REMARK    1  A    between atoms: O_1  and  C_12
REMARK    2  A    between atoms: O_1  and  C_13
REMARK    3  A    between atoms: C_3  and  C_4
REMARK    4  A    between atoms: C_3  and  C_5
REMARK    5  A    between atoms: C_4  and  C_6
REMARK    6  A    between atoms: C_5  and  C_7
REMARK    7  A    between atoms: C_6  and  C_8
REMARK    8  A    between atoms: C_7  and  C_9
REMARK    9  A    between atoms: C_8  and  C_10
REMARK   10  A    between atoms: C_9  and  C_11
REMARK   11  A    between atoms: C_10  and  C_12
REMARK                            x       y       z     vdW  Elec       q    Type
REMARK                         _______ _______ _______ _____ _____    ______ ____
ROOT
ATOM      1  C   UNL     1     -19.490 -13.156   5.106  0.00  0.00    +0.000 C 
ATOM      2  H   UNL     1     -19.353 -14.241   5.190  0.00  0.00    +0.000 HD
ATOM      3  H   UNL     1     -20.530 -12.985   4.800  0.00  0.00    +0.000 HD
ENDROOT
BRANCH   1   4
ATOM      4  C   UNL     1     -19.245 -12.501   6.468  0.00  0.00    +0.000 C 
ATOM      5  H   UNL     1     -18.667 -13.180   7.107  0.00  0.00    +0.000 HD
ATOM      6  H   UNL     1     -18.647 -11.592   6.337  0.00  0.00    +0.000 HD
BRANCH   4   7
ATOM      7  C   UNL     1     -20.565 -12.148   7.158  0.00  0.00    +0.000 C 
ATOM      8  H   UNL     1     -20.869 -11.137   6.862  0.00  0.00    +0.000 HD
ATOM      9  H   UNL     1     -20.411 -12.128   8.244  0.00  0.00    +0.000 HD
BRANCH   7  10
ATOM     10  C   UNL     1     -21.699 -13.125   6.838  0.00  0.00    +0.000 C 
ATOM     11  H   UNL     1     -21.520 -14.071   7.364  0.00  0.00    +0.000 HD
ATOM     12  H   UNL     1     -21.678 -13.352   5.765  0.00  0.00    +0.000 HD
BRANCH  10  13
ATOM     13  C   UNL     1     -23.083 -12.596   7.216  0.00  0.00    +0.000 C 
ATOM     14  H   UNL     1     -23.397 -13.027   8.173  0.00  0.00    +0.000 HD
ATOM     15  H   UNL     1     -23.041 -11.508   7.347  0.00  0.00    +0.000 HD
BRANCH  13  16
ATOM     16  C   UNL     1     -24.115 -12.928   6.149  0.00  0.00    +0.000 C 
ATOM     17  H   UNL     1     -24.804 -13.705   6.496  0.00  0.00    +0.000 HD
ATOM     18  H   UNL     1     -23.619 -13.293   5.245  0.00  0.00    +0.000 HD
ATOM     19  H   UNL     1     -24.701 -12.043   5.882  0.00  0.00    +0.000 HD
ENDBRANCH  13  16
ENDBRANCH  10  13
ENDBRANCH   7  10
ENDBRANCH   4   7
ENDBRANCH   1   4
BRANCH   1  20
ATOM     20  C   UNL     1     -18.545 -12.597   4.042  0.00  0.00    +0.000 C 
ATOM     21  H   UNL     1     -17.612 -13.172   4.038  0.00  0.00    +0.000 HD
ATOM     22  H   UNL     1     -19.001 -12.713   3.051  0.00  0.00    +0.000 HD
BRANCH  20  23
ATOM     23  C   UNL     1     -18.233 -11.121   4.296  0.00  0.00    +0.000 C 
ATOM     24  H   UNL     1     -18.549 -10.847   5.310  0.00  0.00    +0.000 HD
ATOM     25  H   UNL     1     -18.819 -10.502   3.605  0.00  0.00    +0.000 HD
BRANCH  23  26
ATOM     26  C   UNL     1     -16.748 -10.830   4.118  0.00  0.00    +0.000 C 
ATOM     27  H   UNL     1     -16.163 -11.742   4.278  0.00  0.00    +0.000 HD
ATOM     28  H   UNL     1     -16.430 -10.065   4.836  0.00  0.00    +0.000 HD
BRANCH  26  30
ATOM     29  O   UNL     1     -15.351 -10.291   2.225  0.00  0.00    +0.000 OA
ATOM     30  C   UNL     1     -16.468 -10.326   2.725  0.00  0.00    +0.000 C 
BRANCH  30  31
ATOM     31  O   UNL     1     -17.633  -9.947   2.126  0.00  0.00    +0.000 OA
BRANCH  31  32
ATOM     32  C   UNL     1     -17.749 -10.283   0.739  0.00  0.00    +0.000 C 
ATOM     33  H   UNL     1     -18.658 -10.867   0.566  0.00  0.00    +0.000 HD
ATOM     34  H   UNL     1     -16.865 -10.836   0.408  0.00  0.00    +0.000 HD
ATOM     35  H   UNL     1     -17.815  -9.353   0.169  0.00  0.00    +0.000 HD
ENDBRANCH  31  32
ENDBRANCH  30  31
ENDBRANCH  26  30
ENDBRANCH  23  26
ENDBRANCH  20  23
ENDBRANCH   1  20
TORSDOF 11
ENDMDL
MODEL 5
REMARK VINA RESULT:    -4.099     22.772     23.957
REMARK INTER + INTRA:          -6.682
REMARK INTER:                  -5.791
REMARK INTRA:                  -0.892
REMARK UNBOUND:                -0.187
REMARK  Name = 8050
REMARK  11 active torsions:
REMARK  status: ('A' for Active; 'I' for Inactive)
REMARK    1  A    between atoms: O_1  and  C_12
REMARK    2  A    between atoms: O_1  and  C_13
REMARK    3  A    between atoms: C_3  and  C_4
REMARK    4  A    between atoms: C_3  and  C_5
REMARK    5  A    between atoms: C_4  and  C_6
REMARK    6  A    between atoms: C_5  and  C_7
REMARK    7  A    between atoms: C_6  and  C_8
REMARK    8  A    between atoms: C_7  and  C_9
REMARK    9  A    between atoms: C_8  and  C_10
REMARK   10  A    between atoms: C_9  and  C_11
REMARK   11  A    between atoms: C_10  and  C_12
REMARK                            x       y       z     vdW  Elec       q    Type
REMARK                         _______ _______ _______ _____ _____    ______ ____
ROOT
ATOM      1  C   UNL     1      -1.210  10.986  14.825  0.00  0.00    +0.000 C 
ATOM      2  H   UNL     1      -0.900  11.865  15.404  0.00  0.00    +0.000 HD
ATOM      3  H   UNL     1      -0.780  10.106  15.318  0.00  0.00    +0.000 HD
ENDROOT
BRANCH   1   4
ATOM      4  C   UNL     1      -2.737  10.880  14.829  0.00  0.00    +0.000 C 
ATOM      5  H   UNL     1      -3.159  11.632  15.507  0.00  0.00    +0.000 HD
ATOM      6  H   UNL     1      -3.124  11.094  13.826  0.00  0.00    +0.000 HD
BRANCH   4   7
ATOM      7  C   UNL     1      -3.194   9.486  15.264  0.00  0.00    +0.000 C 
ATOM      8  H   UNL     1      -3.980   9.583  16.023  0.00  0.00    +0.000 HD
ATOM      9  H   UNL     1      -2.355   8.964  15.741  0.00  0.00    +0.000 HD
BRANCH   7  10
ATOM     10  C   UNL     1      -3.718   8.630  14.108  0.00  0.00    +0.000 C 
ATOM     11  H   UNL     1      -3.884   9.269  13.232  0.00  0.00    +0.000 HD
ATOM     12  H   UNL     1      -4.695   8.216  14.388  0.00  0.00    +0.000 HD
BRANCH  10  13
ATOM     13  C   UNL     1      -2.776   7.487  13.723  0.00  0.00    +0.000 C 
ATOM     14  H   UNL     1      -2.002   7.369  14.489  0.00  0.00    +0.000 HD
ATOM     15  H   UNL     1      -3.336   6.545  13.677  0.00  0.00    +0.000 HD
BRANCH  13  16
ATOM     16  C   UNL     1      -2.119   7.742  12.375  0.00  0.00    +0.000 C 
ATOM     17  H   UNL     1      -2.687   8.474  11.792  0.00  0.00    +0.000 HD
ATOM     18  H   UNL     1      -2.068   6.814  11.797  0.00  0.00    +0.000 HD
ATOM     19  H   UNL     1      -1.100   8.120  12.502  0.00  0.00    +0.000 HD
ENDBRANCH  13  16
ENDBRANCH  10  13
ENDBRANCH   7  10
ENDBRANCH   4   7
ENDBRANCH   1   4
BRANCH   1  20
ATOM     20  C   UNL     1      -0.664  11.091  13.400  0.00  0.00    +0.000 C 
ATOM     21  H   UNL     1       0.106  11.870  13.355  0.00  0.00    +0.000 HD
ATOM     22  H   UNL     1      -0.184  10.145  13.122  0.00  0.00    +0.000 HD
BRANCH  20  23
ATOM     23  C   UNL     1      -1.776  11.417  12.401  0.00  0.00    +0.000 C 
ATOM     24  H   UNL     1      -2.292  12.333  12.711  0.00  0.00    +0.000 HD
ATOM     25  H   UNL     1      -2.524  10.613  12.415  0.00  0.00    +0.000 HD
BRANCH  23  26
ATOM     26  C   UNL     1      -1.223  11.583  10.990  0.00  0.00    +0.000 C 
ATOM     27  H   UNL     1      -1.326  10.647  10.432  0.00  0.00    +0.000 HD
ATOM     28  H   UNL     1      -0.164  11.862  11.037  0.00  0.00    +0.000 HD
BRANCH  26  30
ATOM     29  O   UNL     1      -3.164  12.889  10.399  0.00  0.00    +0.000 OA
ATOM     30  C   UNL     1      -1.971  12.662  10.250  0.00  0.00    +0.000 C 
BRANCH  30  31
ATOM     31  O   UNL     1      -1.117  13.338   9.427  0.00  0.00    +0.000 OA
BRANCH  31  32
ATOM     32  C   UNL     1      -0.840  14.689   9.805  0.00  0.00    +0.000 C 
ATOM     33  H   UNL     1      -1.443  14.971  10.673  0.00  0.00    +0.000 HD
ATOM     34  H   UNL     1      -1.030  15.365   8.965  0.00  0.00    +0.000 HD
ATOM     35  H   UNL     1       0.217  14.756  10.076  0.00  0.00    +0.000 HD
ENDBRANCH  31  32
ENDBRANCH  30  31
ENDBRANCH  26  30
ENDBRANCH  23  26
ENDBRANCH  20  23
ENDBRANCH   1  20
TORSDOF 11
ENDMDL
MODEL 6
REMARK VINA RESULT:    -4.069     36.688     38.228
REMARK INTER + INTRA:          -6.634
REMARK INTER:                  -5.689
REMARK INTRA:                  -0.945
REMARK UNBOUND:                -0.187
REMARK  Name = 8050
REMARK  11 active torsions:
REMARK  status: ('A' for Active; 'I' for Inactive)
REMARK    1  A    between atoms: O_1  and  C_12
REMARK    2  A    between atoms: O_1  and  C_13
REMARK    3  A    between atoms: C_3  and  C_4
REMARK    4  A    between atoms: C_3  and  C_5
REMARK    5  A    between atoms: C_4  and  C_6
REMARK    6  A    between atoms: C_5  and  C_7
REMARK    7  A    between atoms: C_6  and  C_8
REMARK    8  A    between atoms: C_7  and  C_9
REMARK    9  A    between atoms: C_8  and  C_10
REMARK   10  A    between atoms: C_9  and  C_11
REMARK   11  A    between atoms: C_10  and  C_12
REMARK                            x       y       z     vdW  Elec       q    Type
REMARK                         _______ _______ _______ _____ _____    ______ ____
ROOT
ATOM      1  C   UNL     1     -15.693 -14.298  21.253  0.00  0.00    +0.000 C 
ATOM      2  H   UNL     1     -15.212 -14.921  20.488  0.00  0.00    +0.000 HD
ATOM      3  H   UNL     1     -16.571 -14.848  21.612  0.00  0.00    +0.000 HD
ENDROOT
BRANCH   1   4
ATOM      4  C   UNL     1     -14.721 -14.072  22.414  0.00  0.00    +0.000 C 
ATOM      5  H   UNL     1     -14.504 -13.002  22.513  0.00  0.00    +0.000 HD
ATOM      6  H   UNL     1     -15.188 -14.396  23.352  0.00  0.00    +0.000 HD
BRANCH   4   7
ATOM      7  C   UNL     1     -13.416 -14.842  22.202  0.00  0.00    +0.000 C 
ATOM      8  H   UNL     1     -13.637 -15.913  22.123  0.00  0.00    +0.000 HD
ATOM      9  H   UNL     1     -12.774 -14.714  23.082  0.00  0.00    +0.000 HD
BRANCH   7  10
ATOM     10  C   UNL     1     -12.643 -14.398  20.957  0.00  0.00    +0.000 C 
ATOM     11  H   UNL     1     -11.720 -13.892  21.267  0.00  0.00    +0.000 HD
ATOM     12  H   UNL     1     -13.243 -13.656  20.414  0.00  0.00    +0.000 HD
BRANCH  10  13
ATOM     13  C   UNL     1     -12.292 -15.551  20.016  0.00  0.00    +0.000 C 
ATOM     14  H   UNL     1     -11.251 -15.458  19.688  0.00  0.00    +0.000 HD
ATOM     15  H   UNL     1     -12.381 -16.505  20.549  0.00  0.00    +0.000 HD
BRANCH  13  16
ATOM     16  C   UNL     1     -13.205 -15.573  18.801  0.00  0.00    +0.000 C 
ATOM     17  H   UNL     1     -14.220 -15.878  19.076  0.00  0.00    +0.000 HD
ATOM     18  H   UNL     1     -12.829 -16.281  18.056  0.00  0.00    +0.000 HD
ATOM     19  H   UNL     1     -13.258 -14.585  18.333  0.00  0.00    +0.000 HD
ENDBRANCH  13  16
ENDBRANCH  10  13
ENDBRANCH   7  10
ENDBRANCH   4   7
ENDBRANCH   1   4
BRANCH   1  20
ATOM     20  C   UNL     1     -16.138 -12.972  20.634  0.00  0.00    +0.000 C 
ATOM     21  H   UNL     1     -17.232 -12.933  20.594  0.00  0.00    +0.000 HD
ATOM     22  H   UNL     1     -15.807 -12.143  21.271  0.00  0.00    +0.000 HD
BRANCH  20  23
ATOM     23  C   UNL     1     -15.570 -12.798  19.225  0.00  0.00    +0.000 C 
ATOM     24  H   UNL     1     -16.386 -12.591  18.522  0.00  0.00    +0.000 HD
ATOM     25  H   UNL     1     -15.105 -13.738  18.901  0.00  0.00    +0.000 HD
BRANCH  23  26
ATOM     26  C   UNL     1     -14.544 -11.671  19.176  0.00  0.00    +0.000 C 
ATOM     27  H   UNL     1     -13.574 -12.059  18.845  0.00  0.00    +0.000 HD
ATOM     28  H   UNL     1     -14.435 -11.224  20.170  0.00  0.00    +0.000 HD
BRANCH  26  30
ATOM     29  O   UNL     1     -15.150 -10.786  17.014  0.00  0.00    +0.000 OA
ATOM     30  C   UNL     1     -14.979 -10.598  18.211  0.00  0.00    +0.000 C 
BRANCH  30  31
ATOM     31  O   UNL     1     -15.166  -9.423  18.878  0.00  0.00    +0.000 OA
BRANCH  31  32
ATOM     32  C   UNL     1     -16.108  -8.523  18.286  0.00  0.00    +0.000 C 
ATOM     33  H   UNL     1     -16.373  -8.861  17.280  0.00  0.00    +0.000 HD
ATOM     34  H   UNL     1     -15.697  -7.508  18.258  0.00  0.00    +0.000 HD
ATOM     35  H   UNL     1     -17.010  -8.520  18.904  0.00  0.00    +0.000 HD
ENDBRANCH  31  32
ENDBRANCH  30  31
ENDBRANCH  26  30
ENDBRANCH  23  26
ENDBRANCH  20  23
ENDBRANCH   1  20
TORSDOF 11
ENDMDL
MODEL 7
REMARK VINA RESULT:    -4.052     15.929     17.203
REMARK INTER + INTRA:          -6.608
REMARK INTER:                  -5.813
REMARK INTRA:                  -0.795
REMARK UNBOUND:                -0.187
REMARK  Name = 8050
REMARK  11 active torsions:
REMARK  status: ('A' for Active; 'I' for Inactive)
REMARK    1  A    between atoms: O_1  and  C_12
REMARK    2  A    between atoms: O_1  and  C_13
REMARK    3  A    between atoms: C_3  and  C_4
REMARK    4  A    between atoms: C_3  and  C_5
REMARK    5  A    between atoms: C_4  and  C_6
REMARK    6  A    between atoms: C_5  and  C_7
REMARK    7  A    between atoms: C_6  and  C_8
REMARK    8  A    between atoms: C_7  and  C_9
REMARK    9  A    between atoms: C_8  and  C_10
REMARK   10  A    between atoms: C_9  and  C_11
REMARK   11  A    between atoms: C_10  and  C_12
REMARK                            x       y       z     vdW  Elec       q    Type
REMARK                         _______ _______ _______ _____ _____    ______ ____
ROOT
ATOM      1  C   UNL     1       4.704  14.524  -8.333  0.00  0.00    +0.000 C 
ATOM      2  H   UNL     1       5.507  14.213  -9.012  0.00  0.00    +0.000 HD
ATOM      3  H   UNL     1       4.582  13.726  -7.590  0.00  0.00    +0.000 HD
ENDROOT
BRANCH   1   4
ATOM      4  C   UNL     1       5.103  15.823  -7.626  0.00  0.00    +0.000 C 
ATOM      5  H   UNL     1       4.269  16.533  -7.658  0.00  0.00    +0.000 HD
ATOM      6  H   UNL     1       5.315  15.617  -6.570  0.00  0.00    +0.000 HD
BRANCH   4   7
ATOM      7  C   UNL     1       6.337  16.451  -8.279  0.00  0.00    +0.000 C 
ATOM      8  H   UNL     1       7.099  16.633  -7.512  0.00  0.00    +0.000 HD
ATOM      9  H   UNL     1       6.066  17.429  -8.696  0.00  0.00    +0.000 HD
BRANCH   7  10
ATOM     10  C   UNL     1       6.942  15.590  -9.391  0.00  0.00    +0.000 C 
ATOM     11  H   UNL     1       6.305  14.711  -9.553  0.00  0.00    +0.000 HD
ATOM     12  H   UNL     1       7.918  15.216  -9.058  0.00  0.00    +0.000 HD
BRANCH  10  13
ATOM     13  C   UNL     1       7.110  16.337 -10.715  0.00  0.00    +0.000 C 
ATOM     14  H   UNL     1       7.017  17.415 -10.548  0.00  0.00    +0.000 HD
ATOM     15  H   UNL     1       8.114  16.155 -11.118  0.00  0.00    +0.000 HD
BRANCH  13  16
ATOM     16  C   UNL     1       6.076  15.893 -11.738  0.00  0.00    +0.000 C 
ATOM     17  H   UNL     1       5.625  14.937 -11.452  0.00  0.00    +0.000 HD
ATOM     18  H   UNL     1       6.543  15.767 -12.719  0.00  0.00    +0.000 HD
ATOM     19  H   UNL     1       5.277  16.635 -11.834  0.00  0.00    +0.000 HD
ENDBRANCH  13  16
ENDBRANCH  10  13
ENDBRANCH   7  10
ENDBRANCH   4   7
ENDBRANCH   1   4
BRANCH   1  20
ATOM     20  C   UNL     1       3.402  14.696  -9.117  0.00  0.00    +0.000 C 
ATOM     21  H   UNL     1       2.617  15.071  -8.452  0.00  0.00    +0.000 HD
ATOM     22  H   UNL     1       3.546  15.447  -9.904  0.00  0.00    +0.000 HD
BRANCH  20  23
ATOM     23  C   UNL     1       2.952  13.375  -9.743  0.00  0.00    +0.000 C 
ATOM     24  H   UNL     1       1.883  13.427  -9.982  0.00  0.00    +0.000 HD
ATOM     25  H   UNL     1       3.073  12.566  -9.011  0.00  0.00    +0.000 HD
BRANCH  23  26
ATOM     26  C   UNL     1       3.751  13.057 -11.001  0.00  0.00    +0.000 C 
ATOM     27  H   UNL     1       4.807  12.908 -10.750  0.00  0.00    +0.000 HD
ATOM     28  H   UNL     1       3.663  13.882 -11.717  0.00  0.00    +0.000 HD
BRANCH  26  30
ATOM     29  O   UNL     1       2.210  11.227 -11.315  0.00  0.00    +0.000 OA
ATOM     30  C   UNL     1       3.238  11.799 -11.654  0.00  0.00    +0.000 C 
BRANCH  30  31
ATOM     31  O   UNL     1       4.071  11.428 -12.668  0.00  0.00    +0.000 OA
BRANCH  31  32
ATOM     32  C   UNL     1       4.768  12.497 -13.314  0.00  0.00    +0.000 C 
ATOM     33  H   UNL     1       5.268  13.127 -12.571  0.00  0.00    +0.000 HD
ATOM     34  H   UNL     1       4.075  13.090 -13.919  0.00  0.00    +0.000 HD
ATOM     35  H   UNL     1       5.525  12.062 -13.971  0.00  0.00    +0.000 HD
ENDBRANCH  31  32
ENDBRANCH  30  31
ENDBRANCH  26  30
ENDBRANCH  23  26
ENDBRANCH  20  23
ENDBRANCH   1  20
TORSDOF 11
ENDMDL
MODEL 8
REMARK VINA RESULT:    -3.987     23.280     24.562
REMARK INTER + INTRA:          -6.504
REMARK INTER:                  -6.147
REMARK INTRA:                  -0.357
REMARK UNBOUND:                -0.187
REMARK  Name = 8050
REMARK  11 active torsions:
REMARK  status: ('A' for Active; 'I' for Inactive)
REMARK    1  A    between atoms: O_1  and  C_12
REMARK    2  A    between atoms: O_1  and  C_13
REMARK    3  A    between atoms: C_3  and  C_4
REMARK    4  A    between atoms: C_3  and  C_5
REMARK    5  A    between atoms: C_4  and  C_6
REMARK    6  A    between atoms: C_5  and  C_7
REMARK    7  A    between atoms: C_6  and  C_8
REMARK    8  A    between atoms: C_7  and  C_9
REMARK    9  A    between atoms: C_8  and  C_10
REMARK   10  A    between atoms: C_9  and  C_11
REMARK   11  A    between atoms: C_10  and  C_12
REMARK                            x       y       z     vdW  Elec       q    Type
REMARK                         _______ _______ _______ _____ _____    ______ ____
ROOT
ATOM      1  C   UNL     1      -3.068   9.592  15.485  0.00  0.00    +0.000 C 
ATOM      2  H   UNL     1      -3.938   8.950  15.304  0.00  0.00    +0.000 HD
ATOM      3  H   UNL     1      -3.386  10.377  16.183  0.00  0.00    +0.000 HD
ENDROOT
BRANCH   1   4
ATOM      4  C   UNL     1      -1.945   8.768  16.120  0.00  0.00    +0.000 C 
ATOM      5  H   UNL     1      -2.374   8.002  16.777  0.00  0.00    +0.000 HD
ATOM      6  H   UNL     1      -1.383   8.246  15.337  0.00  0.00    +0.000 HD
BRANCH   4   7
ATOM      7  C   UNL     1      -0.993   9.657  16.923  0.00  0.00    +0.000 C 
ATOM      8  H   UNL     1      -1.410  10.669  16.988  0.00  0.00    +0.000 HD
ATOM      9  H   UNL     1      -0.039   9.740  16.388  0.00  0.00    +0.000 HD
BRANCH   7  10
ATOM     10  C   UNL     1      -0.723   9.136  18.338  0.00  0.00    +0.000 C 
ATOM     11  H   UNL     1      -1.654   8.736  18.759  0.00  0.00    +0.000 HD
ATOM     12  H   UNL     1      -0.425   9.979  18.974  0.00  0.00    +0.000 HD
BRANCH  10  13
ATOM     13  C   UNL     1       0.357   8.055  18.392  0.00  0.00    +0.000 C 
ATOM     14  H   UNL     1       0.811   7.933  17.402  0.00  0.00    +0.000 HD
ATOM     15  H   UNL     1       1.154   8.360  19.081  0.00  0.00    +0.000 HD
BRANCH  13  16
ATOM     16  C   UNL     1      -0.215   6.723  18.852  0.00  0.00    +0.000 C 
ATOM     17  H   UNL     1      -0.725   6.209  18.031  0.00  0.00    +0.000 HD
ATOM     18  H   UNL     1      -0.941   6.880  19.656  0.00  0.00    +0.000 HD
ATOM     19  H   UNL     1       0.575   6.067  19.231  0.00  0.00    +0.000 HD
ENDBRANCH  13  16
ENDBRANCH  10  13
ENDBRANCH   7  10
ENDBRANCH   4   7
ENDBRANCH   1   4
BRANCH   1  20
ATOM     20  C   UNL     1      -2.615  10.230  14.171  0.00  0.00    +0.000 C 
ATOM     21  H   UNL     1      -2.878  11.294  14.167  0.00  0.00    +0.000 HD
ATOM     22  H   UNL     1      -1.523  10.167  14.092  0.00  0.00    +0.000 HD
BRANCH  20  23
ATOM     23  C   UNL     1      -3.259   9.540  12.968  0.00  0.00    +0.000 C 
ATOM     24  H   UNL     1      -4.327   9.786  12.930  0.00  0.00    +0.000 HD
ATOM     25  H   UNL     1      -3.188   8.452  13.091  0.00  0.00    +0.000 HD
BRANCH  23  26
ATOM     26  C   UNL     1      -2.585   9.956  11.665  0.00  0.00    +0.000 C 
ATOM     27  H   UNL     1      -2.202  10.979  11.748  0.00  0.00    +0.000 HD
ATOM     28  H   UNL     1      -3.306   9.905  10.841  0.00  0.00    +0.000 HD
BRANCH  26  30
ATOM     29  O   UNL     1      -1.550   7.843  11.125  0.00  0.00    +0.000 OA
ATOM     30  C   UNL     1      -1.430   9.041  11.348  0.00  0.00    +0.000 C 
BRANCH  30  31
ATOM     31  O   UNL     1      -0.265   9.752  11.330  0.00  0.00    +0.000 OA
BRANCH  31  32
ATOM     32  C   UNL     1       0.452   9.727  10.092  0.00  0.00    +0.000 C 
ATOM     33  H   UNL     1      -0.240   9.839   9.252  0.00  0.00    +0.000 HD
ATOM     34  H   UNL     1       1.022   8.797  10.003  0.00  0.00    +0.000 HD
ATOM     35  H   UNL     1       1.149  10.569  10.087  0.00  0.00    +0.000 HD
ENDBRANCH  31  32
ENDBRANCH  30  31
ENDBRANCH  26  30
ENDBRANCH  23  26
ENDBRANCH  20  23
ENDBRANCH   1  20
TORSDOF 11
ENDMDL
MODEL 9
REMARK VINA RESULT:    -3.970      6.421      8.288
REMARK INTER + INTRA:          -6.477
REMARK INTER:                  -5.981
REMARK INTRA:                  -0.496
REMARK UNBOUND:                -0.187
REMARK  Name = 8050
REMARK  11 active torsions:
REMARK  status: ('A' for Active; 'I' for Inactive)
REMARK    1  A    between atoms: O_1  and  C_12
REMARK    2  A    between atoms: O_1  and  C_13
REMARK    3  A    between atoms: C_3  and  C_4
REMARK    4  A    between atoms: C_3  and  C_5
REMARK    5  A    between atoms: C_4  and  C_6
REMARK    6  A    between atoms: C_5  and  C_7
REMARK    7  A    between atoms: C_6  and  C_8
REMARK    8  A    between atoms: C_7  and  C_9
REMARK    9  A    between atoms: C_8  and  C_10
REMARK   10  A    between atoms: C_9  and  C_11
REMARK   11  A    between atoms: C_10  and  C_12
REMARK                            x       y       z     vdW  Elec       q    Type
REMARK                         _______ _______ _______ _____ _____    ______ ____
ROOT
ATOM      1  C   UNL     1       9.256  -1.211   1.086  0.00  0.00    +0.000 C 
ATOM      2  H   UNL     1      10.150  -0.576   1.034  0.00  0.00    +0.000 HD
ATOM      3  H   UNL     1       9.234  -1.813   0.169  0.00  0.00    +0.000 HD
ENDROOT
BRANCH   1   4
ATOM      4  C   UNL     1       9.354  -2.136   2.302  0.00  0.00    +0.000 C 
ATOM      5  H   UNL     1       8.702  -3.006   2.159  0.00  0.00    +0.000 HD
ATOM      6  H   UNL     1      10.380  -2.512   2.397  0.00  0.00    +0.000 HD
BRANCH   4   7
ATOM      7  C   UNL     1       8.958  -1.405   3.587  0.00  0.00    +0.000 C 
ATOM      8  H   UNL     1       8.585  -0.405   3.334  0.00  0.00    +0.000 HD
ATOM      9  H   UNL     1       9.848  -1.264   4.211  0.00  0.00    +0.000 HD
BRANCH   7  10
ATOM     10  C   UNL     1       7.893  -2.143   4.403  0.00  0.00    +0.000 C 
ATOM     11  H   UNL     1       8.091  -3.222   4.363  0.00  0.00    +0.000 HD
ATOM     12  H   UNL     1       6.914  -1.985   3.934  0.00  0.00    +0.000 HD
BRANCH  10  13
ATOM     13  C   UNL     1       7.832  -1.699   5.865  0.00  0.00    +0.000 C 
ATOM     14  H   UNL     1       6.914  -1.128   6.042  0.00  0.00    +0.000 HD
ATOM     15  H   UNL     1       7.799  -2.579   6.519  0.00  0.00    +0.000 HD
BRANCH  13  16
ATOM     16  C   UNL     1       9.036  -0.848   6.236  0.00  0.00    +0.000 C 
ATOM     17  H   UNL     1       9.972  -1.381   6.036  0.00  0.00    +0.000 HD
ATOM     18  H   UNL     1       9.010  -0.598   7.301  0.00  0.00    +0.000 HD
ATOM     19  H   UNL     1       9.045   0.087   5.668  0.00  0.00    +0.000 HD
ENDBRANCH  13  16
ENDBRANCH  10  13
ENDBRANCH   7  10
ENDBRANCH   4   7
ENDBRANCH   1   4
BRANCH   1  20
ATOM     20  C   UNL     1       8.005  -0.335   1.153  0.00  0.00    +0.000 C 
ATOM     21  H   UNL     1       7.144  -0.943   1.452  0.00  0.00    +0.000 HD
ATOM     22  H   UNL     1       8.139   0.436   1.922  0.00  0.00    +0.000 HD
BRANCH  20  23
ATOM     23  C   UNL     1       7.717   0.328  -0.195  0.00  0.00    +0.000 C 
ATOM     24  H   UNL     1       8.626   0.323  -0.809  0.00  0.00    +0.000 HD
ATOM     25  H   UNL     1       7.451   1.380  -0.034  0.00  0.00    +0.000 HD
BRANCH  23  26
ATOM     26  C   UNL     1       6.588  -0.383  -0.933  0.00  0.00    +0.000 C 
ATOM     27  H   UNL     1       5.958   0.347  -1.451  0.00  0.00    +0.000 HD
ATOM     28  H   UNL     1       5.976  -0.947  -0.220  0.00  0.00    +0.000 HD
BRANCH  26  30
ATOM     29  O   UNL     1       6.648  -2.436  -2.200  0.00  0.00    +0.000 OA
ATOM     30  C   UNL     1       7.141  -1.343  -1.955  0.00  0.00    +0.000 C 
BRANCH  30  31
ATOM     31  O   UNL     1       8.236  -0.798  -2.559  0.00  0.00    +0.000 OA
BRANCH  31  32
ATOM     32  C   UNL     1       9.331  -1.694  -2.771  0.00  0.00    +0.000 C 
ATOM     33  H   UNL     1      10.131  -1.190  -3.322  0.00  0.00    +0.000 HD
ATOM     34  H   UNL     1       8.993  -2.585  -3.309  0.00  0.00    +0.000 HD
ATOM     35  H   UNL     1       9.716  -1.997  -1.794  0.00  0.00    +0.000 HD
ENDBRANCH  31  32
ENDBRANCH  30  31
ENDBRANCH  26  30
ENDBRANCH  23  26
ENDBRANCH  20  23
ENDBRANCH   1  20
TORSDOF 11
ENDMDL
MODEL 10
REMARK VINA RESULT:    -3.917      7.423      9.254
REMARK INTER + INTRA:          -6.394
REMARK INTER:                  -6.207
REMARK INTRA:                  -0.187
REMARK UNBOUND:                -0.187
REMARK  Name = 8050
REMARK  11 active torsions:
REMARK  status: ('A' for Active; 'I' for Inactive)
REMARK    1  A    between atoms: O_1  and  C_12
REMARK    2  A    between atoms: O_1  and  C_13
REMARK    3  A    between atoms: C_3  and  C_4
REMARK    4  A    between atoms: C_3  and  C_5
REMARK    5  A    between atoms: C_4  and  C_6
REMARK    6  A    between atoms: C_5  and  C_7
REMARK    7  A    between atoms: C_6  and  C_8
REMARK    8  A    between atoms: C_7  and  C_9
REMARK    9  A    between atoms: C_8  and  C_10
REMARK   10  A    between atoms: C_9  and  C_11
REMARK   11  A    between atoms: C_10  and  C_12
REMARK                            x       y       z     vdW  Elec       q    Type
REMARK                         _______ _______ _______ _____ _____    ______ ____
ROOT
ATOM      1  C   UNL     1       9.901  -1.405   3.028  0.00  0.00    +0.000 C 
ATOM      2  H   UNL     1      10.276  -2.398   2.753  0.00  0.00    +0.000 HD
ATOM      3  H   UNL     1       8.933  -1.551   3.523  0.00  0.00    +0.000 HD
ENDROOT
BRANCH   1   4
ATOM      4  C   UNL     1      10.877  -0.740   4.003  0.00  0.00    +0.000 C 
ATOM      5  H   UNL     1      11.542  -1.497   4.435  0.00  0.00    +0.000 HD
ATOM      6  H   UNL     1      11.508  -0.026   3.461  0.00  0.00    +0.000 HD
BRANCH   4   7
ATOM      7  C   UNL     1      10.131  -0.013   5.123  0.00  0.00    +0.000 C 
ATOM      8  H   UNL     1       9.485  -0.726   5.650  0.00  0.00    +0.000 HD
ATOM      9  H   UNL     1       9.474   0.748   4.685  0.00  0.00    +0.000 HD
BRANCH   7  10
ATOM     10  C   UNL     1      11.062   0.660   6.136  0.00  0.00    +0.000 C 
ATOM     11  H   UNL     1      12.079   0.692   5.726  0.00  0.00    +0.000 HD
ATOM     12  H   UNL     1      11.106   0.043   7.042  0.00  0.00    +0.000 HD
BRANCH  10  13
ATOM     13  C   UNL     1      10.629   2.079   6.511  0.00  0.00    +0.000 C 
ATOM     14  H   UNL     1      11.439   2.784   6.295  0.00  0.00    +0.000 HD
ATOM     15  H   UNL     1       9.767   2.376   5.901  0.00  0.00    +0.000 HD
BRANCH  13  16
ATOM     16  C   UNL     1      10.254   2.173   7.981  0.00  0.00    +0.000 C 
ATOM     17  H   UNL     1       9.172   2.079   8.119  0.00  0.00    +0.000 HD
ATOM     18  H   UNL     1      10.565   3.139   8.390  0.00  0.00    +0.000 HD
ATOM     19  H   UNL     1      10.744   1.384   8.562  0.00  0.00    +0.000 HD
ENDBRANCH  13  16
ENDBRANCH  10  13
ENDBRANCH   7  10
ENDBRANCH   4   7
ENDBRANCH   1   4
BRANCH   1  20
ATOM     20  C   UNL     1       9.709  -0.558   1.769  0.00  0.00    +0.000 C 
ATOM     21  H   UNL     1       9.123   0.336   2.012  0.00  0.00    +0.000 HD
ATOM     22  H   UNL     1      10.686  -0.217   1.406  0.00  0.00    +0.000 HD
BRANCH  20  23
ATOM     23  C   UNL     1       8.999  -1.350   0.670  0.00  0.00    +0.000 C 
ATOM     24  H   UNL     1       8.134  -1.874   1.094  0.00  0.00    +0.000 HD
ATOM     25  H   UNL     1       9.677  -2.121   0.282  0.00  0.00    +0.000 HD
BRANCH  23  26
ATOM     26  C   UNL     1       8.549  -0.439  -0.467  0.00  0.00    +0.000 C 
ATOM     27  H   UNL     1       9.295  -0.442  -1.270  0.00  0.00    +0.000 HD
ATOM     28  H   UNL     1       8.421   0.584  -0.095  0.00  0.00    +0.000 HD
BRANCH  26  30
ATOM     29  O   UNL     1       6.183  -0.298  -0.917  0.00  0.00    +0.000 OA
ATOM     30  C   UNL     1       7.236  -0.910  -1.038  0.00  0.00    +0.000 C 
BRANCH  30  31
ATOM     31  O   UNL     1       7.416  -2.084  -1.709  0.00  0.00    +0.000 OA
BRANCH  31  32
ATOM     32  C   UNL     1       6.319  -2.496  -2.531  0.00  0.00    +0.000 C 
ATOM     33  H   UNL     1       5.564  -1.705  -2.579  0.00  0.00    +0.000 HD
ATOM     34  H   UNL     1       5.885  -3.424  -2.146  0.00  0.00    +0.000 HD
ATOM     35  H   UNL     1       6.700  -2.677  -3.539  0.00  0.00    +0.000 HD
ENDBRANCH  31  32
ENDBRANCH  30  31
ENDBRANCH  26  30
ENDBRANCH  23  26
ENDBRANCH  20  23
ENDBRANCH   1  20
TORSDOF 11
ENDMDL
