MODEL 1
REMARK VINA RESULT:    -3.988      0.000      0.000
REMARK INTER + INTRA:          -6.269
REMARK INTER:                  -5.994
REMARK INTRA:                  -0.275
REMARK UNBOUND:                -0.416
REMARK  Name = 8091
REMARK  9 active torsions:
REMARK  status: ('A' for Active; 'I' for Inactive)
REMARK    1  A    between atoms: O_1  and  C_10
REMARK    2  A    between atoms: O_1  and  C_11
REMARK    3  A    between atoms: C_3  and  C_4
REMARK    4  A    between atoms: C_3  and  C_5
REMARK    5  A    between atoms: C_4  and  C_6
REMARK    6  A    between atoms: C_5  and  C_7
REMARK    7  A    between atoms: C_6  and  C_8
REMARK    8  A    between atoms: C_7  and  C_9
REMARK    9  A    between atoms: C_8  and  C_10
REMARK                            x       y       z     vdW  Elec       q    Type
REMARK                         _______ _______ _______ _____ _____    ______ ____
ROOT
ATOM      1  C   UNL     1      -0.096 -12.905 -10.903  0.00  0.00    +0.000 C 
ATOM      2  H   UNL     1       0.811 -13.514 -11.002  0.00  0.00    +0.000 HD
ATOM      3  H   UNL     1      -0.062 -12.143 -11.692  0.00  0.00    +0.000 HD
ENDROOT
BRANCH   1   4
ATOM      4  C   UNL     1      -1.332 -13.787 -11.094  0.00  0.00    +0.000 C 
ATOM      5  H   UNL     1      -1.591 -14.269 -10.144  0.00  0.00    +0.000 HD
ATOM      6  H   UNL     1      -2.186 -13.161 -11.383  0.00  0.00    +0.000 HD
BRANCH   4   7
ATOM      7  C   UNL     1      -1.094 -14.853 -12.164  0.00  0.00    +0.000 C 
ATOM      8  H   UNL     1      -0.117 -14.693 -12.633  0.00  0.00    +0.000 HD
ATOM      9  H   UNL     1      -1.851 -14.758 -12.952  0.00  0.00    +0.000 HD
BRANCH   7  10
ATOM     10  C   UNL     1      -1.154 -16.260 -11.569  0.00  0.00    +0.000 C 
ATOM     11  H   UNL     1      -2.198 -16.582 -11.475  0.00  0.00    +0.000 HD
ATOM     12  H   UNL     1      -0.724 -16.256 -10.560  0.00  0.00    +0.000 HD
BRANCH  10  13
ATOM     13  C   UNL     1      -0.401 -17.262 -12.429  0.00  0.00    +0.000 C 
ATOM     14  H   UNL     1      -0.048 -16.797 -13.356  0.00  0.00    +0.000 HD
ATOM     15  H   UNL     1      -1.040 -18.111 -12.693  0.00  0.00    +0.000 HD
ATOM     16  H   UNL     1       0.470 -17.647 -11.889  0.00  0.00    +0.000 HD
ENDBRANCH  10  13
ENDBRANCH   7  10
ENDBRANCH   4   7
ENDBRANCH   1   4
BRANCH   1  17
ATOM     17  C   UNL     1      -0.109 -12.218  -9.534  0.00  0.00    +0.000 C 
ATOM     18  H   UNL     1       0.716 -12.601  -8.920  0.00  0.00    +0.000 HD
ATOM     19  H   UNL     1       0.073 -11.144  -9.666  0.00  0.00    +0.000 HD
BRANCH  17  20
ATOM     20  C   UNL     1      -1.428 -12.424  -8.790  0.00  0.00    +0.000 C 
ATOM     21  H   UNL     1      -1.939 -11.461  -8.684  0.00  0.00    +0.000 HD
ATOM     22  H   UNL     1      -2.069 -13.103  -9.365  0.00  0.00    +0.000 HD
BRANCH  20  24
ATOM     23  O   UNL     1      -1.760 -14.046  -7.007  0.00  0.00    +0.000 OA
ATOM     24  C   UNL     1      -1.248 -13.009  -7.406  0.00  0.00    +0.000 C 
BRANCH  24  25
ATOM     25  O   UNL     1      -0.400 -12.210  -6.695  0.00  0.00    +0.000 OA
BRANCH  25  26
ATOM     26  C   UNL     1      -0.251 -12.546  -5.311  0.00  0.00    +0.000 C 
ATOM     27  H   UNL     1      -1.111 -12.143  -4.769  0.00  0.00    +0.000 HD
ATOM     28  H   UNL     1       0.660 -12.095  -4.908  0.00  0.00    +0.000 HD
ATOM     29  H   UNL     1      -0.234 -13.632  -5.186  0.00  0.00    +0.000 HD
ENDBRANCH  25  26
ENDBRANCH  24  25
ENDBRANCH  20  24
ENDBRANCH  17  20
ENDBRANCH   1  17
TORSDOF 9
ENDMDL
MODEL 2
REMARK VINA RESULT:    -3.870      1.818      2.451
REMARK INTER + INTRA:          -6.096
REMARK INTER:                  -5.928
REMARK INTRA:                  -0.168
REMARK UNBOUND:                -0.416
REMARK  Name = 8091
REMARK  9 active torsions:
REMARK  status: ('A' for Active; 'I' for Inactive)
REMARK    1  A    between atoms: O_1  and  C_10
REMARK    2  A    between atoms: O_1  and  C_11
REMARK    3  A    between atoms: C_3  and  C_4
REMARK    4  A    between atoms: C_3  and  C_5
REMARK    5  A    between atoms: C_4  and  C_6
REMARK    6  A    between atoms: C_5  and  C_7
REMARK    7  A    between atoms: C_6  and  C_8
REMARK    8  A    between atoms: C_7  and  C_9
REMARK    9  A    between atoms: C_8  and  C_10
REMARK                            x       y       z     vdW  Elec       q    Type
REMARK                         _______ _______ _______ _____ _____    ______ ____
ROOT
ATOM      1  C   UNL     1      -0.237 -12.388  -9.269  0.00  0.00    +0.000 C 
ATOM      2  H   UNL     1       0.599 -12.911  -8.789  0.00  0.00    +0.000 HD
ATOM      3  H   UNL     1       0.080 -11.350  -9.430  0.00  0.00    +0.000 HD
ENDROOT
BRANCH   1   4
ATOM      4  C   UNL     1      -0.549 -13.043 -10.616  0.00  0.00    +0.000 C 
ATOM      5  H   UNL     1      -0.637 -14.129 -10.487  0.00  0.00    +0.000 HD
ATOM      6  H   UNL     1      -1.518 -12.681 -10.983  0.00  0.00    +0.000 HD
BRANCH   4   7
ATOM      7  C   UNL     1       0.535 -12.734 -11.650  0.00  0.00    +0.000 C 
ATOM      8  H   UNL     1       1.512 -12.682 -11.155  0.00  0.00    +0.000 HD
ATOM      9  H   UNL     1       0.346 -11.750 -12.097  0.00  0.00    +0.000 HD
BRANCH   7  10
ATOM     10  C   UNL     1       0.573 -13.795 -12.750  0.00  0.00    +0.000 C 
ATOM     11  H   UNL     1       0.254 -13.356 -13.703  0.00  0.00    +0.000 HD
ATOM     12  H   UNL     1      -0.132 -14.602 -12.514  0.00  0.00    +0.000 HD
BRANCH  10  13
ATOM     13  C   UNL     1       1.966 -14.379 -12.913  0.00  0.00    +0.000 C 
ATOM     14  H   UNL     1       2.689 -13.856 -12.279  0.00  0.00    +0.000 HD
ATOM     15  H   UNL     1       2.304 -14.304 -13.953  0.00  0.00    +0.000 HD
ATOM     16  H   UNL     1       1.970 -15.437 -12.632  0.00  0.00    +0.000 HD
ENDBRANCH  10  13
ENDBRANCH   7  10
ENDBRANCH   4   7
ENDBRANCH   1   4
BRANCH   1  17
ATOM     17  C   UNL     1      -1.458 -12.410  -8.344  0.00  0.00    +0.000 C 
ATOM     18  H   UNL     1      -1.514 -11.469  -7.783  0.00  0.00    +0.000 HD
ATOM     19  H   UNL     1      -2.371 -12.465  -8.951  0.00  0.00    +0.000 HD
BRANCH  17  20
ATOM     20  C   UNL     1      -1.426 -13.581  -7.363  0.00  0.00    +0.000 C 
ATOM     21  H   UNL     1      -2.427 -14.022  -7.291  0.00  0.00    +0.000 HD
ATOM     22  H   UNL     1      -0.729 -14.345  -7.729  0.00  0.00    +0.000 HD
BRANCH  20  24
ATOM     23  O   UNL     1      -0.346 -12.180  -5.693  0.00  0.00    +0.000 OA
ATOM     24  C   UNL     1      -0.995 -13.180  -5.969  0.00  0.00    +0.000 C 
BRANCH  24  25
ATOM     25  O   UNL     1      -1.473 -14.095  -5.077  0.00  0.00    +0.000 OA
BRANCH  25  26
ATOM     26  C   UNL     1      -0.484 -14.912  -4.441  0.00  0.00    +0.000 C 
ATOM     27  H   UNL     1       0.390 -14.288  -4.235  0.00  0.00    +0.000 HD
ATOM     28  H   UNL     1      -0.184 -15.728  -5.104  0.00  0.00    +0.000 HD
ATOM     29  H   UNL     1      -0.868 -15.303  -3.495  0.00  0.00    +0.000 HD
ENDBRANCH  25  26
ENDBRANCH  24  25
ENDBRANCH  20  24
ENDBRANCH  17  20
ENDBRANCH   1  17
TORSDOF 9
ENDMDL
MODEL 3
REMARK VINA RESULT:    -3.707     32.141     34.560
REMARK INTER + INTRA:          -5.856
REMARK INTER:                  -5.619
REMARK INTRA:                  -0.237
REMARK UNBOUND:                -0.416
REMARK  Name = 8091
REMARK  9 active torsions:
REMARK  status: ('A' for Active; 'I' for Inactive)
REMARK    1  A    between atoms: O_1  and  C_10
REMARK    2  A    between atoms: O_1  and  C_11
REMARK    3  A    between atoms: C_3  and  C_4
REMARK    4  A    between atoms: C_3  and  C_5
REMARK    5  A    between atoms: C_4  and  C_6
REMARK    6  A    between atoms: C_5  and  C_7
REMARK    7  A    between atoms: C_6  and  C_8
REMARK    8  A    between atoms: C_7  and  C_9
REMARK    9  A    between atoms: C_8  and  C_10
REMARK                            x       y       z     vdW  Elec       q    Type
REMARK                         _______ _______ _______ _____ _____    ______ ____
ROOT
ATOM      1  C   UNL     1      -1.475   8.731  16.771  0.00  0.00    +0.000 C 
ATOM      2  H   UNL     1      -2.163   8.108  17.355  0.00  0.00    +0.000 HD
ATOM      3  H   UNL     1      -1.113   8.117  15.936  0.00  0.00    +0.000 HD
ENDROOT
BRANCH   1   4
ATOM      4  C   UNL     1      -2.219   9.951  16.226  0.00  0.00    +0.000 C 
ATOM      5  H   UNL     1      -2.635  10.532  17.058  0.00  0.00    +0.000 HD
ATOM      6  H   UNL     1      -1.514  10.603  15.696  0.00  0.00    +0.000 HD
BRANCH   4   7
ATOM      7  C   UNL     1      -3.344   9.537  15.275  0.00  0.00    +0.000 C 
ATOM      8  H   UNL     1      -4.055  10.363  15.163  0.00  0.00    +0.000 HD
ATOM      9  H   UNL     1      -3.894   8.691  15.703  0.00  0.00    +0.000 HD
BRANCH   7  10
ATOM     10  C   UNL     1      -2.795   9.144  13.903  0.00  0.00    +0.000 C 
ATOM     11  H   UNL     1      -1.752   9.472  13.810  0.00  0.00    +0.000 HD
ATOM     12  H   UNL     1      -3.365   9.651  13.115  0.00  0.00    +0.000 HD
BRANCH  10  13
ATOM     13  C   UNL     1      -2.865   7.642  13.683  0.00  0.00    +0.000 C 
ATOM     14  H   UNL     1      -1.863   7.210  13.594  0.00  0.00    +0.000 HD
ATOM     15  H   UNL     1      -3.424   7.405  12.771  0.00  0.00    +0.000 HD
ATOM     16  H   UNL     1      -3.370   7.158  14.526  0.00  0.00    +0.000 HD
ENDBRANCH  10  13
ENDBRANCH   7  10
ENDBRANCH   4   7
ENDBRANCH   1   4
BRANCH   1  17
ATOM     17  C   UNL     1      -0.289   9.149  17.646  0.00  0.00    +0.000 C 
ATOM     18  H   UNL     1       0.651   8.962  17.110  0.00  0.00    +0.000 HD
ATOM     19  H   UNL     1      -0.335  10.230  17.826  0.00  0.00    +0.000 HD
BRANCH  17  20
ATOM     20  C   UNL     1      -0.261   8.410  18.983  0.00  0.00    +0.000 C 
ATOM     21  H   UNL     1       0.391   8.947  19.681  0.00  0.00    +0.000 HD
ATOM     22  H   UNL     1      -1.274   8.376  19.402  0.00  0.00    +0.000 HD
BRANCH  20  24
ATOM     23  O   UNL     1      -0.453   5.988  18.860  0.00  0.00    +0.000 OA
ATOM     24  C   UNL     1       0.249   6.990  18.871  0.00  0.00    +0.000 C 
BRANCH  24  25
ATOM     25  O   UNL     1       1.609   7.016  18.751  0.00  0.00    +0.000 OA
BRANCH  25  26
ATOM     26  C   UNL     1       2.312   7.618  19.843  0.00  0.00    +0.000 C 
ATOM     27  H   UNL     1       2.930   8.427  19.444  0.00  0.00    +0.000 HD
ATOM     28  H   UNL     1       2.965   6.883  20.324  0.00  0.00    +0.000 HD
ATOM     29  H   UNL     1       1.605   8.038  20.564  0.00  0.00    +0.000 HD
ENDBRANCH  25  26
ENDBRANCH  24  25
ENDBRANCH  20  24
ENDBRANCH  17  20
ENDBRANCH   1  17
TORSDOF 9
ENDMDL
MODEL 4
REMARK VINA RESULT:    -3.660     32.252     34.176
REMARK INTER + INTRA:          -5.787
REMARK INTER:                  -5.432
REMARK INTRA:                  -0.355
REMARK UNBOUND:                -0.416
REMARK  Name = 8091
REMARK  9 active torsions:
REMARK  status: ('A' for Active; 'I' for Inactive)
REMARK    1  A    between atoms: O_1  and  C_10
REMARK    2  A    between atoms: O_1  and  C_11
REMARK    3  A    between atoms: C_3  and  C_4
REMARK    4  A    between atoms: C_3  and  C_5
REMARK    5  A    between atoms: C_4  and  C_6
REMARK    6  A    between atoms: C_5  and  C_7
REMARK    7  A    between atoms: C_6  and  C_8
REMARK    8  A    between atoms: C_7  and  C_9
REMARK    9  A    between atoms: C_8  and  C_10
REMARK                            x       y       z     vdW  Elec       q    Type
REMARK                         _______ _______ _______ _____ _____    ______ ____
ROOT
ATOM      1  C   UNL     1      -1.014  10.016  16.584  0.00  0.00    +0.000 C 
ATOM      2  H   UNL     1      -1.625  10.795  17.056  0.00  0.00    +0.000 HD
ATOM      3  H   UNL     1      -0.563  10.457  15.686  0.00  0.00    +0.000 HD
ENDROOT
BRANCH   1   4
ATOM      4  C   UNL     1       0.089   9.572  17.548  0.00  0.00    +0.000 C 
ATOM      5  H   UNL     1       0.900   9.093  16.985  0.00  0.00    +0.000 HD
ATOM      6  H   UNL     1       0.515  10.451  18.046  0.00  0.00    +0.000 HD
BRANCH   4   7
ATOM      7  C   UNL     1      -0.450   8.600  18.599  0.00  0.00    +0.000 C 
ATOM      8  H   UNL     1      -1.462   8.282  18.323  0.00  0.00    +0.000 HD
ATOM      9  H   UNL     1      -0.525   9.111  19.567  0.00  0.00    +0.000 HD
BRANCH   7  10
ATOM     10  C   UNL     1       0.453   7.375  18.739  0.00  0.00    +0.000 C 
ATOM     11  H   UNL     1       1.128   7.504  19.593  0.00  0.00    +0.000 HD
ATOM     12  H   UNL     1       1.080   7.271  17.844  0.00  0.00    +0.000 HD
BRANCH  10  13
ATOM     13  C   UNL     1      -0.357   6.104  18.933  0.00  0.00    +0.000 C 
ATOM     14  H   UNL     1       0.295   5.252  19.150  0.00  0.00    +0.000 HD
ATOM     15  H   UNL     1      -0.940   5.870  18.035  0.00  0.00    +0.000 HD
ATOM     16  H   UNL     1      -1.054   6.221  19.769  0.00  0.00    +0.000 HD
ENDBRANCH  10  13
ENDBRANCH   7  10
ENDBRANCH   4   7
ENDBRANCH   1   4
BRANCH   1  17
ATOM     17  C   UNL     1      -1.905   8.838  16.178  0.00  0.00    +0.000 C 
ATOM     18  H   UNL     1      -1.294   8.057  15.708  0.00  0.00    +0.000 HD
ATOM     19  H   UNL     1      -2.345   8.389  17.078  0.00  0.00    +0.000 HD
BRANCH  17  20
ATOM     20  C   UNL     1      -3.020   9.252  15.219  0.00  0.00    +0.000 C 
ATOM     21  H   UNL     1      -3.992   9.059  15.686  0.00  0.00    +0.000 HD
ATOM     22  H   UNL     1      -2.938  10.324  15.005  0.00  0.00    +0.000 HD
BRANCH  20  24
ATOM     23  O   UNL     1      -2.788   7.304  13.779  0.00  0.00    +0.000 OA
ATOM     24  C   UNL     1      -2.982   8.507  13.903  0.00  0.00    +0.000 C 
BRANCH  24  25
ATOM     25  O   UNL     1      -3.230   9.385  12.888  0.00  0.00    +0.000 OA
BRANCH  25  26
ATOM     26  C   UNL     1      -2.403  10.555  12.870  0.00  0.00    +0.000 C 
ATOM     27  H   UNL     1      -2.129  10.760  11.831  0.00  0.00    +0.000 HD
ATOM     28  H   UNL     1      -1.490  10.381  13.446  0.00  0.00    +0.000 HD
ATOM     29  H   UNL     1      -2.953  11.413  13.265  0.00  0.00    +0.000 HD
ENDBRANCH  25  26
ENDBRANCH  24  25
ENDBRANCH  20  24
ENDBRANCH  17  20
ENDBRANCH   1  17
TORSDOF 9
ENDMDL
MODEL 5
REMARK VINA RESULT:    -3.558     34.812     35.670
REMARK INTER + INTRA:          -5.637
REMARK INTER:                  -5.396
REMARK INTRA:                  -0.241
REMARK UNBOUND:                -0.416
REMARK  Name = 8091
REMARK  9 active torsions:
REMARK  status: ('A' for Active; 'I' for Inactive)
REMARK    1  A    between atoms: O_1  and  C_10
REMARK    2  A    between atoms: O_1  and  C_11
REMARK    3  A    between atoms: C_3  and  C_4
REMARK    4  A    between atoms: C_3  and  C_5
REMARK    5  A    between atoms: C_4  and  C_6
REMARK    6  A    between atoms: C_5  and  C_7
REMARK    7  A    between atoms: C_6  and  C_8
REMARK    8  A    between atoms: C_7  and  C_9
REMARK    9  A    between atoms: C_8  and  C_10
REMARK                            x       y       z     vdW  Elec       q    Type
REMARK                         _______ _______ _______ _____ _____    ______ ____
ROOT
ATOM      1  C   UNL     1     -29.798  -6.239  11.661  0.00  0.00    +0.000 C 
ATOM      2  H   UNL     1     -30.100  -5.773  10.716  0.00  0.00    +0.000 HD
ATOM      3  H   UNL     1     -30.550  -5.966  12.412  0.00  0.00    +0.000 HD
ENDROOT
BRANCH   1   4
ATOM      4  C   UNL     1     -29.765  -7.760  11.498  0.00  0.00    +0.000 C 
ATOM      5  H   UNL     1     -30.780  -8.164  11.594  0.00  0.00    +0.000 HD
ATOM      6  H   UNL     1     -29.409  -8.012  10.491  0.00  0.00    +0.000 HD
BRANCH   4   7
ATOM      7  C   UNL     1     -28.851  -8.411  12.539  0.00  0.00    +0.000 C 
ATOM      8  H   UNL     1     -29.394  -8.527  13.484  0.00  0.00    +0.000 HD
ATOM      9  H   UNL     1     -27.995  -7.755  12.737  0.00  0.00    +0.000 HD
BRANCH   7  10
ATOM     10  C   UNL     1     -28.351  -9.775  12.064  0.00  0.00    +0.000 C 
ATOM     11  H   UNL     1     -27.679 -10.208  12.815  0.00  0.00    +0.000 HD
ATOM     12  H   UNL     1     -27.771  -9.657  11.140  0.00  0.00    +0.000 HD
BRANCH  10  13
ATOM     13  C   UNL     1     -29.502 -10.735  11.813  0.00  0.00    +0.000 C 
ATOM     14  H   UNL     1     -29.875 -11.155  12.753  0.00  0.00    +0.000 HD
ATOM     15  H   UNL     1     -29.188 -11.563  11.168  0.00  0.00    +0.000 HD
ATOM     16  H   UNL     1     -30.329 -10.215  11.320  0.00  0.00    +0.000 HD
ENDBRANCH  10  13
ENDBRANCH   7  10
ENDBRANCH   4   7
ENDBRANCH   1   4
BRANCH   1  17
ATOM     17  C   UNL     1     -28.431  -5.696  12.090  0.00  0.00    +0.000 C 
ATOM     18  H   UNL     1     -28.492  -5.307  13.114  0.00  0.00    +0.000 HD
ATOM     19  H   UNL     1     -27.705  -6.519  12.112  0.00  0.00    +0.000 HD
BRANCH  17  20
ATOM     20  C   UNL     1     -27.923  -4.594  11.161  0.00  0.00    +0.000 C 
ATOM     21  H   UNL     1     -27.541  -5.045  10.238  0.00  0.00    +0.000 HD
ATOM     22  H   UNL     1     -28.750  -3.920  10.908  0.00  0.00    +0.000 HD
BRANCH  20  24
ATOM     23  O   UNL     1     -25.617  -3.921  11.546  0.00  0.00    +0.000 OA
ATOM     24  C   UNL     1     -26.811  -3.767  11.768  0.00  0.00    +0.000 C 
BRANCH  24  25
ATOM     25  O   UNL     1     -27.359  -2.810  12.571  0.00  0.00    +0.000 OA
BRANCH  25  26
ATOM     26  C   UNL     1     -27.055  -2.927  13.965  0.00  0.00    +0.000 C 
ATOM     27  H   UNL     1     -27.834  -3.536  14.433  0.00  0.00    +0.000 HD
ATOM     28  H   UNL     1     -27.052  -1.939  14.436  0.00  0.00    +0.000 HD
ATOM     29  H   UNL     1     -26.090  -3.424  14.102  0.00  0.00    +0.000 HD
ENDBRANCH  25  26
ENDBRANCH  24  25
ENDBRANCH  20  24
ENDBRANCH  17  20
ENDBRANCH   1  17
TORSDOF 9
ENDMDL
MODEL 6
REMARK VINA RESULT:    -3.492     19.126     20.308
REMARK INTER + INTRA:          -5.541
REMARK INTER:                  -5.133
REMARK INTRA:                  -0.407
REMARK UNBOUND:                -0.416
REMARK  Name = 8091
REMARK  9 active torsions:
REMARK  status: ('A' for Active; 'I' for Inactive)
REMARK    1  A    between atoms: O_1  and  C_10
REMARK    2  A    between atoms: O_1  and  C_11
REMARK    3  A    between atoms: C_3  and  C_4
REMARK    4  A    between atoms: C_3  and  C_5
REMARK    5  A    between atoms: C_4  and  C_6
REMARK    6  A    between atoms: C_5  and  C_7
REMARK    7  A    between atoms: C_6  and  C_8
REMARK    8  A    between atoms: C_7  and  C_9
REMARK    9  A    between atoms: C_8  and  C_10
REMARK                            x       y       z     vdW  Elec       q    Type
REMARK                         _______ _______ _______ _____ _____    ______ ____
ROOT
ATOM      1  C   UNL     1     -17.106  -9.908  -0.426  0.00  0.00    +0.000 C 
ATOM      2  H   UNL     1     -17.976 -10.190   0.179  0.00  0.00    +0.000 HD
ATOM      3  H   UNL     1     -16.635 -10.838  -0.769  0.00  0.00    +0.000 HD
ENDROOT
BRANCH   1   4
ATOM      4  C   UNL     1     -17.562  -9.088  -1.634  0.00  0.00    +0.000 C 
ATOM      5  H   UNL     1     -17.625  -8.028  -1.358  0.00  0.00    +0.000 HD
ATOM      6  H   UNL     1     -16.816  -9.170  -2.434  0.00  0.00    +0.000 HD
BRANCH   4   7
ATOM      7  C   UNL     1     -18.920  -9.567  -2.151  0.00  0.00    +0.000 C 
ATOM      8  H   UNL     1     -18.785 -10.102  -3.098  0.00  0.00    +0.000 HD
ATOM      9  H   UNL     1     -19.561  -8.701  -2.357  0.00  0.00    +0.000 HD
BRANCH   7  10
ATOM     10  C   UNL     1     -19.608 -10.482  -1.138  0.00  0.00    +0.000 C 
ATOM     11  H   UNL     1     -19.521 -10.057  -0.131  0.00  0.00    +0.000 HD
ATOM     12  H   UNL     1     -19.111 -11.459  -1.121  0.00  0.00    +0.000 HD
BRANCH  10  13
ATOM     13  C   UNL     1     -21.079 -10.674  -1.470  0.00  0.00    +0.000 C 
ATOM     14  H   UNL     1     -21.710 -10.039  -0.840  0.00  0.00    +0.000 HD
ATOM     15  H   UNL     1     -21.382 -11.716  -1.320  0.00  0.00    +0.000 HD
ATOM     16  H   UNL     1     -21.269 -10.413  -2.516  0.00  0.00    +0.000 HD
ENDBRANCH  10  13
ENDBRANCH   7  10
ENDBRANCH   4   7
ENDBRANCH   1   4
BRANCH   1  17
ATOM     17  C   UNL     1     -16.113  -9.123   0.436  0.00  0.00    +0.000 C 
ATOM     18  H   UNL     1     -15.218  -9.732   0.618  0.00  0.00    +0.000 HD
ATOM     19  H   UNL     1     -15.778  -8.235  -0.114  0.00  0.00    +0.000 HD
BRANCH  17  20
ATOM     20  C   UNL     1     -16.712  -8.696   1.776  0.00  0.00    +0.000 C 
ATOM     21  H   UNL     1     -16.030  -7.997   2.273  0.00  0.00    +0.000 HD
ATOM     22  H   UNL     1     -17.670  -8.192   1.603  0.00  0.00    +0.000 HD
BRANCH  20  24
ATOM     23  O   UNL     1     -16.081 -10.547   3.223  0.00  0.00    +0.000 OA
ATOM     24  C   UNL     1     -16.955  -9.855   2.717  0.00  0.00    +0.000 C 
BRANCH  24  25
ATOM     25  O   UNL     1     -18.297  -9.979   2.931  0.00  0.00    +0.000 OA
BRANCH  25  26
ATOM     26  C   UNL     1     -18.859 -11.253   2.598  0.00  0.00    +0.000 C 
ATOM     27  H   UNL     1     -19.587 -11.516   3.371  0.00  0.00    +0.000 HD
ATOM     28  H   UNL     1     -18.078 -12.018   2.578  0.00  0.00    +0.000 HD
ATOM     29  H   UNL     1     -19.374 -11.199   1.635  0.00  0.00    +0.000 HD
ENDBRANCH  25  26
ENDBRANCH  24  25
ENDBRANCH  20  24
ENDBRANCH  17  20
ENDBRANCH   1  17
TORSDOF 9
ENDMDL
MODEL 7
REMARK VINA RESULT:    -3.490     34.758     35.645
REMARK INTER + INTRA:          -5.538
REMARK INTER:                  -5.230
REMARK INTRA:                  -0.309
REMARK UNBOUND:                -0.416
REMARK  Name = 8091
REMARK  9 active torsions:
REMARK  status: ('A' for Active; 'I' for Inactive)
REMARK    1  A    between atoms: O_1  and  C_10
REMARK    2  A    between atoms: O_1  and  C_11
REMARK    3  A    between atoms: C_3  and  C_4
REMARK    4  A    between atoms: C_3  and  C_5
REMARK    5  A    between atoms: C_4  and  C_6
REMARK    6  A    between atoms: C_5  and  C_7
REMARK    7  A    between atoms: C_6  and  C_8
REMARK    8  A    between atoms: C_7  and  C_9
REMARK    9  A    between atoms: C_8  and  C_10
REMARK                            x       y       z     vdW  Elec       q    Type
REMARK                         _______ _______ _______ _____ _____    ______ ____
ROOT
ATOM      1  C   UNL     1     -27.907  -4.618  11.167  0.00  0.00    +0.000 C 
ATOM      2  H   UNL     1     -27.648  -5.252  10.311  0.00  0.00    +0.000 HD
ATOM      3  H   UNL     1     -28.632  -3.875  10.812  0.00  0.00    +0.000 HD
ENDROOT
BRANCH   1   4
ATOM      4  C   UNL     1     -28.543  -5.472  12.266  0.00  0.00    +0.000 C 
ATOM      5  H   UNL     1     -27.767  -5.826  12.955  0.00  0.00    +0.000 HD
ATOM      6  H   UNL     1     -29.238  -4.856  12.851  0.00  0.00    +0.000 HD
BRANCH   4   7
ATOM      7  C   UNL     1     -29.293  -6.668  11.677  0.00  0.00    +0.000 C 
ATOM      8  H   UNL     1     -29.020  -6.791  10.623  0.00  0.00    +0.000 HD
ATOM      9  H   UNL     1     -30.373  -6.478  11.712  0.00  0.00    +0.000 HD
BRANCH   7  10
ATOM     10  C   UNL     1     -28.977  -7.953  12.442  0.00  0.00    +0.000 C 
ATOM     11  H   UNL     1     -28.017  -8.361  12.107  0.00  0.00    +0.000 HD
ATOM     12  H   UNL     1     -29.742  -8.710  12.230  0.00  0.00    +0.000 HD
BRANCH  10  13
ATOM     13  C   UNL     1     -28.918  -7.709  13.941  0.00  0.00    +0.000 C 
ATOM     14  H   UNL     1     -27.890  -7.524  14.269  0.00  0.00    +0.000 HD
ATOM     15  H   UNL     1     -29.304  -8.572  14.494  0.00  0.00    +0.000 HD
ATOM     16  H   UNL     1     -29.523  -6.837  14.208  0.00  0.00    +0.000 HD
ENDBRANCH  10  13
ENDBRANCH   7  10
ENDBRANCH   4   7
ENDBRANCH   1   4
BRANCH   1  17
ATOM     17  C   UNL     1     -26.652  -3.902  11.677  0.00  0.00    +0.000 C 
ATOM     18  H   UNL     1     -25.770  -4.276  11.142  0.00  0.00    +0.000 HD
ATOM     19  H   UNL     1     -26.726  -2.832  11.445  0.00  0.00    +0.000 HD
BRANCH  17  20
ATOM     20  C   UNL     1     -26.446  -4.084  13.180  0.00  0.00    +0.000 C 
ATOM     21  H   UNL     1     -27.271  -3.607  13.720  0.00  0.00    +0.000 HD
ATOM     22  H   UNL     1     -26.439  -5.154  13.421  0.00  0.00    +0.000 HD
BRANCH  20  24
ATOM     23  O   UNL     1     -24.418  -2.748  13.033  0.00  0.00    +0.000 OA
ATOM     24  C   UNL     1     -25.152  -3.482  13.682  0.00  0.00    +0.000 C 
BRANCH  24  25
ATOM     25  O   UNL     1     -24.959  -3.863  14.978  0.00  0.00    +0.000 OA
BRANCH  25  26
ATOM     26  C   UNL     1     -24.793  -2.795  15.917  0.00  0.00    +0.000 C 
ATOM     27  H   UNL     1     -23.837  -2.938  16.429  0.00  0.00    +0.000 HD
ATOM     28  H   UNL     1     -25.596  -2.816  16.660  0.00  0.00    +0.000 HD
ATOM     29  H   UNL     1     -24.773  -1.833  15.397  0.00  0.00    +0.000 HD
ENDBRANCH  25  26
ENDBRANCH  24  25
ENDBRANCH  20  24
ENDBRANCH  17  20
ENDBRANCH   1  17
TORSDOF 9
ENDMDL
MODEL 8
REMARK VINA RESULT:    -3.478     25.535     28.770
REMARK INTER + INTRA:          -5.521
REMARK INTER:                  -5.231
REMARK INTRA:                  -0.289
REMARK UNBOUND:                -0.416
REMARK  Name = 8091
REMARK  9 active torsions:
REMARK  status: ('A' for Active; 'I' for Inactive)
REMARK    1  A    between atoms: O_1  and  C_10
REMARK    2  A    between atoms: O_1  and  C_11
REMARK    3  A    between atoms: C_3  and  C_4
REMARK    4  A    between atoms: C_3  and  C_5
REMARK    5  A    between atoms: C_4  and  C_6
REMARK    6  A    between atoms: C_5  and  C_7
REMARK    7  A    between atoms: C_6  and  C_8
REMARK    8  A    between atoms: C_7  and  C_9
REMARK    9  A    between atoms: C_8  and  C_10
REMARK                            x       y       z     vdW  Elec       q    Type
REMARK                         _______ _______ _______ _____ _____    ______ ____
ROOT
ATOM      1  C   UNL     1       2.563  -3.727  16.757  0.00  0.00    +0.000 C 
ATOM      2  H   UNL     1       2.748  -2.763  17.245  0.00  0.00    +0.000 HD
ATOM      3  H   UNL     1       1.487  -3.781  16.543  0.00  0.00    +0.000 HD
ENDROOT
BRANCH   1   4
ATOM      4  C   UNL     1       3.350  -3.801  15.447  0.00  0.00    +0.000 C 
ATOM      5  H   UNL     1       2.666  -3.684  14.598  0.00  0.00    +0.000 HD
ATOM      6  H   UNL     1       4.066  -2.971  15.403  0.00  0.00    +0.000 HD
BRANCH   4   7
ATOM      7  C   UNL     1       4.100  -5.129  15.325  0.00  0.00    +0.000 C 
ATOM      8  H   UNL     1       3.584  -5.899  15.910  0.00  0.00    +0.000 HD
ATOM      9  H   UNL     1       5.107  -5.023  15.746  0.00  0.00    +0.000 HD
BRANCH   7  10
ATOM     10  C   UNL     1       4.203  -5.577  13.866  0.00  0.00    +0.000 C 
ATOM     11  H   UNL     1       5.201  -5.986  13.670  0.00  0.00    +0.000 HD
ATOM     12  H   UNL     1       4.071  -4.714  13.202  0.00  0.00    +0.000 HD
BRANCH  10  13
ATOM     13  C   UNL     1       3.160  -6.630  13.531  0.00  0.00    +0.000 C 
ATOM     14  H   UNL     1       3.600  -7.632  13.527  0.00  0.00    +0.000 HD
ATOM     15  H   UNL     1       2.718  -6.445  12.546  0.00  0.00    +0.000 HD
ATOM     16  H   UNL     1       2.354  -6.615  14.272  0.00  0.00    +0.000 HD
ENDBRANCH  10  13
ENDBRANCH   7  10
ENDBRANCH   4   7
ENDBRANCH   1   4
BRANCH   1  17
ATOM     17  C   UNL     1       2.951  -4.867  17.704  0.00  0.00    +0.000 C 
ATOM     18  H   UNL     1       2.220  -5.681  17.622  0.00  0.00    +0.000 HD
ATOM     19  H   UNL     1       3.917  -5.283  17.393  0.00  0.00    +0.000 HD
BRANCH  17  20
ATOM     20  C   UNL     1       3.038  -4.411  19.160  0.00  0.00    +0.000 C 
ATOM     21  H   UNL     1       4.081  -4.188  19.409  0.00  0.00    +0.000 HD
ATOM     22  H   UNL     1       2.441  -3.502  19.295  0.00  0.00    +0.000 HD
BRANCH  20  24
ATOM     23  O   UNL     1       2.002  -6.507  19.836  0.00  0.00    +0.000 OA
ATOM     24  C   UNL     1       2.539  -5.450  20.141  0.00  0.00    +0.000 C 
BRANCH  24  25
ATOM     25  O   UNL     1       2.815  -5.030  21.410  0.00  0.00    +0.000 OA
BRANCH  25  26
ATOM     26  C   UNL     1       4.101  -5.405  21.917  0.00  0.00    +0.000 C 
ATOM     27  H   UNL     1       3.992  -6.355  22.449  0.00  0.00    +0.000 HD
ATOM     28  H   UNL     1       4.465  -4.649  22.620  0.00  0.00    +0.000 HD
ATOM     29  H   UNL     1       4.808  -5.541  21.094  0.00  0.00    +0.000 HD
ENDBRANCH  25  26
ENDBRANCH  24  25
ENDBRANCH  20  24
ENDBRANCH  17  20
ENDBRANCH   1  17
TORSDOF 9
ENDMDL
MODEL 9
REMARK VINA RESULT:    -3.393     26.775     28.281
REMARK INTER + INTRA:          -5.396
REMARK INTER:                  -4.980
REMARK INTRA:                  -0.416
REMARK UNBOUND:                -0.416
REMARK  Name = 8091
REMARK  9 active torsions:
REMARK  status: ('A' for Active; 'I' for Inactive)
REMARK    1  A    between atoms: O_1  and  C_10
REMARK    2  A    between atoms: O_1  and  C_11
REMARK    3  A    between atoms: C_3  and  C_4
REMARK    4  A    between atoms: C_3  and  C_5
REMARK    5  A    between atoms: C_4  and  C_6
REMARK    6  A    between atoms: C_5  and  C_7
REMARK    7  A    between atoms: C_6  and  C_8
REMARK    8  A    between atoms: C_7  and  C_9
REMARK    9  A    between atoms: C_8  and  C_10
REMARK                            x       y       z     vdW  Elec       q    Type
REMARK                         _______ _______ _______ _____ _____    ______ ____
ROOT
ATOM      1  C   UNL     1       5.514  14.797 -11.009  0.00  0.00    +0.000 C 
ATOM      2  H   UNL     1       5.926  15.808 -11.110  0.00  0.00    +0.000 HD
ATOM      3  H   UNL     1       6.363  14.109 -10.912  0.00  0.00    +0.000 HD
ENDROOT
BRANCH   1   4
ATOM      4  C   UNL     1       4.643  14.719  -9.754  0.00  0.00    +0.000 C 
ATOM      5  H   UNL     1       5.282  14.672  -8.864  0.00  0.00    +0.000 HD
ATOM      6  H   UNL     1       4.038  15.630  -9.671  0.00  0.00    +0.000 HD
BRANCH   4   7
ATOM      7  C   UNL     1       3.723  13.497  -9.791  0.00  0.00    +0.000 C 
ATOM      8  H   UNL     1       4.130  12.710  -9.146  0.00  0.00    +0.000 HD
ATOM      9  H   UNL     1       3.688  13.095 -10.811  0.00  0.00    +0.000 HD
BRANCH   7  10
ATOM     10  C   UNL     1       2.308  13.853  -9.336  0.00  0.00    +0.000 C 
ATOM     11  H   UNL     1       1.821  12.971  -8.904  0.00  0.00    +0.000 HD
ATOM     12  H   UNL     1       1.706  14.164 -10.199  0.00  0.00    +0.000 HD
BRANCH  10  13
ATOM     13  C   UNL     1       2.318  14.971  -8.306  0.00  0.00    +0.000 C 
ATOM     14  H   UNL     1       1.732  15.829  -8.651  0.00  0.00    +0.000 HD
ATOM     15  H   UNL     1       3.340  15.311  -8.107  0.00  0.00    +0.000 HD
ATOM     16  H   UNL     1       1.887  14.621  -7.362  0.00  0.00    +0.000 HD
ENDBRANCH  10  13
ENDBRANCH   7  10
ENDBRANCH   4   7
ENDBRANCH   1   4
BRANCH   1  17
ATOM     17  C   UNL     1       4.712  14.441 -12.265  0.00  0.00    +0.000 C 
ATOM     18  H   UNL     1       3.708  14.102 -11.979  0.00  0.00    +0.000 HD
ATOM     19  H   UNL     1       4.574  15.342 -12.875  0.00  0.00    +0.000 HD
BRANCH  17  20
ATOM     20  C   UNL     1       5.390  13.357 -13.103  0.00  0.00    +0.000 C 
ATOM     21  H   UNL     1       5.707  13.784 -14.061  0.00  0.00    +0.000 HD
ATOM     22  H   UNL     1       6.275  12.986 -12.572  0.00  0.00    +0.000 HD
BRANCH  20  24
ATOM     23  O   UNL     1       4.080  11.379 -12.562  0.00  0.00    +0.000 OA
ATOM     24  C   UNL     1       4.489  12.178 -13.395  0.00  0.00    +0.000 C 
BRANCH  24  25
ATOM     25  O   UNL     1       4.184  12.172 -14.726  0.00  0.00    +0.000 OA
BRANCH  25  26
ATOM     26  C   UNL     1       5.264  12.498 -15.607  0.00  0.00    +0.000 C 
ATOM     27  H   UNL     1       5.383  13.585 -15.610  0.00  0.00    +0.000 HD
ATOM     28  H   UNL     1       5.035  12.167 -16.624  0.00  0.00    +0.000 HD
ATOM     29  H   UNL     1       6.193  12.044 -15.252  0.00  0.00    +0.000 HD
ENDBRANCH  25  26
ENDBRANCH  24  25
ENDBRANCH  20  24
ENDBRANCH  17  20
ENDBRANCH   1  17
TORSDOF 9
ENDMDL
MODEL 10
REMARK VINA RESULT:    -3.345     19.384     21.139
REMARK INTER + INTRA:          -5.326
REMARK INTER:                  -4.811
REMARK INTRA:                  -0.515
REMARK UNBOUND:                -0.416
REMARK  Name = 8091
REMARK  9 active torsions:
REMARK  status: ('A' for Active; 'I' for Inactive)
REMARK    1  A    between atoms: O_1  and  C_10
REMARK    2  A    between atoms: O_1  and  C_11
REMARK    3  A    between atoms: C_3  and  C_4
REMARK    4  A    between atoms: C_3  and  C_5
REMARK    5  A    between atoms: C_4  and  C_6
REMARK    6  A    between atoms: C_5  and  C_7
REMARK    7  A    between atoms: C_6  and  C_8
REMARK    8  A    between atoms: C_7  and  C_9
REMARK    9  A    between atoms: C_8  and  C_10
REMARK                            x       y       z     vdW  Elec       q    Type
REMARK                         _______ _______ _______ _____ _____    ______ ____
ROOT
ATOM      1  C   UNL     1       8.879  -2.751   3.619  0.00  0.00    +0.000 C 
ATOM      2  H   UNL     1       8.302  -3.675   3.492  0.00  0.00    +0.000 HD
ATOM      3  H   UNL     1       9.603  -2.930   4.424  0.00  0.00    +0.000 HD
ENDROOT
BRANCH   1   4
ATOM      4  C   UNL     1       9.623  -2.425   2.323  0.00  0.00    +0.000 C 
ATOM      5  H   UNL     1      10.512  -3.061   2.237  0.00  0.00    +0.000 HD
ATOM      6  H   UNL     1       8.978  -2.651   1.465  0.00  0.00    +0.000 HD
BRANCH   4   7
ATOM      7  C   UNL     1      10.038  -0.953   2.276  0.00  0.00    +0.000 C 
ATOM      8  H   UNL     1      11.130  -0.876   2.335  0.00  0.00    +0.000 HD
ATOM      9  H   UNL     1       9.629  -0.428   3.148  0.00  0.00    +0.000 HD
BRANCH   7  10
ATOM     10  C   UNL     1       9.544  -0.277   0.997  0.00  0.00    +0.000 C 
ATOM     11  H   UNL     1      10.395   0.120   0.431  0.00  0.00    +0.000 HD
ATOM     12  H   UNL     1       8.900   0.574   1.251  0.00  0.00    +0.000 HD
BRANCH  10  13
ATOM     13  C   UNL     1       8.771  -1.245   0.117  0.00  0.00    +0.000 C 
ATOM     14  H   UNL     1       8.655  -0.849  -0.897  0.00  0.00    +0.000 HD
ATOM     15  H   UNL     1       7.773  -1.435   0.527  0.00  0.00    +0.000 HD
ATOM     16  H   UNL     1       9.298  -2.202   0.051  0.00  0.00    +0.000 HD
ENDBRANCH  10  13
ENDBRANCH   7  10
ENDBRANCH   4   7
ENDBRANCH   1   4
BRANCH   1  17
ATOM     17  C   UNL     1       7.941  -1.610   4.024  0.00  0.00    +0.000 C 
ATOM     18  H   UNL     1       8.240  -0.686   3.513  0.00  0.00    +0.000 HD
ATOM     19  H   UNL     1       6.924  -1.839   3.683  0.00  0.00    +0.000 HD
BRANCH  17  20
ATOM     20  C   UNL     1       7.930  -1.371   5.534  0.00  0.00    +0.000 C 
ATOM     21  H   UNL     1       7.219  -0.571   5.770  0.00  0.00    +0.000 HD
ATOM     22  H   UNL     1       7.614  -2.287   6.046  0.00  0.00    +0.000 HD
BRANCH  20  24
ATOM     23  O   UNL     1       9.961  -1.640   6.846  0.00  0.00    +0.000 OA
ATOM     24  C   UNL     1       9.280  -0.967   6.083  0.00  0.00    +0.000 C 
BRANCH  24  25
ATOM     25  O   UNL     1       9.624   0.249   5.566  0.00  0.00    +0.000 OA
BRANCH  25  26
ATOM     26  C   UNL     1      10.341   1.115   6.452  0.00  0.00    +0.000 C 
ATOM     27  H   UNL     1       9.616   1.750   6.969  0.00  0.00    +0.000 HD
ATOM     28  H   UNL     1      11.025   1.755   5.885  0.00  0.00    +0.000 HD
ATOM     29  H   UNL     1      10.888   0.528   7.196  0.00  0.00    +0.000 HD
ENDBRANCH  25  26
ENDBRANCH  24  25
ENDBRANCH  20  24
ENDBRANCH  17  20
ENDBRANCH   1  17
TORSDOF 9
ENDMDL
