MODEL 1
REMARK VINA RESULT:    -4.842      0.000      0.000
REMARK INTER + INTRA:          -7.712
REMARK INTER:                  -7.241
REMARK INTRA:                  -0.472
REMARK UNBOUND:                -0.606
REMARK  Name = 8158
REMARK  9 active torsions:
REMARK  status: ('A' for Active; 'I' for Inactive)
REMARK    1  A    between atoms: O_1  and  C_11
REMARK    2  A    between atoms: C_3  and  C_4
REMARK    3  A    between atoms: C_3  and  C_5
REMARK    4  A    between atoms: C_4  and  C_6
REMARK    5  A    between atoms: C_5  and  C_7
REMARK    6  A    between atoms: C_6  and  C_8
REMARK    7  A    between atoms: C_7  and  C_9
REMARK    8  A    between atoms: C_8  and  C_10
REMARK    9  A    between atoms: C_9  and  C_11
REMARK                            x       y       z     vdW  Elec       q    Type
REMARK                         _______ _______ _______ _____ _____    ______ ____
ROOT
ATOM      1  C   UNL     1       6.926  -2.124  -1.851  0.00  0.00    +0.000 C 
ATOM      2  H   UNL     1       6.421  -1.943  -0.894  0.00  0.00    +0.000 HD
ATOM      3  H   UNL     1       7.092  -3.206  -1.922  0.00  0.00    +0.000 HD
ENDROOT
BRANCH   1   4
ATOM      4  C   UNL     1       6.006  -1.682  -2.995  0.00  0.00    +0.000 C 
ATOM      5  H   UNL     1       6.579  -1.669  -3.931  0.00  0.00    +0.000 HD
ATOM      6  H   UNL     1       5.209  -2.425  -3.122  0.00  0.00    +0.000 HD
BRANCH   4   7
ATOM      7  C   UNL     1       5.375  -0.305  -2.771  0.00  0.00    +0.000 C 
ATOM      8  H   UNL     1       4.323  -0.430  -2.490  0.00  0.00    +0.000 HD
ATOM      9  H   UNL     1       5.873   0.185  -1.926  0.00  0.00    +0.000 HD
BRANCH   7  10
ATOM     10  C   UNL     1       5.461   0.605  -4.000  0.00  0.00    +0.000 C 
ATOM     11  H   UNL     1       6.092   1.471  -3.767  0.00  0.00    +0.000 HD
ATOM     12  H   UNL     1       4.463   0.994  -4.234  0.00  0.00    +0.000 HD
BRANCH  10  13
ATOM     13  C   UNL     1       6.017  -0.089  -5.235  0.00  0.00    +0.000 C 
ATOM     14  H   UNL     1       5.218  -0.578  -5.800  0.00  0.00    +0.000 HD
ATOM     15  H   UNL     1       6.747  -0.852  -4.945  0.00  0.00    +0.000 HD
ATOM     16  H   UNL     1       6.516   0.628  -5.894  0.00  0.00    +0.000 HD
ENDBRANCH  10  13
ENDBRANCH   7  10
ENDBRANCH   4   7
ENDBRANCH   1   4
BRANCH   1  17
ATOM     17  C   UNL     1       8.280  -1.409  -1.847  0.00  0.00    +0.000 C 
ATOM     18  H   UNL     1       8.129  -0.344  -2.062  0.00  0.00    +0.000 HD
ATOM     19  H   UNL     1       8.717  -1.471  -0.843  0.00  0.00    +0.000 HD
BRANCH  17  20
ATOM     20  C   UNL     1       9.277  -1.986  -2.861  0.00  0.00    +0.000 C 
ATOM     21  H   UNL     1       8.722  -2.555  -3.619  0.00  0.00    +0.000 HD
ATOM     22  H   UNL     1       9.917  -2.714  -2.346  0.00  0.00    +0.000 HD
BRANCH  20  23
ATOM     23  C   UNL     1      10.160  -0.956  -3.560  0.00  0.00    +0.000 C 
ATOM     24  H   UNL     1      10.657  -0.329  -2.812  0.00  0.00    +0.000 HD
ATOM     25  H   UNL     1       9.542  -0.319  -4.202  0.00  0.00    +0.000 HD
BRANCH  23  27
ATOM     26  O   UNL     1      12.396  -1.231  -4.432  0.00  0.00    +0.000 OA
ATOM     27  C   UNL     1      11.226  -1.592  -4.416  0.00  0.00    +0.000 C 
BRANCH  27  28
ATOM     28  O   UNL     1      10.748  -2.611  -5.175  0.00  0.00    +0.000 OA
ATOM     29  H   UNL     1      11.410  -2.923  -5.827  0.00  0.00    +0.000 HD
ENDBRANCH  27  28
ENDBRANCH  23  27
ENDBRANCH  20  23
ENDBRANCH  17  20
ENDBRANCH   1  17
TORSDOF 9
ENDMDL
MODEL 2
REMARK VINA RESULT:    -4.547      3.355      4.664
REMARK INTER + INTRA:          -7.279
REMARK INTER:                  -6.549
REMARK INTRA:                  -0.730
REMARK UNBOUND:                -0.606
REMARK  Name = 8158
REMARK  9 active torsions:
REMARK  status: ('A' for Active; 'I' for Inactive)
REMARK    1  A    between atoms: O_1  and  C_11
REMARK    2  A    between atoms: C_3  and  C_4
REMARK    3  A    between atoms: C_3  and  C_5
REMARK    4  A    between atoms: C_4  and  C_6
REMARK    5  A    between atoms: C_5  and  C_7
REMARK    6  A    between atoms: C_6  and  C_8
REMARK    7  A    between atoms: C_7  and  C_9
REMARK    8  A    between atoms: C_8  and  C_10
REMARK    9  A    between atoms: C_9  and  C_11
REMARK                            x       y       z     vdW  Elec       q    Type
REMARK                         _______ _______ _______ _____ _____    ______ ____
ROOT
ATOM      1  C   UNL     1       5.682  -0.580  -3.265  0.00  0.00    +0.000 C 
ATOM      2  H   UNL     1       4.668  -0.753  -3.647  0.00  0.00    +0.000 HD
ATOM      3  H   UNL     1       5.688  -0.916  -2.220  0.00  0.00    +0.000 HD
ENDROOT
BRANCH   1   4
ATOM      4  C   UNL     1       6.673  -1.429  -4.070  0.00  0.00    +0.000 C 
ATOM      5  H   UNL     1       7.194  -2.113  -3.388  0.00  0.00    +0.000 HD
ATOM      6  H   UNL     1       6.116  -2.054  -4.780  0.00  0.00    +0.000 HD
BRANCH   4   7
ATOM      7  C   UNL     1       7.704  -0.597  -4.836  0.00  0.00    +0.000 C 
ATOM      8  H   UNL     1       7.511  -0.684  -5.913  0.00  0.00    +0.000 HD
ATOM      9  H   UNL     1       7.578   0.460  -4.576  0.00  0.00    +0.000 HD
BRANCH   7  10
ATOM     10  C   UNL     1       9.150  -1.016  -4.551  0.00  0.00    +0.000 C 
ATOM     11  H   UNL     1       9.787  -0.123  -4.527  0.00  0.00    +0.000 HD
ATOM     12  H   UNL     1       9.514  -1.644  -5.372  0.00  0.00    +0.000 HD
BRANCH  10  13
ATOM     13  C   UNL     1       9.317  -1.774  -3.243  0.00  0.00    +0.000 C 
ATOM     14  H   UNL     1       8.674  -1.355  -2.464  0.00  0.00    +0.000 HD
ATOM     15  H   UNL     1      10.355  -1.715  -2.900  0.00  0.00    +0.000 HD
ATOM     16  H   UNL     1       9.060  -2.830  -3.369  0.00  0.00    +0.000 HD
ENDBRANCH  10  13
ENDBRANCH   7  10
ENDBRANCH   4   7
ENDBRANCH   1   4
BRANCH   1  17
ATOM     17  C   UNL     1       5.988   0.919  -3.309  0.00  0.00    +0.000 C 
ATOM     18  H   UNL     1       6.802   1.102  -4.021  0.00  0.00    +0.000 HD
ATOM     19  H   UNL     1       5.109   1.454  -3.690  0.00  0.00    +0.000 HD
BRANCH  17  20
ATOM     20  C   UNL     1       6.376   1.505  -1.945  0.00  0.00    +0.000 C 
ATOM     21  H   UNL     1       5.520   1.408  -1.263  0.00  0.00    +0.000 HD
ATOM     22  H   UNL     1       6.547   2.583  -2.064  0.00  0.00    +0.000 HD
BRANCH  20  23
ATOM     23  C   UNL     1       7.605   0.876  -1.295  0.00  0.00    +0.000 C 
ATOM     24  H   UNL     1       8.285   1.664  -0.955  0.00  0.00    +0.000 HD
ATOM     25  H   UNL     1       8.126   0.250  -2.027  0.00  0.00    +0.000 HD
BRANCH  23  27
ATOM     26  O   UNL     1       6.343   0.266   0.672  0.00  0.00    +0.000 OA
ATOM     27  C   UNL     1       7.256   0.018  -0.105  0.00  0.00    +0.000 C 
BRANCH  27  28
ATOM     28  O   UNL     1       8.069  -1.061   0.017  0.00  0.00    +0.000 OA
ATOM     29  H   UNL     1       8.351  -1.204   0.946  0.00  0.00    +0.000 HD
ENDBRANCH  27  28
ENDBRANCH  23  27
ENDBRANCH  20  23
ENDBRANCH  17  20
ENDBRANCH   1  17
TORSDOF 9
ENDMDL
MODEL 3
REMARK VINA RESULT:    -4.425      2.202      2.821
REMARK INTER + INTRA:          -7.101
REMARK INTER:                  -6.662
REMARK INTRA:                  -0.439
REMARK UNBOUND:                -0.606
REMARK  Name = 8158
REMARK  9 active torsions:
REMARK  status: ('A' for Active; 'I' for Inactive)
REMARK    1  A    between atoms: O_1  and  C_11
REMARK    2  A    between atoms: C_3  and  C_4
REMARK    3  A    between atoms: C_3  and  C_5
REMARK    4  A    between atoms: C_4  and  C_6
REMARK    5  A    between atoms: C_5  and  C_7
REMARK    6  A    between atoms: C_6  and  C_8
REMARK    7  A    between atoms: C_7  and  C_9
REMARK    8  A    between atoms: C_8  and  C_10
REMARK    9  A    between atoms: C_9  and  C_11
REMARK                            x       y       z     vdW  Elec       q    Type
REMARK                         _______ _______ _______ _____ _____    ______ ____
ROOT
ATOM      1  C   UNL     1       6.538   0.933  -1.098  0.00  0.00    +0.000 C 
ATOM      2  H   UNL     1       5.654   1.473  -0.737  0.00  0.00    +0.000 HD
ATOM      3  H   UNL     1       6.361  -0.132  -0.900  0.00  0.00    +0.000 HD
ENDROOT
BRANCH   1   4
ATOM      4  C   UNL     1       6.674   1.145  -2.610  0.00  0.00    +0.000 C 
ATOM      5  H   UNL     1       7.185   2.099  -2.793  0.00  0.00    +0.000 HD
ATOM      6  H   UNL     1       7.315   0.358  -3.027  0.00  0.00    +0.000 HD
BRANCH   4   7
ATOM      7  C   UNL     1       5.333   1.142  -3.348  0.00  0.00    +0.000 C 
ATOM      8  H   UNL     1       4.557   0.735  -2.687  0.00  0.00    +0.000 HD
ATOM      9  H   UNL     1       5.045   2.176  -3.575  0.00  0.00    +0.000 HD
BRANCH   7  10
ATOM     10  C   UNL     1       5.360   0.332  -4.647  0.00  0.00    +0.000 C 
ATOM     11  H   UNL     1       5.222   1.009  -5.499  0.00  0.00    +0.000 HD
ATOM     12  H   UNL     1       4.516  -0.366  -4.657  0.00  0.00    +0.000 HD
BRANCH  10  13
ATOM     13  C   UNL     1       6.647  -0.454  -4.848  0.00  0.00    +0.000 C 
ATOM     14  H   UNL     1       7.099  -0.714  -3.886  0.00  0.00    +0.000 HD
ATOM     15  H   UNL     1       7.370   0.140  -5.416  0.00  0.00    +0.000 HD
ATOM     16  H   UNL     1       6.457  -1.379  -5.400  0.00  0.00    +0.000 HD
ENDBRANCH  10  13
ENDBRANCH   7  10
ENDBRANCH   4   7
ENDBRANCH   1   4
BRANCH   1  17
ATOM     17  C   UNL     1       7.765   1.392  -0.306  0.00  0.00    +0.000 C 
ATOM     18  H   UNL     1       7.936   2.460  -0.488  0.00  0.00    +0.000 HD
ATOM     19  H   UNL     1       7.563   1.282   0.766  0.00  0.00    +0.000 HD
BRANCH  17  20
ATOM     20  C   UNL     1       9.043   0.616  -0.654  0.00  0.00    +0.000 C 
ATOM     21  H   UNL     1       9.835   0.905   0.050  0.00  0.00    +0.000 HD
ATOM     22  H   UNL     1       9.387   0.938  -1.645  0.00  0.00    +0.000 HD
BRANCH  20  23
ATOM     23  C   UNL     1       8.902  -0.904  -0.648  0.00  0.00    +0.000 C 
ATOM     24  H   UNL     1       7.880  -1.177  -0.364  0.00  0.00    +0.000 HD
ATOM     25  H   UNL     1       9.598  -1.332   0.081  0.00  0.00    +0.000 HD
BRANCH  23  27
ATOM     26  O   UNL     1       9.731  -0.921  -2.916  0.00  0.00    +0.000 OA
ATOM     27  C   UNL     1       9.190  -1.518  -1.994  0.00  0.00    +0.000 C 
BRANCH  27  28
ATOM     28  O   UNL     1       8.781  -2.809  -2.078  0.00  0.00    +0.000 OA
ATOM     29  H   UNL     1       9.534  -3.425  -2.200  0.00  0.00    +0.000 HD
ENDBRANCH  27  28
ENDBRANCH  23  27
ENDBRANCH  20  23
ENDBRANCH  17  20
ENDBRANCH   1  17
TORSDOF 9
ENDMDL
MODEL 4
REMARK VINA RESULT:    -4.424      2.927      3.734
REMARK INTER + INTRA:          -7.099
REMARK INTER:                  -6.695
REMARK INTRA:                  -0.404
REMARK UNBOUND:                -0.606
REMARK  Name = 8158
REMARK  9 active torsions:
REMARK  status: ('A' for Active; 'I' for Inactive)
REMARK    1  A    between atoms: O_1  and  C_11
REMARK    2  A    between atoms: C_3  and  C_4
REMARK    3  A    between atoms: C_3  and  C_5
REMARK    4  A    between atoms: C_4  and  C_6
REMARK    5  A    between atoms: C_5  and  C_7
REMARK    6  A    between atoms: C_6  and  C_8
REMARK    7  A    between atoms: C_7  and  C_9
REMARK    8  A    between atoms: C_8  and  C_10
REMARK    9  A    between atoms: C_9  and  C_11
REMARK                            x       y       z     vdW  Elec       q    Type
REMARK                         _______ _______ _______ _____ _____    ______ ____
ROOT
ATOM      1  C   UNL     1       6.779   0.965  -2.374  0.00  0.00    +0.000 C 
ATOM      2  H   UNL     1       6.181   1.800  -2.759  0.00  0.00    +0.000 HD
ATOM      3  H   UNL     1       7.751   1.012  -2.880  0.00  0.00    +0.000 HD
ENDROOT
BRANCH   1   4
ATOM      4  C   UNL     1       6.989   1.150  -0.867  0.00  0.00    +0.000 C 
ATOM      5  H   UNL     1       6.186   1.784  -0.469  0.00  0.00    +0.000 HD
ATOM      6  H   UNL     1       6.899   0.176  -0.369  0.00  0.00    +0.000 HD
BRANCH   4   7
ATOM      7  C   UNL     1       8.343   1.771  -0.513  0.00  0.00    +0.000 C 
ATOM      8  H   UNL     1       8.852   1.133   0.220  0.00  0.00    +0.000 HD
ATOM      9  H   UNL     1       8.975   1.790  -1.409  0.00  0.00    +0.000 HD
BRANCH   7  10
ATOM     10  C   UNL     1       8.228   3.190   0.052  0.00  0.00    +0.000 C 
ATOM     11  H   UNL     1       8.754   3.887  -0.612  0.00  0.00    +0.000 HD
ATOM     12  H   UNL     1       8.732   3.236   1.023  0.00  0.00    +0.000 HD
BRANCH  10  13
ATOM     13  C   UNL     1       6.792   3.663   0.223  0.00  0.00    +0.000 C 
ATOM     14  H   UNL     1       6.723   4.748   0.106  0.00  0.00    +0.000 HD
ATOM     15  H   UNL     1       6.422   3.401   1.219  0.00  0.00    +0.000 HD
ATOM     16  H   UNL     1       6.136   3.195  -0.517  0.00  0.00    +0.000 HD
ENDBRANCH  10  13
ENDBRANCH   7  10
ENDBRANCH   4   7
ENDBRANCH   1   4
BRANCH   1  17
ATOM     17  C   UNL     1       6.092  -0.355  -2.735  0.00  0.00    +0.000 C 
ATOM     18  H   UNL     1       5.827  -0.890  -1.815  0.00  0.00    +0.000 HD
ATOM     19  H   UNL     1       5.152  -0.139  -3.258  0.00  0.00    +0.000 HD
BRANCH  17  20
ATOM     20  C   UNL     1       6.952  -1.272  -3.615  0.00  0.00    +0.000 C 
ATOM     21  H   UNL     1       6.458  -1.393  -4.588  0.00  0.00    +0.000 HD
ATOM     22  H   UNL     1       6.974  -2.271  -3.160  0.00  0.00    +0.000 HD
BRANCH  20  23
ATOM     23  C   UNL     1       8.385  -0.798  -3.840  0.00  0.00    +0.000 C 
ATOM     24  H   UNL     1       8.556   0.131  -3.285  0.00  0.00    +0.000 HD
ATOM     25  H   UNL     1       8.544  -0.608  -4.907  0.00  0.00    +0.000 HD
BRANCH  23  27
ATOM     26  O   UNL     1      10.492  -1.974  -3.926  0.00  0.00    +0.000 OA
ATOM     27  C   UNL     1       9.408  -1.807  -3.384  0.00  0.00    +0.000 C 
BRANCH  27  28
ATOM     28  O   UNL     1       8.994  -2.520  -2.306  0.00  0.00    +0.000 OA
ATOM     29  H   UNL     1       9.743  -2.774  -1.726  0.00  0.00    +0.000 HD
ENDBRANCH  27  28
ENDBRANCH  23  27
ENDBRANCH  20  23
ENDBRANCH  17  20
ENDBRANCH   1  17
TORSDOF 9
ENDMDL
MODEL 5
REMARK VINA RESULT:    -4.175      4.896      5.626
REMARK INTER + INTRA:          -6.734
REMARK INTER:                  -6.468
REMARK INTRA:                  -0.266
REMARK UNBOUND:                -0.606
REMARK  Name = 8158
REMARK  9 active torsions:
REMARK  status: ('A' for Active; 'I' for Inactive)
REMARK    1  A    between atoms: O_1  and  C_11
REMARK    2  A    between atoms: C_3  and  C_4
REMARK    3  A    between atoms: C_3  and  C_5
REMARK    4  A    between atoms: C_4  and  C_6
REMARK    5  A    between atoms: C_5  and  C_7
REMARK    6  A    between atoms: C_6  and  C_8
REMARK    7  A    between atoms: C_7  and  C_9
REMARK    8  A    between atoms: C_8  and  C_10
REMARK    9  A    between atoms: C_9  and  C_11
REMARK                            x       y       z     vdW  Elec       q    Type
REMARK                         _______ _______ _______ _____ _____    ______ ____
ROOT
ATOM      1  C   UNL     1       8.080   0.890  -1.886  0.00  0.00    +0.000 C 
ATOM      2  H   UNL     1       7.755   1.739  -2.500  0.00  0.00    +0.000 HD
ATOM      3  H   UNL     1       7.196   0.539  -1.339  0.00  0.00    +0.000 HD
ENDROOT
BRANCH   1   4
ATOM      4  C   UNL     1       8.577  -0.232  -2.806  0.00  0.00    +0.000 C 
ATOM      5  H   UNL     1       9.573   0.032  -3.186  0.00  0.00    +0.000 HD
ATOM      6  H   UNL     1       8.697  -1.151  -2.218  0.00  0.00    +0.000 HD
BRANCH   4   7
ATOM      7  C   UNL     1       7.644  -0.510  -3.987  0.00  0.00    +0.000 C 
ATOM      8  H   UNL     1       8.108  -0.141  -4.909  0.00  0.00    +0.000 HD
ATOM      9  H   UNL     1       7.526  -1.594  -4.103  0.00  0.00    +0.000 HD
BRANCH   7  10
ATOM     10  C   UNL     1       6.262   0.132  -3.829  0.00  0.00    +0.000 C 
ATOM     11  H   UNL     1       6.375   1.135  -3.400  0.00  0.00    +0.000 HD
ATOM     12  H   UNL     1       5.670  -0.453  -3.117  0.00  0.00    +0.000 HD
BRANCH  10  13
ATOM     13  C   UNL     1       5.489   0.241  -5.135  0.00  0.00    +0.000 C 
ATOM     14  H   UNL     1       4.820   1.106  -5.120  0.00  0.00    +0.000 HD
ATOM     15  H   UNL     1       4.885  -0.657  -5.295  0.00  0.00    +0.000 HD
ATOM     16  H   UNL     1       6.171   0.348  -5.984  0.00  0.00    +0.000 HD
ENDBRANCH  10  13
ENDBRANCH   7  10
ENDBRANCH   4   7
ENDBRANCH   1   4
BRANCH   1  17
ATOM     17  C   UNL     1       9.133   1.367  -0.883  0.00  0.00    +0.000 C 
ATOM     18  H   UNL     1       9.747   0.515  -0.568  0.00  0.00    +0.000 HD
ATOM     19  H   UNL     1       9.807   2.077  -1.379  0.00  0.00    +0.000 HD
BRANCH  17  20
ATOM     20  C   UNL     1       8.533   2.036   0.361  0.00  0.00    +0.000 C 
ATOM     21  H   UNL     1       9.339   2.223   1.084  0.00  0.00    +0.000 HD
ATOM     22  H   UNL     1       7.852   1.324   0.845  0.00  0.00    +0.000 HD
BRANCH  20  23
ATOM     23  C   UNL     1       7.785   3.340   0.100  0.00  0.00    +0.000 C 
ATOM     24  H   UNL     1       7.993   3.686  -0.918  0.00  0.00    +0.000 HD
ATOM     25  H   UNL     1       8.123   4.103   0.809  0.00  0.00    +0.000 HD
BRANCH  23  27
ATOM     26  O   UNL     1       5.755   2.457   1.064  0.00  0.00    +0.000 OA
ATOM     27  C   UNL     1       6.293   3.191   0.245  0.00  0.00    +0.000 C 
BRANCH  27  28
ATOM     28  O   UNL     1       5.602   3.957  -0.638  0.00  0.00    +0.000 OA
ATOM     29  H   UNL     1       4.746   4.259  -0.268  0.00  0.00    +0.000 HD
ENDBRANCH  27  28
ENDBRANCH  23  27
ENDBRANCH  20  23
ENDBRANCH  17  20
ENDBRANCH   1  17
TORSDOF 9
ENDMDL
MODEL 6
REMARK VINA RESULT:    -4.158      2.079      3.231
REMARK INTER + INTRA:          -6.709
REMARK INTER:                  -6.227
REMARK INTRA:                  -0.482
REMARK UNBOUND:                -0.606
REMARK  Name = 8158
REMARK  9 active torsions:
REMARK  status: ('A' for Active; 'I' for Inactive)
REMARK    1  A    between atoms: O_1  and  C_11
REMARK    2  A    between atoms: C_3  and  C_4
REMARK    3  A    between atoms: C_3  and  C_5
REMARK    4  A    between atoms: C_4  and  C_6
REMARK    5  A    between atoms: C_5  and  C_7
REMARK    6  A    between atoms: C_6  and  C_8
REMARK    7  A    between atoms: C_7  and  C_9
REMARK    8  A    between atoms: C_8  and  C_10
REMARK    9  A    between atoms: C_9  and  C_11
REMARK                            x       y       z     vdW  Elec       q    Type
REMARK                         _______ _______ _______ _____ _____    ______ ____
ROOT
ATOM      1  C   UNL     1       6.876  -1.337  -1.461  0.00  0.00    +0.000 C 
ATOM      2  H   UNL     1       7.930  -1.235  -1.748  0.00  0.00    +0.000 HD
ATOM      3  H   UNL     1       6.843  -2.056  -0.633  0.00  0.00    +0.000 HD
ENDROOT
BRANCH   1   4
ATOM      4  C   UNL     1       6.357   0.018  -0.969  0.00  0.00    +0.000 C 
ATOM      5  H   UNL     1       6.128   0.650  -1.836  0.00  0.00    +0.000 HD
ATOM      6  H   UNL     1       5.412  -0.133  -0.430  0.00  0.00    +0.000 HD
BRANCH   4   7
ATOM      7  C   UNL     1       7.341   0.753  -0.056  0.00  0.00    +0.000 C 
ATOM      8  H   UNL     1       7.212   1.835  -0.180  0.00  0.00    +0.000 HD
ATOM      9  H   UNL     1       7.101   0.524   0.990  0.00  0.00    +0.000 HD
BRANCH   7  10
ATOM     10  C   UNL     1       8.804   0.388  -0.327  0.00  0.00    +0.000 C 
ATOM     11  H   UNL     1       8.850  -0.608  -0.784  0.00  0.00    +0.000 HD
ATOM     12  H   UNL     1       9.344   0.325   0.625  0.00  0.00    +0.000 HD
BRANCH  10  13
ATOM     13  C   UNL     1       9.521   1.378  -1.232  0.00  0.00    +0.000 C 
ATOM     14  H   UNL     1       8.803   1.997  -1.778  0.00  0.00    +0.000 HD
ATOM     15  H   UNL     1      10.140   0.847  -1.961  0.00  0.00    +0.000 HD
ATOM     16  H   UNL     1      10.171   2.038  -0.650  0.00  0.00    +0.000 HD
ENDBRANCH  10  13
ENDBRANCH   7  10
ENDBRANCH   4   7
ENDBRANCH   1   4
BRANCH   1  17
ATOM     17  C   UNL     1       6.085  -1.900  -2.644  0.00  0.00    +0.000 C 
ATOM     18  H   UNL     1       6.054  -2.994  -2.573  0.00  0.00    +0.000 HD
ATOM     19  H   UNL     1       5.047  -1.550  -2.582  0.00  0.00    +0.000 HD
BRANCH  17  20
ATOM     20  C   UNL     1       6.663  -1.505  -4.009  0.00  0.00    +0.000 C 
ATOM     21  H   UNL     1       5.842  -1.161  -4.654  0.00  0.00    +0.000 HD
ATOM     22  H   UNL     1       7.067  -2.405  -4.490  0.00  0.00    +0.000 HD
BRANCH  20  23
ATOM     23  C   UNL     1       7.747  -0.432  -3.970  0.00  0.00    +0.000 C 
ATOM     24  H   UNL     1       7.790   0.011  -2.969  0.00  0.00    +0.000 HD
ATOM     25  H   UNL     1       7.512   0.353  -4.695  0.00  0.00    +0.000 HD
BRANCH  23  27
ATOM     26  O   UNL     1       9.708  -1.793  -3.599  0.00  0.00    +0.000 OA
ATOM     27  C   UNL     1       9.114  -0.979  -4.294  0.00  0.00    +0.000 C 
BRANCH  27  28
ATOM     28  O   UNL     1       9.623  -0.465  -5.442  0.00  0.00    +0.000 OA
ATOM     29  H   UNL     1      10.438  -0.933  -5.723  0.00  0.00    +0.000 HD
ENDBRANCH  27  28
ENDBRANCH  23  27
ENDBRANCH  20  23
ENDBRANCH  17  20
ENDBRANCH   1  17
TORSDOF 9
ENDMDL
MODEL 7
REMARK VINA RESULT:    -4.004     22.403     23.876
REMARK INTER + INTRA:          -6.482
REMARK INTER:                  -6.236
REMARK INTRA:                  -0.246
REMARK UNBOUND:                -0.606
REMARK  Name = 8158
REMARK  9 active torsions:
REMARK  status: ('A' for Active; 'I' for Inactive)
REMARK    1  A    between atoms: O_1  and  C_11
REMARK    2  A    between atoms: C_3  and  C_4
REMARK    3  A    between atoms: C_3  and  C_5
REMARK    4  A    between atoms: C_4  and  C_6
REMARK    5  A    between atoms: C_5  and  C_7
REMARK    6  A    between atoms: C_6  and  C_8
REMARK    7  A    between atoms: C_7  and  C_9
REMARK    8  A    between atoms: C_8  and  C_10
REMARK    9  A    between atoms: C_9  and  C_11
REMARK                            x       y       z     vdW  Elec       q    Type
REMARK                         _______ _______ _______ _____ _____    ______ ____
ROOT
ATOM      1  C   UNL     1      -1.975   8.828  16.135  0.00  0.00    +0.000 C 
ATOM      2  H   UNL     1      -1.204   8.564  15.401  0.00  0.00    +0.000 HD
ATOM      3  H   UNL     1      -2.347   7.885  16.556  0.00  0.00    +0.000 HD
ENDROOT
BRANCH   1   4
ATOM      4  C   UNL     1      -1.339   9.659  17.255  0.00  0.00    +0.000 C 
ATOM      5  H   UNL     1      -1.113  10.662  16.872  0.00  0.00    +0.000 HD
ATOM      6  H   UNL     1      -2.068   9.787  18.066  0.00  0.00    +0.000 HD
BRANCH   4   7
ATOM      7  C   UNL     1      -0.062   9.037  17.824  0.00  0.00    +0.000 C 
ATOM      8  H   UNL     1       0.685   8.949  17.025  0.00  0.00    +0.000 HD
ATOM      9  H   UNL     1       0.361   9.711  18.579  0.00  0.00    +0.000 HD
BRANCH   7  10
ATOM     10  C   UNL     1      -0.288   7.659  18.452  0.00  0.00    +0.000 C 
ATOM     11  H   UNL     1      -0.836   7.024  17.745  0.00  0.00    +0.000 HD
ATOM     12  H   UNL     1      -0.922   7.765  19.340  0.00  0.00    +0.000 HD
BRANCH  10  13
ATOM     13  C   UNL     1       0.999   6.952  18.852  0.00  0.00    +0.000 C 
ATOM     14  H   UNL     1       0.916   6.532  19.859  0.00  0.00    +0.000 HD
ATOM     15  H   UNL     1       1.837   7.656  18.842  0.00  0.00    +0.000 HD
ATOM     16  H   UNL     1       1.228   6.138  18.158  0.00  0.00    +0.000 HD
ENDBRANCH  10  13
ENDBRANCH   7  10
ENDBRANCH   4   7
ENDBRANCH   1   4
BRANCH   1  17
ATOM     17  C   UNL     1      -3.125   9.545  15.422  0.00  0.00    +0.000 C 
ATOM     18  H   UNL     1      -3.911   9.782  16.149  0.00  0.00    +0.000 HD
ATOM     19  H   UNL     1      -2.761  10.501  15.026  0.00  0.00    +0.000 HD
BRANCH  17  20
ATOM     20  C   UNL     1      -3.736   8.730  14.274  0.00  0.00    +0.000 C 
ATOM     21  H   UNL     1      -4.134   9.423  13.521  0.00  0.00    +0.000 HD
ATOM     22  H   UNL     1      -4.601   8.176  14.662  0.00  0.00    +0.000 HD
BRANCH  20  23
ATOM     23  C   UNL     1      -2.783   7.750  13.595  0.00  0.00    +0.000 C 
ATOM     24  H   UNL     1      -3.308   6.813  13.384  0.00  0.00    +0.000 HD
ATOM     25  H   UNL     1      -1.938   7.541  14.259  0.00  0.00    +0.000 HD
BRANCH  23  27
ATOM     26  O   UNL     1      -1.537   7.631  11.529  0.00  0.00    +0.000 OA
ATOM     27  C   UNL     1      -2.238   8.281  12.293  0.00  0.00    +0.000 C 
BRANCH  27  28
ATOM     28  O   UNL     1      -2.604   9.567  12.059  0.00  0.00    +0.000 OA
ATOM     29  H   UNL     1      -1.959  10.205  12.433  0.00  0.00    +0.000 HD
ENDBRANCH  27  28
ENDBRANCH  23  27
ENDBRANCH  20  23
ENDBRANCH  17  20
ENDBRANCH   1  17
TORSDOF 9
ENDMDL
MODEL 8
REMARK VINA RESULT:    -3.982     16.317     17.224
REMARK INTER + INTRA:          -6.450
REMARK INTER:                  -6.073
REMARK INTRA:                  -0.376
REMARK UNBOUND:                -0.606
REMARK  Name = 8158
REMARK  9 active torsions:
REMARK  status: ('A' for Active; 'I' for Inactive)
REMARK    1  A    between atoms: O_1  and  C_11
REMARK    2  A    between atoms: C_3  and  C_4
REMARK    3  A    between atoms: C_3  and  C_5
REMARK    4  A    between atoms: C_4  and  C_6
REMARK    5  A    between atoms: C_5  and  C_7
REMARK    6  A    between atoms: C_6  and  C_8
REMARK    7  A    between atoms: C_7  and  C_9
REMARK    8  A    between atoms: C_8  and  C_10
REMARK    9  A    between atoms: C_9  and  C_11
REMARK                            x       y       z     vdW  Elec       q    Type
REMARK                         _______ _______ _______ _____ _____    ______ ____
ROOT
ATOM      1  C   UNL     1       2.841  14.247  -9.076  0.00  0.00    +0.000 C 
ATOM      2  H   UNL     1       2.131  13.656  -8.486  0.00  0.00    +0.000 HD
ATOM      3  H   UNL     1       2.246  14.878  -9.748  0.00  0.00    +0.000 HD
ENDROOT
BRANCH   1   4
ATOM      4  C   UNL     1       3.652  15.144  -8.134  0.00  0.00    +0.000 C 
ATOM      5  H   UNL     1       3.668  16.165  -8.536  0.00  0.00    +0.000 HD
ATOM      6  H   UNL     1       3.144  15.196  -7.162  0.00  0.00    +0.000 HD
BRANCH   4   7
ATOM      7  C   UNL     1       5.090  14.663  -7.922  0.00  0.00    +0.000 C 
ATOM      8  H   UNL     1       5.210  14.326  -6.885  0.00  0.00    +0.000 HD
ATOM      9  H   UNL     1       5.274  13.791  -8.561  0.00  0.00    +0.000 HD
BRANCH   7  10
ATOM     10  C   UNL     1       6.137  15.738  -8.225  0.00  0.00    +0.000 C 
ATOM     11  H   UNL     1       6.888  15.749  -7.425  0.00  0.00    +0.000 HD
ATOM     12  H   UNL     1       5.657  16.723  -8.223  0.00  0.00    +0.000 HD
BRANCH  10  13
ATOM     13  C   UNL     1       6.844  15.542  -9.558  0.00  0.00    +0.000 C 
ATOM     14  H   UNL     1       7.472  16.405  -9.797  0.00  0.00    +0.000 HD
ATOM     15  H   UNL     1       6.112  15.418 -10.362  0.00  0.00    +0.000 HD
ATOM     16  H   UNL     1       7.479  14.651  -9.535  0.00  0.00    +0.000 HD
ENDBRANCH  10  13
ENDBRANCH   7  10
ENDBRANCH   4   7
ENDBRANCH   1   4
BRANCH   1  17
ATOM     17  C   UNL     1       3.708  13.303  -9.914  0.00  0.00    +0.000 C 
ATOM     18  H   UNL     1       4.570  13.856 -10.309  0.00  0.00    +0.000 HD
ATOM     19  H   UNL     1       4.108  12.513  -9.267  0.00  0.00    +0.000 HD
BRANCH  17  20
ATOM     20  C   UNL     1       2.953  12.656 -11.083  0.00  0.00    +0.000 C 
ATOM     21  H   UNL     1       2.680  13.439 -11.803  0.00  0.00    +0.000 HD
ATOM     22  H   UNL     1       2.006  12.251 -10.704  0.00  0.00    +0.000 HD
BRANCH  20  23
ATOM     23  C   UNL     1       3.710  11.550 -11.812  0.00  0.00    +0.000 C 
ATOM     24  H   UNL     1       3.020  10.740 -12.069  0.00  0.00    +0.000 HD
ATOM     25  H   UNL     1       4.495  11.153 -11.159  0.00  0.00    +0.000 HD
BRANCH  23  27
ATOM     26  O   UNL     1       5.185  12.933 -13.133  0.00  0.00    +0.000 OA
ATOM     27  C   UNL     1       4.357  12.033 -13.085  0.00  0.00    +0.000 C 
BRANCH  27  28
ATOM     28  O   UNL     1       3.916  11.364 -14.181  0.00  0.00    +0.000 OA
ATOM     29  H   UNL     1       4.658  11.071 -14.753  0.00  0.00    +0.000 HD
ENDBRANCH  27  28
ENDBRANCH  23  27
ENDBRANCH  20  23
ENDBRANCH  17  20
ENDBRANCH   1  17
TORSDOF 9
ENDMDL
MODEL 9
REMARK VINA RESULT:    -3.946      3.429      4.603
REMARK INTER + INTRA:          -6.397
REMARK INTER:                  -5.834
REMARK INTRA:                  -0.564
REMARK UNBOUND:                -0.606
REMARK  Name = 8158
REMARK  9 active torsions:
REMARK  status: ('A' for Active; 'I' for Inactive)
REMARK    1  A    between atoms: O_1  and  C_11
REMARK    2  A    between atoms: C_3  and  C_4
REMARK    3  A    between atoms: C_3  and  C_5
REMARK    4  A    between atoms: C_4  and  C_6
REMARK    5  A    between atoms: C_5  and  C_7
REMARK    6  A    between atoms: C_6  and  C_8
REMARK    7  A    between atoms: C_7  and  C_9
REMARK    8  A    between atoms: C_8  and  C_10
REMARK    9  A    between atoms: C_9  and  C_11
REMARK                            x       y       z     vdW  Elec       q    Type
REMARK                         _______ _______ _______ _____ _____    ______ ____
ROOT
ATOM      1  C   UNL     1       9.086  -0.138  -1.240  0.00  0.00    +0.000 C 
ATOM      2  H   UNL     1       8.934   0.492  -2.125  0.00  0.00    +0.000 HD
ATOM      3  H   UNL     1      10.064  -0.619  -1.358  0.00  0.00    +0.000 HD
ENDROOT
BRANCH   1   4
ATOM      4  C   UNL     1       9.111   0.751   0.009  0.00  0.00    +0.000 C 
ATOM      5  H   UNL     1       8.338   0.406   0.709  0.00  0.00    +0.000 HD
ATOM      6  H   UNL     1      10.076   0.627   0.518  0.00  0.00    +0.000 HD
BRANCH   4   7
ATOM      7  C   UNL     1       8.891   2.235  -0.294  0.00  0.00    +0.000 C 
ATOM      8  H   UNL     1       9.657   2.827   0.222  0.00  0.00    +0.000 HD
ATOM      9  H   UNL     1       9.029   2.406  -1.369  0.00  0.00    +0.000 HD
BRANCH   7  10
ATOM     10  C   UNL     1       7.505   2.737   0.120  0.00  0.00    +0.000 C 
ATOM     11  H   UNL     1       7.141   2.141   0.965  0.00  0.00    +0.000 HD
ATOM     12  H   UNL     1       6.801   2.581  -0.705  0.00  0.00    +0.000 HD
BRANCH  10  13
ATOM     13  C   UNL     1       7.482   4.208   0.511  0.00  0.00    +0.000 C 
ATOM     14  H   UNL     1       8.492   4.569   0.728  0.00  0.00    +0.000 HD
ATOM     15  H   UNL     1       6.866   4.354   1.403  0.00  0.00    +0.000 HD
ATOM     16  H   UNL     1       7.065   4.819  -0.295  0.00  0.00    +0.000 HD
ENDBRANCH  10  13
ENDBRANCH   7  10
ENDBRANCH   4   7
ENDBRANCH   1   4
BRANCH   1  17
ATOM     17  C   UNL     1       8.000  -1.216  -1.199  0.00  0.00    +0.000 C 
ATOM     18  H   UNL     1       8.373  -2.125  -1.686  0.00  0.00    +0.000 HD
ATOM     19  H   UNL     1       7.794  -1.479  -0.154  0.00  0.00    +0.000 HD
BRANCH  17  20
ATOM     20  C   UNL     1       6.689  -0.790  -1.873  0.00  0.00    +0.000 C 
ATOM     21  H   UNL     1       5.981  -0.468  -1.097  0.00  0.00    +0.000 HD
ATOM     22  H   UNL     1       6.237  -1.672  -2.345  0.00  0.00    +0.000 HD
BRANCH  20  23
ATOM     23  C   UNL     1       6.824   0.316  -2.915  0.00  0.00    +0.000 C 
ATOM     24  H   UNL     1       7.702   0.931  -2.686  0.00  0.00    +0.000 HD
ATOM     25  H   UNL     1       5.932   0.951  -2.892  0.00  0.00    +0.000 HD
BRANCH  23  27
ATOM     26  O   UNL     1       6.048  -0.520  -5.043  0.00  0.00    +0.000 OA
ATOM     27  C   UNL     1       6.985  -0.222  -4.314  0.00  0.00    +0.000 C 
BRANCH  27  28
ATOM     28  O   UNL     1       8.286  -0.347  -4.679  0.00  0.00    +0.000 OA
ATOM     29  H   UNL     1       8.486  -1.245  -5.018  0.00  0.00    +0.000 HD
ENDBRANCH  27  28
ENDBRANCH  23  27
ENDBRANCH  20  23
ENDBRANCH  17  20
ENDBRANCH   1  17
TORSDOF 9
ENDMDL
MODEL 10
REMARK VINA RESULT:    -3.875      3.462      4.803
REMARK INTER + INTRA:          -6.294
REMARK INTER:                  -5.688
REMARK INTRA:                  -0.606
REMARK UNBOUND:                -0.606
REMARK  Name = 8158
REMARK  9 active torsions:
REMARK  status: ('A' for Active; 'I' for Inactive)
REMARK    1  A    between atoms: O_1  and  C_11
REMARK    2  A    between atoms: C_3  and  C_4
REMARK    3  A    between atoms: C_3  and  C_5
REMARK    4  A    between atoms: C_4  and  C_6
REMARK    5  A    between atoms: C_5  and  C_7
REMARK    6  A    between atoms: C_6  and  C_8
REMARK    7  A    between atoms: C_7  and  C_9
REMARK    8  A    between atoms: C_8  and  C_10
REMARK    9  A    between atoms: C_9  and  C_11
REMARK                            x       y       z     vdW  Elec       q    Type
REMARK                         _______ _______ _______ _____ _____    ______ ____
ROOT
ATOM      1  C   UNL     1       9.469   0.280  -2.281  0.00  0.00    +0.000 C 
ATOM      2  H   UNL     1       8.900   1.149  -2.631  0.00  0.00    +0.000 HD
ATOM      3  H   UNL     1      10.530   0.508  -2.445  0.00  0.00    +0.000 HD
ENDROOT
BRANCH   1   4
ATOM      4  C   UNL     1       9.225   0.092  -0.779  0.00  0.00    +0.000 C 
ATOM      5  H   UNL     1       9.174  -0.981  -0.556  0.00  0.00    +0.000 HD
ATOM      6  H   UNL     1      10.083   0.490  -0.223  0.00  0.00    +0.000 HD
BRANCH   4   7
ATOM      7  C   UNL     1       7.947   0.772  -0.281  0.00  0.00    +0.000 C 
ATOM      8  H   UNL     1       8.214   1.670   0.290  0.00  0.00    +0.000 HD
ATOM      9  H   UNL     1       7.359   1.109  -1.144  0.00  0.00    +0.000 HD
BRANCH   7  10
ATOM     10  C   UNL     1       7.079  -0.138   0.593  0.00  0.00    +0.000 C 
ATOM     11  H   UNL     1       7.669  -0.488   1.450  0.00  0.00    +0.000 HD
ATOM     12  H   UNL     1       6.794  -1.027   0.020  0.00  0.00    +0.000 HD
BRANCH  10  13
ATOM     13  C   UNL     1       5.817   0.536   1.109  0.00  0.00    +0.000 C 
ATOM     14  H   UNL     1       5.897   1.624   1.032  0.00  0.00    +0.000 HD
ATOM     15  H   UNL     1       5.650   0.278   2.160  0.00  0.00    +0.000 HD
ATOM     16  H   UNL     1       4.941   0.214   0.537  0.00  0.00    +0.000 HD
ENDBRANCH  10  13
ENDBRANCH   7  10
ENDBRANCH   4   7
ENDBRANCH   1   4
BRANCH   1  17
ATOM     17  C   UNL     1       9.086  -0.944  -3.117  0.00  0.00    +0.000 C 
ATOM     18  H   UNL     1       9.994  -1.400  -3.530  0.00  0.00    +0.000 HD
ATOM     19  H   UNL     1       8.623  -1.695  -2.466  0.00  0.00    +0.000 HD
BRANCH  17  20
ATOM     20  C   UNL     1       8.123  -0.620  -4.267  0.00  0.00    +0.000 C 
ATOM     21  H   UNL     1       8.532  -1.038  -5.198  0.00  0.00    +0.000 HD
ATOM     22  H   UNL     1       8.101   0.468  -4.409  0.00  0.00    +0.000 HD
BRANCH  20  23
ATOM     23  C   UNL     1       6.695  -1.126  -4.080  0.00  0.00    +0.000 C 
ATOM     24  H   UNL     1       6.714  -2.112  -3.606  0.00  0.00    +0.000 HD
ATOM     25  H   UNL     1       6.207  -1.211  -5.056  0.00  0.00    +0.000 HD
BRANCH  23  27
ATOM     26  O   UNL     1       5.835   1.007  -3.343  0.00  0.00    +0.000 OA
ATOM     27  C   UNL     1       5.866  -0.210  -3.216  0.00  0.00    +0.000 C 
BRANCH  27  28
ATOM     28  O   UNL     1       5.157  -0.882  -2.274  0.00  0.00    +0.000 OA
ATOM     29  H   UNL     1       5.304  -0.515  -1.376  0.00  0.00    +0.000 HD
ENDBRANCH  27  28
ENDBRANCH  23  27
ENDBRANCH  20  23
ENDBRANCH  17  20
ENDBRANCH   1  17
TORSDOF 9
ENDMDL
