MODEL 1
REMARK VINA RESULT:    -3.987      0.000      0.000
REMARK INTER + INTRA:          -4.623
REMARK INTER:                  -4.571
REMARK INTRA:                  -0.052
REMARK UNBOUND:                -0.054
REMARK  Name = 31244
REMARK  3 active torsions:
REMARK  status: ('A' for Active; 'I' for Inactive)
REMARK    1  A    between atoms: O_1  and  C_3
REMARK    2  A    between atoms: O_1  and  C_10
REMARK    3  A    between atoms: C_4  and  C_9
REMARK                            x       y       z     vdW  Elec       q    Type
REMARK                         _______ _______ _______ _____ _____    ______ ____
ROOT
ATOM      1  C   UNL     1       4.094  12.238 -12.712  0.00  0.00    +0.000 A 
ATOM      2  C   UNL     1       3.997  13.724 -10.354  0.00  0.00    +0.000 A 
ATOM      3  C   UNL     1       3.360  11.770 -11.622  0.00  0.00    +0.000 A 
ATOM      4  C   UNL     1       4.779  13.449 -12.623  0.00  0.00    +0.000 A 
ATOM      5  C   UNL     1       3.311  12.513 -10.443  0.00  0.00    +0.000 A 
ATOM      6  C   UNL     1       4.731  14.193 -11.444  0.00  0.00    +0.000 A 
ATOM      7  H   UNL     1       2.824  10.827 -11.687  0.00  0.00    +0.000 HD
ATOM      8  H   UNL     1       5.367  13.871 -13.431  0.00  0.00    +0.000 HD
ATOM      9  H   UNL     1       2.735  12.135  -9.602  0.00  0.00    +0.000 HD
ATOM     10  H   UNL     1       5.272  15.134 -11.396  0.00  0.00    +0.000 HD
ENDROOT
BRANCH   2  12
ATOM     11  O   UNL     1       4.806  14.421  -8.241  0.00  0.00    +0.000 OA
ATOM     12  C   UNL     1       3.947  14.500  -9.124  0.00  0.00    +0.000 C 
ATOM     13  H   UNL     1       3.088  15.183  -9.006  0.00  0.00    +0.000 HD
ENDBRANCH   2  12
BRANCH   1  14
ATOM     14  O   UNL     1       4.141  11.513 -13.863  0.00  0.00    +0.000 OA
BRANCH  14  15
ATOM     15  C   UNL     1       4.462  12.216 -15.062  0.00  0.00    +0.000 C 
ATOM     16  H   UNL     1       5.538  12.200 -15.262  0.00  0.00    +0.000 HD
ATOM     17  H   UNL     1       4.057  13.233 -15.052  0.00  0.00    +0.000 HD
ATOM     18  H   UNL     1       3.975  11.687 -15.888  0.00  0.00    +0.000 HD
ENDBRANCH  14  15
ENDBRANCH   1  14
TORSDOF 3
ENDMDL
MODEL 2
REMARK VINA RESULT:    -3.983     33.925     35.155
REMARK INTER + INTRA:          -4.619
REMARK INTER:                  -4.566
REMARK INTRA:                  -0.053
REMARK UNBOUND:                -0.054
REMARK  Name = 31244
REMARK  3 active torsions:
REMARK  status: ('A' for Active; 'I' for Inactive)
REMARK    1  A    between atoms: O_1  and  C_3
REMARK    2  A    between atoms: O_1  and  C_10
REMARK    3  A    between atoms: C_4  and  C_9
REMARK                            x       y       z     vdW  Elec       q    Type
REMARK                         _______ _______ _______ _____ _____    ______ ____
ROOT
ATOM      1  C   UNL     1     -17.773 -10.936   4.211  0.00  0.00    +0.000 A 
ATOM      2  C   UNL     1     -16.290  -9.904   2.085  0.00  0.00    +0.000 A 
ATOM      3  C   UNL     1     -18.024  -9.645   3.748  0.00  0.00    +0.000 A 
ATOM      4  C   UNL     1     -16.781 -11.711   3.613  0.00  0.00    +0.000 A 
ATOM      5  C   UNL     1     -17.283  -9.129   2.685  0.00  0.00    +0.000 A 
ATOM      6  C   UNL     1     -16.039 -11.196   2.549  0.00  0.00    +0.000 A 
ATOM      7  H   UNL     1     -18.795  -9.036   4.211  0.00  0.00    +0.000 HD
ATOM      8  H   UNL     1     -16.534 -12.721   3.923  0.00  0.00    +0.000 HD
ATOM      9  H   UNL     1     -17.490  -8.121   2.335  0.00  0.00    +0.000 HD
ATOM     10  H   UNL     1     -15.271 -11.817   2.097  0.00  0.00    +0.000 HD
ENDROOT
BRANCH   2  12
ATOM     11  O   UNL     1     -14.567  -9.966   0.464  0.00  0.00    +0.000 OA
ATOM     12  C   UNL     1     -15.517  -9.367   0.977  0.00  0.00    +0.000 C 
ATOM     13  H   UNL     1     -15.819  -8.375   0.598  0.00  0.00    +0.000 HD
ENDBRANCH   2  12
BRANCH   1  14
ATOM     14  O   UNL     1     -18.496 -11.440   5.249  0.00  0.00    +0.000 OA
BRANCH  14  15
ATOM     15  C   UNL     1     -19.034 -12.751   5.090  0.00  0.00    +0.000 C 
ATOM     16  H   UNL     1     -19.376 -13.164   6.044  0.00  0.00    +0.000 HD
ATOM     17  H   UNL     1     -18.330 -13.415   4.578  0.00  0.00    +0.000 HD
ATOM     18  H   UNL     1     -19.916 -12.662   4.446  0.00  0.00    +0.000 HD
ENDBRANCH  14  15
ENDBRANCH   1  14
TORSDOF 3
ENDMDL
MODEL 3
REMARK VINA RESULT:    -3.865     10.192     12.310
REMARK INTER + INTRA:          -4.484
REMARK INTER:                  -4.438
REMARK INTRA:                  -0.046
REMARK UNBOUND:                -0.054
REMARK  Name = 31244
REMARK  3 active torsions:
REMARK  status: ('A' for Active; 'I' for Inactive)
REMARK    1  A    between atoms: O_1  and  C_3
REMARK    2  A    between atoms: O_1  and  C_10
REMARK    3  A    between atoms: C_4  and  C_9
REMARK                            x       y       z     vdW  Elec       q    Type
REMARK                         _______ _______ _______ _____ _____    ______ ____
ROOT
ATOM      1  C   UNL     1      -1.472   4.675 -13.851  0.00  0.00    +0.000 A 
ATOM      2  C   UNL     1      -2.168   3.253 -16.147  0.00  0.00    +0.000 A 
ATOM      3  C   UNL     1      -0.510   4.406 -14.824  0.00  0.00    +0.000 A 
ATOM      4  C   UNL     1      -2.783   4.233 -14.026  0.00  0.00    +0.000 A 
ATOM      5  C   UNL     1      -0.858   3.696 -15.972  0.00  0.00    +0.000 A 
ATOM      6  C   UNL     1      -3.132   3.521 -15.174  0.00  0.00    +0.000 A 
ATOM      7  H   UNL     1       0.513   4.749 -14.692  0.00  0.00    +0.000 HD
ATOM      8  H   UNL     1      -3.580   4.406 -13.310  0.00  0.00    +0.000 HD
ATOM      9  H   UNL     1      -0.096   3.494 -16.721  0.00  0.00    +0.000 HD
ATOM     10  H   UNL     1      -4.159   3.186 -15.291  0.00  0.00    +0.000 HD
ENDROOT
BRANCH   2  12
ATOM     11  O   UNL     1      -3.472   1.713 -17.384  0.00  0.00    +0.000 OA
ATOM     12  C   UNL     1      -2.532   2.512 -17.344  0.00  0.00    +0.000 C 
ATOM     13  H   UNL     1      -1.920   2.695 -18.245  0.00  0.00    +0.000 HD
ENDBRANCH   2  12
BRANCH   1  14
ATOM     14  O   UNL     1      -1.133   5.369 -12.730  0.00  0.00    +0.000 OA
BRANCH  14  15
ATOM     15  C   UNL     1      -1.552   6.730 -12.656  0.00  0.00    +0.000 C 
ATOM     16  H   UNL     1      -0.951   7.297 -11.939  0.00  0.00    +0.000 HD
ATOM     17  H   UNL     1      -2.625   6.810 -12.454  0.00  0.00    +0.000 HD
ATOM     18  H   UNL     1      -1.378   7.175 -13.642  0.00  0.00    +0.000 HD
ENDBRANCH  14  15
ENDBRANCH   1  14
TORSDOF 3
ENDMDL
MODEL 4
REMARK VINA RESULT:    -3.863     25.745     28.294
REMARK INTER + INTRA:          -4.481
REMARK INTER:                  -4.423
REMARK INTRA:                  -0.059
REMARK UNBOUND:                -0.054
REMARK  Name = 31244
REMARK  3 active torsions:
REMARK  status: ('A' for Active; 'I' for Inactive)
REMARK    1  A    between atoms: O_1  and  C_3
REMARK    2  A    between atoms: O_1  and  C_10
REMARK    3  A    between atoms: C_4  and  C_9
REMARK                            x       y       z     vdW  Elec       q    Type
REMARK                         _______ _______ _______ _____ _____    ______ ____
ROOT
ATOM      1  C   UNL     1       5.487  -9.994 -24.946  0.00  0.00    +0.000 A 
ATOM      2  C   UNL     1       6.759 -12.385 -25.614  0.00  0.00    +0.000 A 
ATOM      3  C   UNL     1       6.782  -9.974 -25.465  0.00  0.00    +0.000 A 
ATOM      4  C   UNL     1       4.828 -11.208 -24.761  0.00  0.00    +0.000 A 
ATOM      5  C   UNL     1       7.417 -11.169 -25.799  0.00  0.00    +0.000 A 
ATOM      6  C   UNL     1       5.464 -12.405 -25.095  0.00  0.00    +0.000 A 
ATOM      7  H   UNL     1       7.299  -9.030 -25.611  0.00  0.00    +0.000 HD
ATOM      8  H   UNL     1       3.823 -11.296 -24.363  0.00  0.00    +0.000 HD
ATOM      9  H   UNL     1       8.427 -11.138 -26.202  0.00  0.00    +0.000 HD
ATOM     10  H   UNL     1       4.933 -13.340 -24.943  0.00  0.00    +0.000 HD
ENDROOT
BRANCH   2  12
ATOM     11  O   UNL     1       7.059 -14.731 -25.533  0.00  0.00    +0.000 OA
ATOM     12  C   UNL     1       7.421 -13.632 -25.962  0.00  0.00    +0.000 C 
ATOM     13  H   UNL     1       8.286 -13.559 -26.645  0.00  0.00    +0.000 HD
ENDBRANCH   2  12
BRANCH   1  14
ATOM     14  O   UNL     1       4.866  -8.827 -24.620  0.00  0.00    +0.000 OA
BRANCH  14  15
ATOM     15  C   UNL     1       3.592  -8.924 -23.986  0.00  0.00    +0.000 C 
ATOM     16  H   UNL     1       2.807  -9.189 -24.701  0.00  0.00    +0.000 HD
ATOM     17  H   UNL     1       3.353  -8.016 -23.423  0.00  0.00    +0.000 HD
ATOM     18  H   UNL     1       3.654  -9.742 -23.261  0.00  0.00    +0.000 HD
ENDBRANCH  14  15
ENDBRANCH   1  14
TORSDOF 3
ENDMDL
MODEL 5
REMARK VINA RESULT:    -3.843      1.284      4.623
REMARK INTER + INTRA:          -4.459
REMARK INTER:                  -4.410
REMARK INTRA:                  -0.049
REMARK UNBOUND:                -0.054
REMARK  Name = 31244
REMARK  3 active torsions:
REMARK  status: ('A' for Active; 'I' for Inactive)
REMARK    1  A    between atoms: O_1  and  C_3
REMARK    2  A    between atoms: O_1  and  C_10
REMARK    3  A    between atoms: C_4  and  C_9
REMARK                            x       y       z     vdW  Elec       q    Type
REMARK                         _______ _______ _______ _____ _____    ______ ____
ROOT
ATOM      1  C   UNL     1       4.768  14.831  -9.795  0.00  0.00    +0.000 A 
ATOM      2  C   UNL     1       3.968  12.889 -11.631  0.00  0.00    +0.000 A 
ATOM      3  C   UNL     1       5.301  14.827 -11.084  0.00  0.00    +0.000 A 
ATOM      4  C   UNL     1       3.834  13.864  -9.424  0.00  0.00    +0.000 A 
ATOM      5  C   UNL     1       4.902  13.857 -12.001  0.00  0.00    +0.000 A 
ATOM      6  C   UNL     1       3.434  12.893 -10.342  0.00  0.00    +0.000 A 
ATOM      7  H   UNL     1       6.029  15.579 -11.377  0.00  0.00    +0.000 HD
ATOM      8  H   UNL     1       3.380  13.808  -8.441  0.00  0.00    +0.000 HD
ATOM      9  H   UNL     1       5.326  13.867 -13.002  0.00  0.00    +0.000 HD
ATOM     10  H   UNL     1       2.705  12.148 -10.033  0.00  0.00    +0.000 HD
ENDROOT
BRANCH   2  12
ATOM     11  O   UNL     1       4.224  11.561 -13.573  0.00  0.00    +0.000 OA
ATOM     12  C   UNL     1       3.550  11.877 -12.588  0.00  0.00    +0.000 C 
ATOM     13  H   UNL     1       2.580  11.386 -12.396  0.00  0.00    +0.000 HD
ENDBRANCH   2  12
BRANCH   1  14
ATOM     14  O   UNL     1       5.158  15.778  -8.899  0.00  0.00    +0.000 OA
BRANCH  14  15
ATOM     15  C   UNL     1       6.534  15.789  -8.522  0.00  0.00    +0.000 C 
ATOM     16  H   UNL     1       7.106  16.514  -9.110  0.00  0.00    +0.000 HD
ATOM     17  H   UNL     1       6.970  14.786  -8.562  0.00  0.00    +0.000 HD
ATOM     18  H   UNL     1       6.580  16.117  -7.478  0.00  0.00    +0.000 HD
ENDBRANCH  14  15
ENDBRANCH   1  14
TORSDOF 3
ENDMDL
MODEL 6
REMARK VINA RESULT:    -3.780     32.198     33.555
REMARK INTER + INTRA:          -4.386
REMARK INTER:                  -4.337
REMARK INTRA:                  -0.049
REMARK UNBOUND:                -0.054
REMARK  Name = 31244
REMARK  3 active torsions:
REMARK  status: ('A' for Active; 'I' for Inactive)
REMARK    1  A    between atoms: O_1  and  C_3
REMARK    2  A    between atoms: O_1  and  C_10
REMARK    3  A    between atoms: C_4  and  C_9
REMARK                            x       y       z     vdW  Elec       q    Type
REMARK                         _______ _______ _______ _____ _____    ______ ____
ROOT
ATOM      1  C   UNL     1       3.828  -4.375  15.553  0.00  0.00    +0.000 A 
ATOM      2  C   UNL     1       3.266  -5.112  18.184  0.00  0.00    +0.000 A 
ATOM      3  C   UNL     1       2.870  -3.673  16.285  0.00  0.00    +0.000 A 
ATOM      4  C   UNL     1       4.506  -5.444  16.137  0.00  0.00    +0.000 A 
ATOM      5  C   UNL     1       2.589  -4.042  17.600  0.00  0.00    +0.000 A 
ATOM      6  C   UNL     1       4.225  -5.814  17.453  0.00  0.00    +0.000 A 
ATOM      7  H   UNL     1       2.339  -2.839  15.834  0.00  0.00    +0.000 HD
ATOM      8  H   UNL     1       5.261  -6.032  15.627  0.00  0.00    +0.000 HD
ATOM      9  H   UNL     1       1.839  -3.486  18.157  0.00  0.00    +0.000 HD
ATOM     10  H   UNL     1       4.765  -6.650  17.889  0.00  0.00    +0.000 HD
ENDROOT
BRANCH   2  12
ATOM     11  O   UNL     1       2.732  -4.679  20.449  0.00  0.00    +0.000 OA
ATOM     12  C   UNL     1       2.974  -5.497  19.556  0.00  0.00    +0.000 C 
ATOM     13  H   UNL     1       2.974  -6.578  19.777  0.00  0.00    +0.000 HD
ENDBRANCH   2  12
BRANCH   1  14
ATOM     14  O   UNL     1       4.103  -4.015  14.269  0.00  0.00    +0.000 OA
BRANCH  14  15
ATOM     15  C   UNL     1       4.498  -2.664  14.043  0.00  0.00    +0.000 C 
ATOM     16  H   UNL     1       4.437  -2.068  14.960  0.00  0.00    +0.000 HD
ATOM     17  H   UNL     1       3.939  -2.214  13.217  0.00  0.00    +0.000 HD
ATOM     18  H   UNL     1       5.552  -2.681  13.744  0.00  0.00    +0.000 HD
ENDBRANCH  14  15
ENDBRANCH   1  14
TORSDOF 3
ENDMDL
MODEL 7
REMARK VINA RESULT:    -3.766     31.065     32.229
REMARK INTER + INTRA:          -4.370
REMARK INTER:                  -4.315
REMARK INTRA:                  -0.055
REMARK UNBOUND:                -0.054
REMARK  Name = 31244
REMARK  3 active torsions:
REMARK  status: ('A' for Active; 'I' for Inactive)
REMARK    1  A    between atoms: O_1  and  C_3
REMARK    2  A    between atoms: O_1  and  C_10
REMARK    3  A    between atoms: C_4  and  C_9
REMARK                            x       y       z     vdW  Elec       q    Type
REMARK                         _______ _______ _______ _____ _____    ______ ____
ROOT
ATOM      1  C   UNL     1       2.287   7.023  19.102  0.00  0.00    +0.000 A 
ATOM      2  C   UNL     1       0.290   8.229  20.632  0.00  0.00    +0.000 A 
ATOM      3  C   UNL     1       2.626   7.758  20.238  0.00  0.00    +0.000 A 
ATOM      4  C   UNL     1       0.950   6.892  18.730  0.00  0.00    +0.000 A 
ATOM      5  C   UNL     1       1.628   8.360  21.003  0.00  0.00    +0.000 A 
ATOM      6  C   UNL     1      -0.049   7.494  19.495  0.00  0.00    +0.000 A 
ATOM      7  H   UNL     1       3.667   7.863  20.532  0.00  0.00    +0.000 HD
ATOM      8  H   UNL     1       0.616   6.336  17.860  0.00  0.00    +0.000 HD
ATOM      9  H   UNL     1       1.908   8.930  21.886  0.00  0.00    +0.000 HD
ATOM     10  H   UNL     1      -1.085   7.379  19.188  0.00  0.00    +0.000 HD
ENDROOT
BRANCH   2  12
ATOM     11  O   UNL     1      -1.611   8.217  22.041  0.00  0.00    +0.000 OA
ATOM     12  C   UNL     1      -0.751   8.857  21.429  0.00  0.00    +0.000 C 
ATOM     13  H   UNL     1      -0.746   9.960  21.468  0.00  0.00    +0.000 HD
ENDBRANCH   2  12
BRANCH   1  14
ATOM     14  O   UNL     1       3.262   6.435  18.355  0.00  0.00    +0.000 OA
BRANCH  14  15
ATOM     15  C   UNL     1       4.585   6.450  18.885  0.00  0.00    +0.000 C 
ATOM     16  H   UNL     1       5.074   5.477  18.775  0.00  0.00    +0.000 HD
ATOM     17  H   UNL     1       4.600   6.807  19.920  0.00  0.00    +0.000 HD
ATOM     18  H   UNL     1       5.163   7.168  18.292  0.00  0.00    +0.000 HD
ENDBRANCH  14  15
ENDBRANCH   1  14
TORSDOF 3
ENDMDL
MODEL 8
REMARK VINA RESULT:    -3.724      2.423      4.810
REMARK INTER + INTRA:          -4.322
REMARK INTER:                  -4.266
REMARK INTRA:                  -0.056
REMARK UNBOUND:                -0.054
REMARK  Name = 31244
REMARK  3 active torsions:
REMARK  status: ('A' for Active; 'I' for Inactive)
REMARK    1  A    between atoms: O_1  and  C_3
REMARK    2  A    between atoms: O_1  and  C_10
REMARK    3  A    between atoms: C_4  and  C_9
REMARK                            x       y       z     vdW  Elec       q    Type
REMARK                         _______ _______ _______ _____ _____    ______ ____
ROOT
ATOM      1  C   UNL     1       3.279  14.674  -8.807  0.00  0.00    +0.000 A 
ATOM      2  C   UNL     1       2.326  12.757 -10.595  0.00  0.00    +0.000 A 
ATOM      3  C   UNL     1       1.906  14.473  -8.948  0.00  0.00    +0.000 A 
ATOM      4  C   UNL     1       4.176  13.917  -9.559  0.00  0.00    +0.000 A 
ATOM      5  C   UNL     1       1.430  13.514  -9.842  0.00  0.00    +0.000 A 
ATOM      6  C   UNL     1       3.700  12.958 -10.454  0.00  0.00    +0.000 A 
ATOM      7  H   UNL     1       1.203  15.060  -8.364  0.00  0.00    +0.000 HD
ATOM      8  H   UNL     1       5.254  14.022  -9.500  0.00  0.00    +0.000 HD
ATOM      9  H   UNL     1       0.357  13.369  -9.941  0.00  0.00    +0.000 HD
ATOM     10  H   UNL     1       4.416  12.379 -11.031  0.00  0.00    +0.000 HD
ENDROOT
BRANCH   2  12
ATOM     11  O   UNL     1       1.060  10.850 -11.198  0.00  0.00    +0.000 OA
ATOM     12  C   UNL     1       1.831  11.757 -11.527  0.00  0.00    +0.000 C 
ATOM     13  H   UNL     1       2.177  11.840 -12.572  0.00  0.00    +0.000 HD
ENDBRANCH   2  12
BRANCH   1  14
ATOM     14  O   UNL     1       3.744  15.610  -7.934  0.00  0.00    +0.000 OA
BRANCH  14  15
ATOM     15  C   UNL     1       5.159  15.748  -7.823  0.00  0.00    +0.000 C 
ATOM     16  H   UNL     1       5.437  16.720  -7.404  0.00  0.00    +0.000 HD
ATOM     17  H   UNL     1       5.659  15.549  -8.776  0.00  0.00    +0.000 HD
ATOM     18  H   UNL     1       5.504  14.985  -7.116  0.00  0.00    +0.000 HD
ENDBRANCH  14  15
ENDBRANCH   1  14
TORSDOF 3
ENDMDL
MODEL 9
REMARK VINA RESULT:    -3.642     22.511     24.701
REMARK INTER + INTRA:          -4.228
REMARK INTER:                  -4.182
REMARK INTRA:                  -0.046
REMARK UNBOUND:                -0.054
REMARK  Name = 31244
REMARK  3 active torsions:
REMARK  status: ('A' for Active; 'I' for Inactive)
REMARK    1  A    between atoms: O_1  and  C_3
REMARK    2  A    between atoms: O_1  and  C_10
REMARK    3  A    between atoms: C_4  and  C_9
REMARK                            x       y       z     vdW  Elec       q    Type
REMARK                         _______ _______ _______ _____ _____    ______ ____
ROOT
ATOM      1  C   UNL     1      -0.569   9.335  10.914  0.00  0.00    +0.000 A 
ATOM      2  C   UNL     1      -2.402   8.699  12.919  0.00  0.00    +0.000 A 
ATOM      3  C   UNL     1      -1.037  10.329  11.773  0.00  0.00    +0.000 A 
ATOM      4  C   UNL     1      -1.017   8.022  11.057  0.00  0.00    +0.000 A 
ATOM      5  C   UNL     1      -1.953  10.012  12.775  0.00  0.00    +0.000 A 
ATOM      6  C   UNL     1      -1.934   7.703  12.060  0.00  0.00    +0.000 A 
ATOM      7  H   UNL     1      -0.690  11.354  11.666  0.00  0.00    +0.000 HD
ATOM      8  H   UNL     1      -0.695   7.202  10.426  0.00  0.00    +0.000 HD
ATOM      9  H   UNL     1      -2.309  10.798  13.436  0.00  0.00    +0.000 HD
ATOM     10  H   UNL     1      -2.271   6.675  12.154  0.00  0.00    +0.000 HD
ENDROOT
BRANCH   2  12
ATOM     11  O   UNL     1      -3.313   8.851  15.098  0.00  0.00    +0.000 OA
ATOM     12  C   UNL     1      -3.358   8.367  13.963  0.00  0.00    +0.000 C 
ATOM     13  H   UNL     1      -4.150   7.645  13.697  0.00  0.00    +0.000 HD
ENDBRANCH   2  12
BRANCH   1  14
ATOM     14  O   UNL     1       0.326   9.645   9.936  0.00  0.00    +0.000 OA
BRANCH  14  15
ATOM     15  C   UNL     1       1.659   9.166  10.100  0.00  0.00    +0.000 C 
ATOM     16  H   UNL     1       2.360   9.698   9.448  0.00  0.00    +0.000 HD
ATOM     17  H   UNL     1       1.715   8.081   9.972  0.00  0.00    +0.000 HD
ATOM     18  H   UNL     1       1.955   9.383  11.132  0.00  0.00    +0.000 HD
ENDBRANCH  14  15
ENDBRANCH   1  14
TORSDOF 3
ENDMDL
MODEL 10
REMARK VINA RESULT:    -3.583     31.348     32.176
REMARK INTER + INTRA:          -4.161
REMARK INTER:                  -4.107
REMARK INTRA:                  -0.054
REMARK UNBOUND:                -0.054
REMARK  Name = 31244
REMARK  3 active torsions:
REMARK  status: ('A' for Active; 'I' for Inactive)
REMARK    1  A    between atoms: O_1  and  C_3
REMARK    2  A    between atoms: O_1  and  C_10
REMARK    3  A    between atoms: C_4  and  C_9
REMARK                            x       y       z     vdW  Elec       q    Type
REMARK                         _______ _______ _______ _____ _____    ______ ____
ROOT
ATOM      1  C   UNL     1       4.476   6.820  20.143  0.00  0.00    +0.000 A 
ATOM      2  C   UNL     1       1.854   7.706  19.795  0.00  0.00    +0.000 A 
ATOM      3  C   UNL     1       3.782   6.505  18.975  0.00  0.00    +0.000 A 
ATOM      4  C   UNL     1       3.860   7.578  21.137  0.00  0.00    +0.000 A 
ATOM      5  C   UNL     1       2.472   6.948  18.801  0.00  0.00    +0.000 A 
ATOM      6  C   UNL     1       2.548   8.022  20.964  0.00  0.00    +0.000 A 
ATOM      7  H   UNL     1       4.258   5.914  18.197  0.00  0.00    +0.000 HD
ATOM      8  H   UNL     1       4.340   7.859  22.068  0.00  0.00    +0.000 HD
ATOM      9  H   UNL     1       1.944   6.694  17.885  0.00  0.00    +0.000 HD
ATOM     10  H   UNL     1       2.086   8.612  21.751  0.00  0.00    +0.000 HD
ENDROOT
BRANCH   2  12
ATOM     11  O   UNL     1      -0.500   7.476  19.880  0.00  0.00    +0.000 OA
ATOM     12  C   UNL     1       0.487   8.168  19.615  0.00  0.00    +0.000 C 
ATOM     13  H   UNL     1       0.359   9.192  19.221  0.00  0.00    +0.000 HD
ENDBRANCH   2  12
BRANCH   1  14
ATOM     14  O   UNL     1       5.756   6.388  20.312  0.00  0.00    +0.000 OA
BRANCH  14  15
ATOM     15  C   UNL     1       6.263   5.464  19.352  0.00  0.00    +0.000 C 
ATOM     16  H   UNL     1       7.041   5.916  18.729  0.00  0.00    +0.000 HD
ATOM     17  H   UNL     1       5.458   5.023  18.754  0.00  0.00    +0.000 HD
ATOM     18  H   UNL     1       6.733   4.645  19.907  0.00  0.00    +0.000 HD
ENDBRANCH  14  15
ENDBRANCH   1  14
TORSDOF 3
ENDMDL
