MODEL 1
REMARK VINA RESULT:    -4.208      0.000      0.000
REMARK INTER + INTRA:          -5.803
REMARK INTER:                  -5.522
REMARK INTRA:                  -0.281
REMARK UNBOUND:                -0.118
REMARK  Name = 12348
REMARK  7 active torsions:
REMARK  status: ('A' for Active; 'I' for Inactive)
REMARK    1  A    between atoms: O_1  and  C_6
REMARK    2  A    between atoms: O_1  and  C_8
REMARK    3  A    between atoms: C_3  and  C_4
REMARK    4  A    between atoms: C_3  and  C_5
REMARK    5  A    between atoms: C_4  and  C_6
REMARK    6  A    between atoms: C_5  and  C_7
REMARK    7  A    between atoms: C_8  and  C_9
REMARK                            x       y       z     vdW  Elec       q    Type
REMARK                         _______ _______ _______ _____ _____    ______ ____
ROOT
ATOM      1  C   UNL     1      10.941   6.834  -3.031  0.00  0.00    +0.000 C 
ATOM      2  H   UNL     1      10.470   6.137  -2.327  0.00  0.00    +0.000 HD
ATOM      3  H   UNL     1      11.624   7.448  -2.431  0.00  0.00    +0.000 HD
ENDROOT
BRANCH   1   4
ATOM      4  C   UNL     1       9.882   7.714  -3.692  0.00  0.00    +0.000 C 
ATOM      5  H   UNL     1       9.984   8.745  -3.333  0.00  0.00    +0.000 HD
ATOM      6  H   UNL     1       8.883   7.368  -3.400  0.00  0.00    +0.000 HD
BRANCH   4   7
ATOM      7  C   UNL     1      10.006   7.685  -5.215  0.00  0.00    +0.000 C 
ATOM      8  H   UNL     1      10.268   8.683  -5.587  0.00  0.00    +0.000 HD
ATOM      9  H   UNL     1      10.814   7.006  -5.510  0.00  0.00    +0.000 HD
BRANCH   7  10
ATOM     10  C   UNL     1       8.711   7.231  -5.870  0.00  0.00    +0.000 C 
ATOM     11  H   UNL     1       8.743   6.163  -6.103  0.00  0.00    +0.000 HD
ATOM     12  H   UNL     1       7.854   7.416  -5.215  0.00  0.00    +0.000 HD
ATOM     13  H   UNL     1       8.548   7.778  -6.804  0.00  0.00    +0.000 HD
ENDBRANCH   7  10
ENDBRANCH   4   7
ENDBRANCH   1   4
BRANCH   1  14
ATOM     14  C   UNL     1      11.742   6.050  -4.059  0.00  0.00    +0.000 C 
ATOM     15  H   UNL     1      11.514   6.413  -5.069  0.00  0.00    +0.000 HD
ATOM     16  H   UNL     1      11.491   4.984  -3.997  0.00  0.00    +0.000 HD
BRANCH  14  17
ATOM     17  O   UNL     1      13.127   6.227  -3.796  0.00  0.00    +0.000 OA
BRANCH  17  19
ATOM     18  O   UNL     1      13.751   8.379  -4.356  0.00  0.00    +0.000 OA
ATOM     19  C   UNL     1      13.762   7.172  -4.555  0.00  0.00    +0.000 C 
BRANCH  19  20
ATOM     20  C   UNL     1      14.491   6.514  -5.686  0.00  0.00    +0.000 C 
ATOM     21  H   UNL     1      15.424   6.078  -5.321  0.00  0.00    +0.000 HD
ATOM     22  H   UNL     1      14.690   7.244  -6.473  0.00  0.00    +0.000 HD
ATOM     23  H   UNL     1      13.872   5.713  -6.100  0.00  0.00    +0.000 HD
ENDBRANCH  19  20
ENDBRANCH  17  19
ENDBRANCH  14  17
ENDBRANCH   1  14
TORSDOF 7
ENDMDL
MODEL 2
REMARK VINA RESULT:    -4.144      1.936      4.351
REMARK INTER + INTRA:          -5.715
REMARK INTER:                  -5.567
REMARK INTRA:                  -0.149
REMARK UNBOUND:                -0.118
REMARK  Name = 12348
REMARK  7 active torsions:
REMARK  status: ('A' for Active; 'I' for Inactive)
REMARK    1  A    between atoms: O_1  and  C_6
REMARK    2  A    between atoms: O_1  and  C_8
REMARK    3  A    between atoms: C_3  and  C_4
REMARK    4  A    between atoms: C_3  and  C_5
REMARK    5  A    between atoms: C_4  and  C_6
REMARK    6  A    between atoms: C_5  and  C_7
REMARK    7  A    between atoms: C_8  and  C_9
REMARK                            x       y       z     vdW  Elec       q    Type
REMARK                         _______ _______ _______ _____ _____    ______ ____
ROOT
ATOM      1  C   UNL     1      13.363   7.746  -4.262  0.00  0.00    +0.000 C 
ATOM      2  H   UNL     1      13.432   8.826  -4.446  0.00  0.00    +0.000 HD
ATOM      3  H   UNL     1      13.847   7.578  -3.292  0.00  0.00    +0.000 HD
ENDROOT
BRANCH   1   4
ATOM      4  C   UNL     1      14.093   6.974  -5.359  0.00  0.00    +0.000 C 
ATOM      5  H   UNL     1      14.783   7.645  -5.884  0.00  0.00    +0.000 HD
ATOM      6  H   UNL     1      13.368   6.613  -6.098  0.00  0.00    +0.000 HD
BRANCH   4   7
ATOM      7  C   UNL     1      14.866   5.788  -4.783  0.00  0.00    +0.000 C 
ATOM      8  H   UNL     1      15.937   5.909  -4.982  0.00  0.00    +0.000 HD
ATOM      9  H   UNL     1      14.740   5.753  -3.695  0.00  0.00    +0.000 HD
BRANCH   7  10
ATOM     10  C   UNL     1      14.392   4.472  -5.380  0.00  0.00    +0.000 C 
ATOM     11  H   UNL     1      14.498   3.654  -4.662  0.00  0.00    +0.000 HD
ATOM     12  H   UNL     1      13.341   4.534  -5.680  0.00  0.00    +0.000 HD
ATOM     13  H   UNL     1      14.984   4.225  -6.267  0.00  0.00    +0.000 HD
ENDBRANCH   7  10
ENDBRANCH   4   7
ENDBRANCH   1   4
BRANCH   1  14
ATOM     14  C   UNL     1      11.899   7.343  -4.170  0.00  0.00    +0.000 C 
ATOM     15  H   UNL     1      11.410   7.891  -3.355  0.00  0.00    +0.000 HD
ATOM     16  H   UNL     1      11.818   6.267  -3.976  0.00  0.00    +0.000 HD
BRANCH  14  17
ATOM     17  O   UNL     1      11.258   7.653  -5.399  0.00  0.00    +0.000 OA
BRANCH  17  19
ATOM     18  O   UNL     1       9.792   9.378  -4.940  0.00  0.00    +0.000 OA
ATOM     19  C   UNL     1      10.022   8.231  -5.298  0.00  0.00    +0.000 C 
BRANCH  19  20
ATOM     20  C   UNL     1       8.964   7.247  -5.696  0.00  0.00    +0.000 C 
ATOM     21  H   UNL     1       8.057   7.780  -5.994  0.00  0.00    +0.000 HD
ATOM     22  H   UNL     1       8.757   6.570  -4.865  0.00  0.00    +0.000 HD
ATOM     23  H   UNL     1       9.317   6.659  -6.547  0.00  0.00    +0.000 HD
ENDBRANCH  19  20
ENDBRANCH  17  19
ENDBRANCH  14  17
ENDBRANCH   1  14
TORSDOF 7
ENDMDL
MODEL 3
REMARK VINA RESULT:    -3.672      2.041      2.689
REMARK INTER + INTRA:          -5.078
REMARK INTER:                  -4.929
REMARK INTRA:                  -0.149
REMARK UNBOUND:                -0.118
REMARK  Name = 12348
REMARK  7 active torsions:
REMARK  status: ('A' for Active; 'I' for Inactive)
REMARK    1  A    between atoms: O_1  and  C_6
REMARK    2  A    between atoms: O_1  and  C_8
REMARK    3  A    between atoms: C_3  and  C_4
REMARK    4  A    between atoms: C_3  and  C_5
REMARK    5  A    between atoms: C_4  and  C_6
REMARK    6  A    between atoms: C_5  and  C_7
REMARK    7  A    between atoms: C_8  and  C_9
REMARK                            x       y       z     vdW  Elec       q    Type
REMARK                         _______ _______ _______ _____ _____    ______ ____
ROOT
ATOM      1  C   UNL     1      11.961   5.597  -2.951  0.00  0.00    +0.000 C 
ATOM      2  H   UNL     1      10.947   5.268  -2.690  0.00  0.00    +0.000 HD
ATOM      3  H   UNL     1      12.417   5.931  -2.010  0.00  0.00    +0.000 HD
ENDROOT
BRANCH   1   4
ATOM      4  C   UNL     1      11.902   6.750  -3.949  0.00  0.00    +0.000 C 
ATOM      5  H   UNL     1      12.567   6.540  -4.795  0.00  0.00    +0.000 HD
ATOM      6  H   UNL     1      12.267   7.668  -3.471  0.00  0.00    +0.000 HD
BRANCH   4   7
ATOM      7  C   UNL     1      10.478   6.973  -4.458  0.00  0.00    +0.000 C 
ATOM      8  H   UNL     1      10.327   6.423  -5.394  0.00  0.00    +0.000 HD
ATOM      9  H   UNL     1       9.757   6.582  -3.732  0.00  0.00    +0.000 HD
BRANCH   7  10
ATOM     10  C   UNL     1      10.196   8.449  -4.693  0.00  0.00    +0.000 C 
ATOM     11  H   UNL     1      11.071   8.955  -5.110  0.00  0.00    +0.000 HD
ATOM     12  H   UNL     1       9.358   8.582  -5.386  0.00  0.00    +0.000 HD
ATOM     13  H   UNL     1       9.937   8.939  -3.749  0.00  0.00    +0.000 HD
ENDBRANCH   7  10
ENDBRANCH   4   7
ENDBRANCH   1   4
BRANCH   1  14
ATOM     14  C   UNL     1      12.749   4.417  -3.499  0.00  0.00    +0.000 C 
ATOM     15  H   UNL     1      12.099   3.786  -4.118  0.00  0.00    +0.000 HD
ATOM     16  H   UNL     1      13.150   3.817  -2.674  0.00  0.00    +0.000 HD
BRANCH  14  17
ATOM     17  O   UNL     1      13.821   4.909  -4.291  0.00  0.00    +0.000 OA
BRANCH  17  19
ATOM     18  O   UNL     1      15.358   3.470  -3.342  0.00  0.00    +0.000 OA
ATOM     19  C   UNL     1      14.969   4.164  -4.270  0.00  0.00    +0.000 C 
BRANCH  19  20
ATOM     20  C   UNL     1      15.701   4.318  -5.569  0.00  0.00    +0.000 C 
ATOM     21  H   UNL     1      15.759   5.375  -5.838  0.00  0.00    +0.000 HD
ATOM     22  H   UNL     1      15.192   3.749  -6.350  0.00  0.00    +0.000 HD
ATOM     23  H   UNL     1      16.718   3.929  -5.461  0.00  0.00    +0.000 HD
ENDBRANCH  19  20
ENDBRANCH  17  19
ENDBRANCH  14  17
ENDBRANCH   1  14
TORSDOF 7
ENDMDL
MODEL 4
REMARK VINA RESULT:    -3.654     23.965     25.271
REMARK INTER + INTRA:          -5.053
REMARK INTER:                  -4.787
REMARK INTRA:                  -0.266
REMARK UNBOUND:                -0.118
REMARK  Name = 12348
REMARK  7 active torsions:
REMARK  status: ('A' for Active; 'I' for Inactive)
REMARK    1  A    between atoms: O_1  and  C_6
REMARK    2  A    between atoms: O_1  and  C_8
REMARK    3  A    between atoms: C_3  and  C_4
REMARK    4  A    between atoms: C_3  and  C_5
REMARK    5  A    between atoms: C_4  and  C_6
REMARK    6  A    between atoms: C_5  and  C_7
REMARK    7  A    between atoms: C_8  and  C_9
REMARK                            x       y       z     vdW  Elec       q    Type
REMARK                         _______ _______ _______ _____ _____    ______ ____
ROOT
ATOM      1  C   UNL     1      -1.322 -15.594 -10.789  0.00  0.00    +0.000 C 
ATOM      2  H   UNL     1      -0.625 -16.085 -10.099  0.00  0.00    +0.000 HD
ATOM      3  H   UNL     1      -2.170 -16.283 -10.896  0.00  0.00    +0.000 HD
ENDROOT
BRANCH   1   4
ATOM      4  C   UNL     1      -0.653 -15.364 -12.142  0.00  0.00    +0.000 C 
ATOM      5  H   UNL     1      -0.995 -16.124 -12.855  0.00  0.00    +0.000 HD
ATOM      6  H   UNL     1       0.432 -15.482 -12.040  0.00  0.00    +0.000 HD
BRANCH   4   7
ATOM      7  C   UNL     1      -0.965 -13.970 -12.687  0.00  0.00    +0.000 C 
ATOM      8  H   UNL     1      -1.582 -14.052 -13.589  0.00  0.00    +0.000 HD
ATOM      9  H   UNL     1      -1.542 -13.402 -11.949  0.00  0.00    +0.000 HD
BRANCH   7  10
ATOM     10  C   UNL     1       0.307 -13.205 -13.018  0.00  0.00    +0.000 C 
ATOM     11  H   UNL     1       0.910 -13.745 -13.754  0.00  0.00    +0.000 HD
ATOM     12  H   UNL     1       0.075 -12.215 -13.421  0.00  0.00    +0.000 HD
ATOM     13  H   UNL     1       0.913 -13.071 -12.116  0.00  0.00    +0.000 HD
ENDBRANCH   7  10
ENDBRANCH   4   7
ENDBRANCH   1   4
BRANCH   1  14
ATOM     14  C   UNL     1      -1.809 -14.291 -10.173  0.00  0.00    +0.000 C 
ATOM     15  H   UNL     1      -2.890 -14.341  -9.994  0.00  0.00    +0.000 HD
ATOM     16  H   UNL     1      -1.597 -13.454 -10.850  0.00  0.00    +0.000 HD
BRANCH  14  17
ATOM     17  O   UNL     1      -1.136 -14.085  -8.940  0.00  0.00    +0.000 OA
BRANCH  17  19
ATOM     18  O   UNL     1      -0.088 -12.145  -9.628  0.00  0.00    +0.000 OA
ATOM     19  C   UNL     1      -0.589 -12.844  -8.758  0.00  0.00    +0.000 C 
BRANCH  19  20
ATOM     20  C   UNL     1      -0.690 -12.447  -7.316  0.00  0.00    +0.000 C 
ATOM     21  H   UNL     1       0.025 -13.022  -6.723  0.00  0.00    +0.000 HD
ATOM     22  H   UNL     1      -1.709 -12.612  -6.958  0.00  0.00    +0.000 HD
ATOM     23  H   UNL     1      -0.452 -11.385  -7.214  0.00  0.00    +0.000 HD
ENDBRANCH  19  20
ENDBRANCH  17  19
ENDBRANCH  14  17
ENDBRANCH   1  14
TORSDOF 7
ENDMDL
MODEL 5
REMARK VINA RESULT:    -3.589     29.279     30.588
REMARK INTER + INTRA:          -4.966
REMARK INTER:                  -4.842
REMARK INTRA:                  -0.124
REMARK UNBOUND:                -0.118
REMARK  Name = 12348
REMARK  7 active torsions:
REMARK  status: ('A' for Active; 'I' for Inactive)
REMARK    1  A    between atoms: O_1  and  C_6
REMARK    2  A    between atoms: O_1  and  C_8
REMARK    3  A    between atoms: C_3  and  C_4
REMARK    4  A    between atoms: C_3  and  C_5
REMARK    5  A    between atoms: C_4  and  C_6
REMARK    6  A    between atoms: C_5  and  C_7
REMARK    7  A    between atoms: C_8  and  C_9
REMARK                            x       y       z     vdW  Elec       q    Type
REMARK                         _______ _______ _______ _____ _____    ______ ____
ROOT
ATOM      1  C   UNL     1       0.379  -7.084  20.944  0.00  0.00    +0.000 C 
ATOM      2  H   UNL     1       0.565  -8.158  20.814  0.00  0.00    +0.000 HD
ATOM      3  H   UNL     1       0.341  -6.917  22.027  0.00  0.00    +0.000 HD
ENDROOT
BRANCH   1   4
ATOM      4  C   UNL     1      -0.951  -6.696  20.301  0.00  0.00    +0.000 C 
ATOM      5  H   UNL     1      -0.927  -6.937  19.232  0.00  0.00    +0.000 HD
ATOM      6  H   UNL     1      -1.096  -5.613  20.386  0.00  0.00    +0.000 HD
BRANCH   4   7
ATOM      7  C   UNL     1      -2.121  -7.420  20.966  0.00  0.00    +0.000 C 
ATOM      8  H   UNL     1      -2.683  -7.988  20.216  0.00  0.00    +0.000 HD
ATOM      9  H   UNL     1      -1.745  -8.139  21.703  0.00  0.00    +0.000 HD
BRANCH   7  10
ATOM     10  C   UNL     1      -3.058  -6.444  21.660  0.00  0.00    +0.000 C 
ATOM     11  H   UNL     1      -2.651  -5.429  21.641  0.00  0.00    +0.000 HD
ATOM     12  H   UNL     1      -4.040  -6.430  21.175  0.00  0.00    +0.000 HD
ATOM     13  H   UNL     1      -3.200  -6.734  22.706  0.00  0.00    +0.000 HD
ENDBRANCH   7  10
ENDBRANCH   4   7
ENDBRANCH   1   4
BRANCH   1  14
ATOM     14  C   UNL     1       1.540  -6.296  20.355  0.00  0.00    +0.000 C 
ATOM     15  H   UNL     1       1.161  -5.527  19.670  0.00  0.00    +0.000 HD
ATOM     16  H   UNL     1       2.208  -6.968  19.804  0.00  0.00    +0.000 HD
BRANCH  14  17
ATOM     17  O   UNL     1       2.258  -5.675  21.411  0.00  0.00    +0.000 OA
BRANCH  17  19
ATOM     18  O   UNL     1       4.460  -5.034  21.683  0.00  0.00    +0.000 OA
ATOM     19  C   UNL     1       3.412  -5.034  21.053  0.00  0.00    +0.000 C 
BRANCH  19  20
ATOM     20  C   UNL     1       3.214  -4.315  19.753  0.00  0.00    +0.000 C 
ATOM     21  H   UNL     1       3.928  -3.492  19.673  0.00  0.00    +0.000 HD
ATOM     22  H   UNL     1       2.189  -3.944  19.688  0.00  0.00    +0.000 HD
ATOM     23  H   UNL     1       3.388  -5.008  18.925  0.00  0.00    +0.000 HD
ENDBRANCH  19  20
ENDBRANCH  17  19
ENDBRANCH  14  17
ENDBRANCH   1  14
TORSDOF 7
ENDMDL
MODEL 6
REMARK VINA RESULT:    -3.507      2.253      4.951
REMARK INTER + INTRA:          -4.855
REMARK INTER:                  -4.735
REMARK INTRA:                  -0.121
REMARK UNBOUND:                -0.118
REMARK  Name = 12348
REMARK  7 active torsions:
REMARK  status: ('A' for Active; 'I' for Inactive)
REMARK    1  A    between atoms: O_1  and  C_6
REMARK    2  A    between atoms: O_1  and  C_8
REMARK    3  A    between atoms: C_3  and  C_4
REMARK    4  A    between atoms: C_3  and  C_5
REMARK    5  A    between atoms: C_4  and  C_6
REMARK    6  A    between atoms: C_5  and  C_7
REMARK    7  A    between atoms: C_8  and  C_9
REMARK                            x       y       z     vdW  Elec       q    Type
REMARK                         _______ _______ _______ _____ _____    ______ ____
ROOT
ATOM      1  C   UNL     1      13.842   4.061  -4.780  0.00  0.00    +0.000 C 
ATOM      2  H   UNL     1      13.015   3.497  -4.332  0.00  0.00    +0.000 HD
ATOM      3  H   UNL     1      13.749   3.917  -5.864  0.00  0.00    +0.000 HD
ENDROOT
BRANCH   1   4
ATOM      4  C   UNL     1      15.181   3.515  -4.288  0.00  0.00    +0.000 C 
ATOM      5  H   UNL     1      15.494   2.678  -4.923  0.00  0.00    +0.000 HD
ATOM      6  H   UNL     1      15.066   3.124  -3.271  0.00  0.00    +0.000 HD
BRANCH   4   7
ATOM      7  C   UNL     1      16.260   4.598  -4.298  0.00  0.00    +0.000 C 
ATOM      8  H   UNL     1      15.797   5.586  -4.196  0.00  0.00    +0.000 HD
ATOM      9  H   UNL     1      16.931   4.464  -3.442  0.00  0.00    +0.000 HD
BRANCH   7  10
ATOM     10  C   UNL     1      17.078   4.558  -5.580  0.00  0.00    +0.000 C 
ATOM     11  H   UNL     1      16.445   4.329  -6.442  0.00  0.00    +0.000 HD
ATOM     12  H   UNL     1      17.573   5.517  -5.760  0.00  0.00    +0.000 HD
ATOM     13  H   UNL     1      17.851   3.785  -5.511  0.00  0.00    +0.000 HD
ENDBRANCH   7  10
ENDBRANCH   4   7
ENDBRANCH   1   4
BRANCH   1  14
ATOM     14  C   UNL     1      13.682   5.538  -4.454  0.00  0.00    +0.000 C 
ATOM     15  H   UNL     1      13.795   6.137  -5.366  0.00  0.00    +0.000 HD
ATOM     16  H   UNL     1      14.443   5.846  -3.728  0.00  0.00    +0.000 HD
BRANCH  14  17
ATOM     17  O   UNL     1      12.389   5.751  -3.906  0.00  0.00    +0.000 OA
BRANCH  17  19
ATOM     18  O   UNL     1      12.599   8.031  -3.604  0.00  0.00    +0.000 OA
ATOM     19  C   UNL     1      11.944   7.044  -3.912  0.00  0.00    +0.000 C 
BRANCH  19  20
ATOM     20  C   UNL     1      10.514   7.091  -4.357  0.00  0.00    +0.000 C 
ATOM     21  H   UNL     1       9.961   7.812  -3.750  0.00  0.00    +0.000 HD
ATOM     22  H   UNL     1      10.069   6.096  -4.275  0.00  0.00    +0.000 HD
ATOM     23  H   UNL     1      10.469   7.409  -5.402  0.00  0.00    +0.000 HD
ENDBRANCH  19  20
ENDBRANCH  17  19
ENDBRANCH  14  17
ENDBRANCH   1  14
TORSDOF 7
ENDMDL
MODEL 7
REMARK VINA RESULT:    -3.484     21.516     22.901
REMARK INTER + INTRA:          -4.825
REMARK INTER:                  -4.621
REMARK INTRA:                  -0.204
REMARK UNBOUND:                -0.118
REMARK  Name = 12348
REMARK  7 active torsions:
REMARK  status: ('A' for Active; 'I' for Inactive)
REMARK    1  A    between atoms: O_1  and  C_6
REMARK    2  A    between atoms: O_1  and  C_8
REMARK    3  A    between atoms: C_3  and  C_4
REMARK    4  A    between atoms: C_3  and  C_5
REMARK    5  A    between atoms: C_4  and  C_6
REMARK    6  A    between atoms: C_5  and  C_7
REMARK    7  A    between atoms: C_8  and  C_9
REMARK                            x       y       z     vdW  Elec       q    Type
REMARK                         _______ _______ _______ _____ _____    ______ ____
ROOT
ATOM      1  C   UNL     1      -2.524   7.707  13.196  0.00  0.00    +0.000 C 
ATOM      2  H   UNL     1      -3.081   6.877  12.743  0.00  0.00    +0.000 HD
ATOM      3  H   UNL     1      -1.653   7.251  13.683  0.00  0.00    +0.000 HD
ENDROOT
BRANCH   1   4
ATOM      4  C   UNL     1      -3.392   8.424  14.228  0.00  0.00    +0.000 C 
ATOM      5  H   UNL     1      -4.168   7.742  14.594  0.00  0.00    +0.000 HD
ATOM      6  H   UNL     1      -3.903   9.270  13.753  0.00  0.00    +0.000 HD
BRANCH   4   7
ATOM      7  C   UNL     1      -2.555   8.930  15.403  0.00  0.00    +0.000 C 
ATOM      8  H   UNL     1      -2.482   8.151  16.171  0.00  0.00    +0.000 HD
ATOM      9  H   UNL     1      -1.536   9.151  15.067  0.00  0.00    +0.000 HD
BRANCH   7  10
ATOM     10  C   UNL     1      -3.158  10.184  16.017  0.00  0.00    +0.000 C 
ATOM     11  H   UNL     1      -3.879   9.930  16.799  0.00  0.00    +0.000 HD
ATOM     12  H   UNL     1      -2.381  10.818  16.456  0.00  0.00    +0.000 HD
ATOM     13  H   UNL     1      -3.678  10.767  15.250  0.00  0.00    +0.000 HD
ENDBRANCH   7  10
ENDBRANCH   4   7
ENDBRANCH   1   4
BRANCH   1  14
ATOM     14  C   UNL     1      -2.050   8.654  12.104  0.00  0.00    +0.000 C 
ATOM     15  H   UNL     1      -2.013   8.128  11.142  0.00  0.00    +0.000 HD
ATOM     16  H   UNL     1      -1.049   9.032  12.343  0.00  0.00    +0.000 HD
BRANCH  14  17
ATOM     17  O   UNL     1      -2.958   9.742  12.012  0.00  0.00    +0.000 OA
BRANCH  17  19
ATOM     18  O   UNL     1      -3.363  11.643  10.764  0.00  0.00    +0.000 OA
ATOM     19  C   UNL     1      -2.659  10.692  11.075  0.00  0.00    +0.000 C 
BRANCH  19  20
ATOM     20  C   UNL     1      -1.319  10.406  10.467  0.00  0.00    +0.000 C 
ATOM     21  H   UNL     1      -1.061   9.355  10.620  0.00  0.00    +0.000 HD
ATOM     22  H   UNL     1      -0.564  11.057  10.912  0.00  0.00    +0.000 HD
ATOM     23  H   UNL     1      -1.359  10.601   9.392  0.00  0.00    +0.000 HD
ENDBRANCH  19  20
ENDBRANCH  17  19
ENDBRANCH  14  17
ENDBRANCH   1  14
TORSDOF 7
ENDMDL
MODEL 8
REMARK VINA RESULT:    -3.428     35.918     37.327
REMARK INTER + INTRA:          -4.748
REMARK INTER:                  -4.544
REMARK INTRA:                  -0.204
REMARK UNBOUND:                -0.118
REMARK  Name = 12348
REMARK  7 active torsions:
REMARK  status: ('A' for Active; 'I' for Inactive)
REMARK    1  A    between atoms: O_1  and  C_6
REMARK    2  A    between atoms: O_1  and  C_8
REMARK    3  A    between atoms: C_3  and  C_4
REMARK    4  A    between atoms: C_3  and  C_5
REMARK    5  A    between atoms: C_4  and  C_6
REMARK    6  A    between atoms: C_5  and  C_7
REMARK    7  A    between atoms: C_8  and  C_9
REMARK                            x       y       z     vdW  Elec       q    Type
REMARK                         _______ _______ _______ _____ _____    ______ ____
ROOT
ATOM      1  C   UNL     1     -16.813   1.991  20.452  0.00  0.00    +0.000 C 
ATOM      2  H   UNL     1     -17.524   2.768  20.760  0.00  0.00    +0.000 HD
ATOM      3  H   UNL     1     -17.263   1.038  20.756  0.00  0.00    +0.000 HD
ENDROOT
BRANCH   1   4
ATOM      4  C   UNL     1     -15.473   2.191  21.155  0.00  0.00    +0.000 C 
ATOM      5  H   UNL     1     -15.222   3.259  21.174  0.00  0.00    +0.000 HD
ATOM      6  H   UNL     1     -14.682   1.684  20.590  0.00  0.00    +0.000 HD
BRANCH   4   7
ATOM      7  C   UNL     1     -15.507   1.646  22.583  0.00  0.00    +0.000 C 
ATOM      8  H   UNL     1     -16.464   1.145  22.767  0.00  0.00    +0.000 HD
ATOM      9  H   UNL     1     -14.718   0.897  22.715  0.00  0.00    +0.000 HD
BRANCH   7  10
ATOM     10  C   UNL     1     -15.316   2.754  23.607  0.00  0.00    +0.000 C 
ATOM     11  H   UNL     1     -15.111   2.341  24.599  0.00  0.00    +0.000 HD
ATOM     12  H   UNL     1     -14.485   3.408  23.326  0.00  0.00    +0.000 HD
ATOM     13  H   UNL     1     -16.221   3.366  23.674  0.00  0.00    +0.000 HD
ENDBRANCH   7  10
ENDBRANCH   4   7
ENDBRANCH   1   4
BRANCH   1  14
ATOM     14  C   UNL     1     -16.663   2.015  18.938  0.00  0.00    +0.000 C 
ATOM     15  H   UNL     1     -15.717   2.498  18.663  0.00  0.00    +0.000 HD
ATOM     16  H   UNL     1     -17.493   2.572  18.488  0.00  0.00    +0.000 HD
BRANCH  14  17
ATOM     17  O   UNL     1     -16.670   0.680  18.454  0.00  0.00    +0.000 OA
BRANCH  17  19
ATOM     18  O   UNL     1     -15.787  -0.550  16.709  0.00  0.00    +0.000 OA
ATOM     19  C   UNL     1     -15.742   0.389  17.491  0.00  0.00    +0.000 C 
BRANCH  19  20
ATOM     20  C   UNL     1     -14.637   1.402  17.524  0.00  0.00    +0.000 C 
ATOM     21  H   UNL     1     -15.027   2.383  17.243  0.00  0.00    +0.000 HD
ATOM     22  H   UNL     1     -13.835   1.097  16.848  0.00  0.00    +0.000 HD
ATOM     23  H   UNL     1     -14.233   1.465  18.539  0.00  0.00    +0.000 HD
ENDBRANCH  19  20
ENDBRANCH  17  19
ENDBRANCH  14  17
ENDBRANCH   1  14
TORSDOF 7
ENDMDL
MODEL 9
REMARK VINA RESULT:    -3.400     19.602     20.960
REMARK INTER + INTRA:          -4.711
REMARK INTER:                  -4.519
REMARK INTRA:                  -0.192
REMARK UNBOUND:                -0.118
REMARK  Name = 12348
REMARK  7 active torsions:
REMARK  status: ('A' for Active; 'I' for Inactive)
REMARK    1  A    between atoms: O_1  and  C_6
REMARK    2  A    between atoms: O_1  and  C_8
REMARK    3  A    between atoms: C_3  and  C_4
REMARK    4  A    between atoms: C_3  and  C_5
REMARK    5  A    between atoms: C_4  and  C_6
REMARK    6  A    between atoms: C_5  and  C_7
REMARK    7  A    between atoms: C_8  and  C_9
REMARK                            x       y       z     vdW  Elec       q    Type
REMARK                         _______ _______ _______ _____ _____    ______ ____
ROOT
ATOM      1  C   UNL     1      -2.390   9.493  12.072  0.00  0.00    +0.000 C 
ATOM      2  H   UNL     1      -2.356  10.236  12.879  0.00  0.00    +0.000 HD
ATOM      3  H   UNL     1      -3.401   9.560  11.649  0.00  0.00    +0.000 HD
ENDROOT
BRANCH   1   4
ATOM      4  C   UNL     1      -2.143   8.094  12.631  0.00  0.00    +0.000 C 
ATOM      5  H   UNL     1      -1.072   7.958  12.823  0.00  0.00    +0.000 HD
ATOM      6  H   UNL     1      -2.435   7.344  11.885  0.00  0.00    +0.000 HD
BRANCH   4   7
ATOM      7  C   UNL     1      -2.930   7.862  13.920  0.00  0.00    +0.000 C 
ATOM      8  H   UNL     1      -3.303   6.832  13.949  0.00  0.00    +0.000 HD
ATOM      9  H   UNL     1      -2.272   7.994  14.787  0.00  0.00    +0.000 HD
BRANCH   7  10
ATOM     10  C   UNL     1      -4.103   8.823  14.036  0.00  0.00    +0.000 C 
ATOM     11  H   UNL     1      -4.997   8.411  13.561  0.00  0.00    +0.000 HD
ATOM     12  H   UNL     1      -4.335   9.033  15.085  0.00  0.00    +0.000 HD
ATOM     13  H   UNL     1      -3.864   9.772  13.546  0.00  0.00    +0.000 HD
ENDBRANCH   7  10
ENDBRANCH   4   7
ENDBRANCH   1   4
BRANCH   1  14
ATOM     14  C   UNL     1      -1.372   9.861  11.003  0.00  0.00    +0.000 C 
ATOM     15  H   UNL     1      -0.886  10.810  11.260  0.00  0.00    +0.000 HD
ATOM     16  H   UNL     1      -1.870   9.966  10.032  0.00  0.00    +0.000 HD
BRANCH  14  17
ATOM     17  O   UNL     1      -0.394   8.834  10.927  0.00  0.00    +0.000 OA
BRANCH  17  19
ATOM     18  O   UNL     1       1.911   8.692  10.916  0.00  0.00    +0.000 OA
ATOM     19  C   UNL     1       0.867   9.236  10.582  0.00  0.00    +0.000 C 
BRANCH  19  20
ATOM     20  C   UNL     1       0.796  10.460   9.720  0.00  0.00    +0.000 C 
ATOM     21  H   UNL     1      -0.167  10.956   9.862  0.00  0.00    +0.000 HD
ATOM     22  H   UNL     1       0.937  10.184   8.673  0.00  0.00    +0.000 HD
ATOM     23  H   UNL     1       1.591  11.154  10.009  0.00  0.00    +0.000 HD
ENDBRANCH  19  20
ENDBRANCH  17  19
ENDBRANCH  14  17
ENDBRANCH   1  14
TORSDOF 7
ENDMDL
MODEL 10
REMARK VINA RESULT:    -3.277     28.516     29.849
REMARK INTER + INTRA:          -4.544
REMARK INTER:                  -4.426
REMARK INTRA:                  -0.118
REMARK UNBOUND:                -0.118
REMARK  Name = 12348
REMARK  7 active torsions:
REMARK  status: ('A' for Active; 'I' for Inactive)
REMARK    1  A    between atoms: O_1  and  C_6
REMARK    2  A    between atoms: O_1  and  C_8
REMARK    3  A    between atoms: C_3  and  C_4
REMARK    4  A    between atoms: C_3  and  C_5
REMARK    5  A    between atoms: C_4  and  C_6
REMARK    6  A    between atoms: C_5  and  C_7
REMARK    7  A    between atoms: C_8  and  C_9
REMARK                            x       y       z     vdW  Elec       q    Type
REMARK                         _______ _______ _______ _____ _____    ______ ____
ROOT
ATOM      1  C   UNL     1       0.563  -7.304  20.781  0.00  0.00    +0.000 C 
ATOM      2  H   UNL     1       0.811  -8.335  20.501  0.00  0.00    +0.000 HD
ATOM      3  H   UNL     1       0.615  -7.272  21.877  0.00  0.00    +0.000 HD
ENDROOT
BRANCH   1   4
ATOM      4  C   UNL     1      -0.846  -6.951  20.309  0.00  0.00    +0.000 C 
ATOM      5  H   UNL     1      -1.099  -7.550  19.426  0.00  0.00    +0.000 HD
ATOM      6  H   UNL     1      -0.878  -5.898  20.005  0.00  0.00    +0.000 HD
BRANCH   4   7
ATOM      7  C   UNL     1      -1.879  -7.196  21.409  0.00  0.00    +0.000 C 
ATOM      8  H   UNL     1      -2.343  -8.179  21.273  0.00  0.00    +0.000 HD
ATOM      9  H   UNL     1      -1.386  -7.201  22.388  0.00  0.00    +0.000 HD
BRANCH   7  10
ATOM     10  C   UNL     1      -2.960  -6.127  21.404  0.00  0.00    +0.000 C 
ATOM     11  H   UNL     1      -2.634  -5.235  21.947  0.00  0.00    +0.000 HD
ATOM     12  H   UNL     1      -3.217  -5.833  20.381  0.00  0.00    +0.000 HD
ATOM     13  H   UNL     1      -3.868  -6.505  21.886  0.00  0.00    +0.000 HD
ENDBRANCH   7  10
ENDBRANCH   4   7
ENDBRANCH   1   4
BRANCH   1  14
ATOM     14  C   UNL     1       1.604  -6.358  20.201  0.00  0.00    +0.000 C 
ATOM     15  H   UNL     1       2.610  -6.685  20.491  0.00  0.00    +0.000 HD
ATOM     16  H   UNL     1       1.436  -5.341  20.574  0.00  0.00    +0.000 HD
BRANCH  14  17
ATOM     17  O   UNL     1       1.495  -6.367  18.785  0.00  0.00    +0.000 OA
BRANCH  17  19
ATOM     18  O   UNL     1       3.392  -6.942  17.598  0.00  0.00    +0.000 OA
ATOM     19  C   UNL     1       2.648  -6.108  18.096  0.00  0.00    +0.000 C 
BRANCH  19  20
ATOM     20  C   UNL     1       2.883  -4.629  18.031  0.00  0.00    +0.000 C 
ATOM     21  H   UNL     1       3.945  -4.429  17.872  0.00  0.00    +0.000 HD
ATOM     22  H   UNL     1       2.537  -4.159  18.955  0.00  0.00    +0.000 HD
ATOM     23  H   UNL     1       2.320  -4.208  17.193  0.00  0.00    +0.000 HD
ENDBRANCH  19  20
ENDBRANCH  17  19
ENDBRANCH  14  17
ENDBRANCH   1  14
TORSDOF 7
ENDMDL
