MODEL 1
REMARK VINA RESULT:    -3.704      0.000      0.000
REMARK INTER + INTRA:          -4.471
REMARK INTER:                  -4.428
REMARK INTRA:                  -0.043
REMARK UNBOUND:                -0.010
REMARK  Name = 8063
REMARK  4 active torsions:
REMARK  status: ('A' for Active; 'I' for Inactive)
REMARK    1  A    between atoms: C_2  and  C_3
REMARK    2  A    between atoms: C_2  and  C_4
REMARK    3  A    between atoms: C_3  and  C_5
REMARK    4  A    between atoms: C_4  and  C_6
REMARK                            x       y       z     vdW  Elec       q    Type
REMARK                         _______ _______ _______ _____ _____    ______ ____
ROOT
ATOM      1  C   UNL     1       6.121   0.200  -2.926  0.00  0.00    +0.000 C 
ATOM      2  H   UNL     1       6.366   0.945  -2.159  0.00  0.00    +0.000 HD
ATOM      3  H   UNL     1       7.071  -0.097  -3.390  0.00  0.00    +0.000 HD
ENDROOT
BRANCH   1   4
ATOM      4  C   UNL     1       5.209   0.822  -3.981  0.00  0.00    +0.000 C 
ATOM      5  H   UNL     1       4.160   0.680  -3.698  0.00  0.00    +0.000 HD
ATOM      6  H   UNL     1       5.387   1.903  -4.035  0.00  0.00    +0.000 HD
BRANCH   4   7
ATOM      7  C   UNL     1       5.440   0.206  -5.352  0.00  0.00    +0.000 C 
ATOM      8  H   UNL     1       4.550  -0.342  -5.677  0.00  0.00    +0.000 HD
ATOM      9  H   UNL     1       6.282  -0.493  -5.331  0.00  0.00    +0.000 HD
ATOM     10  H   UNL     1       5.654   0.979  -6.098  0.00  0.00    +0.000 HD
ENDBRANCH   4   7
ENDBRANCH   1   4
BRANCH   1  11
ATOM     11  C   UNL     1       5.469  -1.015  -2.275  0.00  0.00    +0.000 C 
ATOM     12  H   UNL     1       4.436  -1.129  -2.620  0.00  0.00    +0.000 HD
ATOM     13  H   UNL     1       5.455  -0.902  -1.186  0.00  0.00    +0.000 HD
BRANCH  11  15
ATOM     14  O   UNL     1       7.331  -2.572  -2.215  0.00  0.00    +0.000 OA
ATOM     15  C   UNL     1       6.194  -2.302  -2.588  0.00  0.00    +0.000 C 
ATOM     16  H   UNL     1       5.625  -3.019  -3.205  0.00  0.00    +0.000 HD
ENDBRANCH  11  15
ENDBRANCH   1  11
TORSDOF 4
ENDMDL
MODEL 2
REMARK VINA RESULT:    -3.537      0.994      1.420
REMARK INTER + INTRA:          -4.271
REMARK INTER:                  -4.225
REMARK INTRA:                  -0.046
REMARK UNBOUND:                -0.010
REMARK  Name = 8063
REMARK  4 active torsions:
REMARK  status: ('A' for Active; 'I' for Inactive)
REMARK    1  A    between atoms: C_2  and  C_3
REMARK    2  A    between atoms: C_2  and  C_4
REMARK    3  A    between atoms: C_3  and  C_5
REMARK    4  A    between atoms: C_4  and  C_6
REMARK                            x       y       z     vdW  Elec       q    Type
REMARK                         _______ _______ _______ _____ _____    ______ ____
ROOT
ATOM      1  C   UNL     1       5.457  -1.019  -2.540  0.00  0.00    +0.000 C 
ATOM      2  H   UNL     1       4.472  -1.299  -2.935  0.00  0.00    +0.000 HD
ATOM      3  H   UNL     1       5.294  -0.654  -1.517  0.00  0.00    +0.000 HD
ENDROOT
BRANCH   1   4
ATOM      4  C   UNL     1       6.059   0.097  -3.391  0.00  0.00    +0.000 C 
ATOM      5  H   UNL     1       6.265   0.973  -2.766  0.00  0.00    +0.000 HD
ATOM      6  H   UNL     1       7.016  -0.233  -3.813  0.00  0.00    +0.000 HD
BRANCH   4   7
ATOM      7  C   UNL     1       5.126   0.502  -4.521  0.00  0.00    +0.000 C 
ATOM      8  H   UNL     1       5.025  -0.316  -5.241  0.00  0.00    +0.000 HD
ATOM      9  H   UNL     1       5.511   1.378  -5.053  0.00  0.00    +0.000 HD
ATOM     10  H   UNL     1       4.129   0.743  -4.139  0.00  0.00    +0.000 HD
ENDBRANCH   4   7
ENDBRANCH   1   4
BRANCH   1  11
ATOM     11  C   UNL     1       6.366  -2.244  -2.507  0.00  0.00    +0.000 C 
ATOM     12  H   UNL     1       6.479  -2.667  -3.510  0.00  0.00    +0.000 HD
ATOM     13  H   UNL     1       5.941  -3.016  -1.857  0.00  0.00    +0.000 HD
BRANCH  11  15
ATOM     14  O   UNL     1       8.792  -2.330  -2.497  0.00  0.00    +0.000 OA
ATOM     15  C   UNL     1       7.749  -1.928  -1.991  0.00  0.00    +0.000 C 
ATOM     16  H   UNL     1       7.776  -1.292  -1.090  0.00  0.00    +0.000 HD
ENDBRANCH  11  15
ENDBRANCH   1  11
TORSDOF 4
ENDMDL
MODEL 3
REMARK VINA RESULT:    -3.490      9.498     10.153
REMARK INTER + INTRA:          -4.214
REMARK INTER:                  -4.204
REMARK INTRA:                  -0.010
REMARK UNBOUND:                -0.010
REMARK  Name = 8063
REMARK  4 active torsions:
REMARK  status: ('A' for Active; 'I' for Inactive)
REMARK    1  A    between atoms: C_2  and  C_3
REMARK    2  A    between atoms: C_2  and  C_4
REMARK    3  A    between atoms: C_3  and  C_5
REMARK    4  A    between atoms: C_4  and  C_6
REMARK                            x       y       z     vdW  Elec       q    Type
REMARK                         _______ _______ _______ _____ _____    ______ ____
ROOT
ATOM      1  C   UNL     1      10.173   7.790  -4.000  0.00  0.00    +0.000 C 
ATOM      2  H   UNL     1       9.543   7.057  -3.480  0.00  0.00    +0.000 HD
ATOM      3  H   UNL     1      10.310   8.633  -3.310  0.00  0.00    +0.000 HD
ENDROOT
BRANCH   1   4
ATOM      4  C   UNL     1       9.467   8.273  -5.266  0.00  0.00    +0.000 C 
ATOM      5  H   UNL     1       8.763   9.076  -5.017  0.00  0.00    +0.000 HD
ATOM      6  H   UNL     1      10.202   8.691  -5.964  0.00  0.00    +0.000 HD
BRANCH   4   7
ATOM      7  C   UNL     1       8.711   7.145  -5.949  0.00  0.00    +0.000 C 
ATOM      8  H   UNL     1       8.274   7.496  -6.889  0.00  0.00    +0.000 HD
ATOM      9  H   UNL     1       7.900   6.775  -5.313  0.00  0.00    +0.000 HD
ATOM     10  H   UNL     1       9.378   6.307  -6.176  0.00  0.00    +0.000 HD
ENDBRANCH   4   7
ENDBRANCH   1   4
BRANCH   1  11
ATOM     11  C   UNL     1      11.528   7.168  -4.323  0.00  0.00    +0.000 C 
ATOM     12  H   UNL     1      11.739   7.239  -5.395  0.00  0.00    +0.000 HD
ATOM     13  H   UNL     1      11.538   6.110  -4.043  0.00  0.00    +0.000 HD
BRANCH  11  15
ATOM     14  O   UNL     1      13.817   7.913  -4.008  0.00  0.00    +0.000 OA
ATOM     15  C   UNL     1      12.665   7.842  -3.594  0.00  0.00    +0.000 C 
ATOM     16  H   UNL     1      12.396   8.282  -2.618  0.00  0.00    +0.000 HD
ENDBRANCH  11  15
ENDBRANCH   1  11
TORSDOF 4
ENDMDL
MODEL 4
REMARK VINA RESULT:    -3.442      2.043      2.188
REMARK INTER + INTRA:          -4.156
REMARK INTER:                  -4.144
REMARK INTRA:                  -0.012
REMARK UNBOUND:                -0.010
REMARK  Name = 8063
REMARK  4 active torsions:
REMARK  status: ('A' for Active; 'I' for Inactive)
REMARK    1  A    between atoms: C_2  and  C_3
REMARK    2  A    between atoms: C_2  and  C_4
REMARK    3  A    between atoms: C_3  and  C_5
REMARK    4  A    between atoms: C_4  and  C_6
REMARK                            x       y       z     vdW  Elec       q    Type
REMARK                         _______ _______ _______ _____ _____    ______ ____
ROOT
ATOM      1  C   UNL     1       5.588   1.007  -3.359  0.00  0.00    +0.000 C 
ATOM      2  H   UNL     1       4.615   0.678  -2.971  0.00  0.00    +0.000 HD
ATOM      3  H   UNL     1       5.431   2.004  -3.794  0.00  0.00    +0.000 HD
ENDROOT
BRANCH   1   4
ATOM      4  C   UNL     1       6.067   0.044  -4.443  0.00  0.00    +0.000 C 
ATOM      5  H   UNL     1       7.131   0.211  -4.646  0.00  0.00    +0.000 HD
ATOM      6  H   UNL     1       5.961  -0.989  -4.095  0.00  0.00    +0.000 HD
BRANCH   4   7
ATOM      7  C   UNL     1       5.282   0.222  -5.733  0.00  0.00    +0.000 C 
ATOM      8  H   UNL     1       5.544   1.172  -6.209  0.00  0.00    +0.000 HD
ATOM      9  H   UNL     1       4.204   0.225  -5.540  0.00  0.00    +0.000 HD
ATOM     10  H   UNL     1       5.501  -0.584  -6.440  0.00  0.00    +0.000 HD
ENDBRANCH   4   7
ENDBRANCH   1   4
BRANCH   1  11
ATOM     11  C   UNL     1       6.593   1.102  -2.216  0.00  0.00    +0.000 C 
ATOM     12  H   UNL     1       6.459   2.036  -1.661  0.00  0.00    +0.000 HD
ATOM     13  H   UNL     1       7.616   1.080  -2.606  0.00  0.00    +0.000 HD
BRANCH  11  15
ATOM     14  O   UNL     1       6.285   0.106  -0.023  0.00  0.00    +0.000 OA
ATOM     15  C   UNL     1       6.460  -0.033  -1.229  0.00  0.00    +0.000 C 
ATOM     16  H   UNL     1       6.538  -1.043  -1.668  0.00  0.00    +0.000 HD
ENDBRANCH  11  15
ENDBRANCH   1  11
TORSDOF 4
ENDMDL
MODEL 5
REMARK VINA RESULT:    -3.419      9.257      9.923
REMARK INTER + INTRA:          -4.128
REMARK INTER:                  -4.119
REMARK INTRA:                  -0.009
REMARK UNBOUND:                -0.010
REMARK  Name = 8063
REMARK  4 active torsions:
REMARK  status: ('A' for Active; 'I' for Inactive)
REMARK    1  A    between atoms: C_2  and  C_3
REMARK    2  A    between atoms: C_2  and  C_4
REMARK    3  A    between atoms: C_3  and  C_5
REMARK    4  A    between atoms: C_4  and  C_6
REMARK                            x       y       z     vdW  Elec       q    Type
REMARK                         _______ _______ _______ _____ _____    ______ ____
ROOT
ATOM      1  C   UNL     1       9.954   7.634  -3.859  0.00  0.00    +0.000 C 
ATOM      2  H   UNL     1       9.908   6.544  -3.739  0.00  0.00    +0.000 HD
ATOM      3  H   UNL     1       9.143   8.052  -3.248  0.00  0.00    +0.000 HD
ENDROOT
BRANCH   1   4
ATOM      4  C   UNL     1       9.734   8.005  -5.324  0.00  0.00    +0.000 C 
ATOM      5  H   UNL     1       9.451   9.061  -5.403  0.00  0.00    +0.000 HD
ATOM      6  H   UNL     1      10.668   7.877  -5.884  0.00  0.00    +0.000 HD
BRANCH   4   7
ATOM      7  C   UNL     1       8.647   7.151  -5.958  0.00  0.00    +0.000 C 
ATOM      8  H   UNL     1       7.851   7.787  -6.359  0.00  0.00    +0.000 HD
ATOM      9  H   UNL     1       8.203   6.472  -5.224  0.00  0.00    +0.000 HD
ATOM     10  H   UNL     1       9.050   6.552  -6.782  0.00  0.00    +0.000 HD
ENDBRANCH   4   7
ENDBRANCH   1   4
BRANCH   1  11
ATOM     11  C   UNL     1      11.295   8.152  -3.350  0.00  0.00    +0.000 C 
ATOM     12  H   UNL     1      11.329   9.246  -3.399  0.00  0.00    +0.000 HD
ATOM     13  H   UNL     1      12.113   7.758  -3.962  0.00  0.00    +0.000 HD
BRANCH  11  15
ATOM     14  O   UNL     1      11.243   8.415  -0.937  0.00  0.00    +0.000 OA
ATOM     15  C   UNL     1      11.567   7.755  -1.919  0.00  0.00    +0.000 C 
ATOM     16  H   UNL     1      12.104   6.799  -1.796  0.00  0.00    +0.000 HD
ENDBRANCH  11  15
ENDBRANCH   1  11
TORSDOF 4
ENDMDL
MODEL 6
REMARK VINA RESULT:    -3.343      9.371      9.625
REMARK INTER + INTRA:          -4.036
REMARK INTER:                  -4.026
REMARK INTRA:                  -0.010
REMARK UNBOUND:                -0.010
REMARK  Name = 8063
REMARK  4 active torsions:
REMARK  status: ('A' for Active; 'I' for Inactive)
REMARK    1  A    between atoms: C_2  and  C_3
REMARK    2  A    between atoms: C_2  and  C_4
REMARK    3  A    between atoms: C_3  and  C_5
REMARK    4  A    between atoms: C_4  and  C_6
REMARK                            x       y       z     vdW  Elec       q    Type
REMARK                         _______ _______ _______ _____ _____    ______ ____
ROOT
ATOM      1  C   UNL     1       9.498   7.883  -2.984  0.00  0.00    +0.000 C 
ATOM      2  H   UNL     1       8.419   7.690  -3.028  0.00  0.00    +0.000 HD
ATOM      3  H   UNL     1       9.623   8.974  -3.011  0.00  0.00    +0.000 HD
ENDROOT
BRANCH   1   4
ATOM      4  C   UNL     1      10.186   7.259  -4.196  0.00  0.00    +0.000 C 
ATOM      5  H   UNL     1      11.102   7.814  -4.433  0.00  0.00    +0.000 HD
ATOM      6  H   UNL     1      10.482   6.229  -3.966  0.00  0.00    +0.000 HD
BRANCH   4   7
ATOM      7  C   UNL     1       9.277   7.259  -5.415  0.00  0.00    +0.000 C 
ATOM      8  H   UNL     1       9.636   6.538  -6.156  0.00  0.00    +0.000 HD
ATOM      9  H   UNL     1       9.253   8.247  -5.887  0.00  0.00    +0.000 HD
ATOM     10  H   UNL     1       8.254   6.984  -5.142  0.00  0.00    +0.000 HD
ENDBRANCH   4   7
ENDBRANCH   1   4
BRANCH   1  11
ATOM     11  C   UNL     1      10.068   7.336  -1.679  0.00  0.00    +0.000 C 
ATOM     12  H   UNL     1      11.160   7.280  -1.730  0.00  0.00    +0.000 HD
ATOM     13  H   UNL     1       9.682   6.330  -1.488  0.00  0.00    +0.000 HD
BRANCH  11  15
ATOM     14  O   UNL     1       8.705   8.884  -0.397  0.00  0.00    +0.000 OA
ATOM     15  C   UNL     1       9.714   8.192  -0.487  0.00  0.00    +0.000 C 
ATOM     16  H   UNL     1      10.448   8.168   0.337  0.00  0.00    +0.000 HD
ENDBRANCH  11  15
ENDBRANCH   1  11
TORSDOF 4
ENDMDL
MODEL 7
REMARK VINA RESULT:    -3.336      2.506      3.300
REMARK INTER + INTRA:          -4.028
REMARK INTER:                  -3.971
REMARK INTRA:                  -0.057
REMARK UNBOUND:                -0.010
REMARK  Name = 8063
REMARK  4 active torsions:
REMARK  status: ('A' for Active; 'I' for Inactive)
REMARK    1  A    between atoms: C_2  and  C_3
REMARK    2  A    between atoms: C_2  and  C_4
REMARK    3  A    between atoms: C_3  and  C_5
REMARK    4  A    between atoms: C_4  and  C_6
REMARK                            x       y       z     vdW  Elec       q    Type
REMARK                         _______ _______ _______ _____ _____    ______ ____
ROOT
ATOM      1  C   UNL     1       6.717  -1.245  -4.562  0.00  0.00    +0.000 C 
ATOM      2  H   UNL     1       5.952  -0.673  -5.103  0.00  0.00    +0.000 HD
ATOM      3  H   UNL     1       6.675  -2.271  -4.952  0.00  0.00    +0.000 HD
ENDROOT
BRANCH   1   4
ATOM      4  C   UNL     1       6.400  -1.252  -3.068  0.00  0.00    +0.000 C 
ATOM      5  H   UNL     1       7.252  -0.855  -2.504  0.00  0.00    +0.000 HD
ATOM      6  H   UNL     1       5.544  -0.597  -2.867  0.00  0.00    +0.000 HD
BRANCH   4   7
ATOM      7  C   UNL     1       6.086  -2.655  -2.571  0.00  0.00    +0.000 C 
ATOM      8  H   UNL     1       5.901  -2.642  -1.492  0.00  0.00    +0.000 HD
ATOM      9  H   UNL     1       6.922  -3.335  -2.764  0.00  0.00    +0.000 HD
ATOM     10  H   UNL     1       5.196  -3.056  -3.065  0.00  0.00    +0.000 HD
ENDBRANCH   4   7
ENDBRANCH   1   4
BRANCH   1  11
ATOM     11  C   UNL     1       8.094  -0.650  -4.835  0.00  0.00    +0.000 C 
ATOM     12  H   UNL     1       8.086   0.433  -4.670  0.00  0.00    +0.000 HD
ATOM     13  H   UNL     1       8.390  -0.835  -5.873  0.00  0.00    +0.000 HD
BRANCH  11  15
ATOM     14  O   UNL     1       9.946  -0.575  -3.267  0.00  0.00    +0.000 OA
ATOM     15  C   UNL     1       9.166  -1.234  -3.947  0.00  0.00    +0.000 C 
ATOM     16  H   UNL     1       9.220  -2.336  -3.945  0.00  0.00    +0.000 HD
ENDBRANCH  11  15
ENDBRANCH   1  11
TORSDOF 4
ENDMDL
MODEL 8
REMARK VINA RESULT:    -3.300      1.358      1.981
REMARK INTER + INTRA:          -3.985
REMARK INTER:                  -3.929
REMARK INTRA:                  -0.055
REMARK UNBOUND:                -0.010
REMARK  Name = 8063
REMARK  4 active torsions:
REMARK  status: ('A' for Active; 'I' for Inactive)
REMARK    1  A    between atoms: C_2  and  C_3
REMARK    2  A    between atoms: C_2  and  C_4
REMARK    3  A    between atoms: C_3  and  C_5
REMARK    4  A    between atoms: C_4  and  C_6
REMARK                            x       y       z     vdW  Elec       q    Type
REMARK                         _______ _______ _______ _____ _____    ______ ____
ROOT
ATOM      1  C   UNL     1       5.363   0.044  -3.891  0.00  0.00    +0.000 C 
ATOM      2  H   UNL     1       4.997   0.238  -4.907  0.00  0.00    +0.000 HD
ATOM      3  H   UNL     1       4.571  -0.515  -3.374  0.00  0.00    +0.000 HD
ENDROOT
BRANCH   1   4
ATOM      4  C   UNL     1       5.612   1.366  -3.168  0.00  0.00    +0.000 C 
ATOM      5  H   UNL     1       5.966   2.120  -3.880  0.00  0.00    +0.000 HD
ATOM      6  H   UNL     1       4.674   1.738  -2.740  0.00  0.00    +0.000 HD
BRANCH   4   7
ATOM      7  C   UNL     1       6.641   1.209  -2.059  0.00  0.00    +0.000 C 
ATOM      8  H   UNL     1       6.145   0.982  -1.110  0.00  0.00    +0.000 HD
ATOM      9  H   UNL     1       7.221   2.129  -1.929  0.00  0.00    +0.000 HD
ATOM     10  H   UNL     1       7.337   0.394  -2.282  0.00  0.00    +0.000 HD
ENDBRANCH   4   7
ENDBRANCH   1   4
BRANCH   1  11
ATOM     11  C   UNL     1       6.629  -0.804  -3.952  0.00  0.00    +0.000 C 
ATOM     12  H   UNL     1       7.457  -0.297  -3.444  0.00  0.00    +0.000 HD
ATOM     13  H   UNL     1       6.922  -0.976  -4.993  0.00  0.00    +0.000 HD
BRANCH  11  15
ATOM     14  O   UNL     1       5.673  -2.395  -2.388  0.00  0.00    +0.000 OA
ATOM     15  C   UNL     1       6.458  -2.154  -3.300  0.00  0.00    +0.000 C 
ATOM     16  H   UNL     1       7.110  -2.950  -3.698  0.00  0.00    +0.000 HD
ENDBRANCH  11  15
ENDBRANCH   1  11
TORSDOF 4
ENDMDL
MODEL 9
REMARK VINA RESULT:    -3.232      2.334      3.427
REMARK INTER + INTRA:          -3.903
REMARK INTER:                  -3.844
REMARK INTRA:                  -0.060
REMARK UNBOUND:                -0.010
REMARK  Name = 8063
REMARK  4 active torsions:
REMARK  status: ('A' for Active; 'I' for Inactive)
REMARK    1  A    between atoms: C_2  and  C_3
REMARK    2  A    between atoms: C_2  and  C_4
REMARK    3  A    between atoms: C_3  and  C_5
REMARK    4  A    between atoms: C_4  and  C_6
REMARK                            x       y       z     vdW  Elec       q    Type
REMARK                         _______ _______ _______ _____ _____    ______ ____
ROOT
ATOM      1  C   UNL     1       6.351  -1.924  -3.098  0.00  0.00    +0.000 C 
ATOM      2  H   UNL     1       5.854  -2.902  -3.150  0.00  0.00    +0.000 HD
ATOM      3  H   UNL     1       7.310  -2.086  -2.588  0.00  0.00    +0.000 HD
ENDROOT
BRANCH   1   4
ATOM      4  C   UNL     1       5.497  -0.951  -2.288  0.00  0.00    +0.000 C 
ATOM      5  H   UNL     1       5.161  -0.127  -2.928  0.00  0.00    +0.000 HD
ATOM      6  H   UNL     1       4.601  -1.462  -1.919  0.00  0.00    +0.000 HD
BRANCH   4   7
ATOM      7  C   UNL     1       6.270  -0.379  -1.110  0.00  0.00    +0.000 C 
ATOM      8  H   UNL     1       5.616   0.247  -0.495  0.00  0.00    +0.000 HD
ATOM      9  H   UNL     1       7.108   0.237  -1.452  0.00  0.00    +0.000 HD
ATOM     10  H   UNL     1       6.668  -1.179  -0.477  0.00  0.00    +0.000 HD
ENDBRANCH   4   7
ENDBRANCH   1   4
BRANCH   1  11
ATOM     11  C   UNL     1       6.604  -1.400  -4.508  0.00  0.00    +0.000 C 
ATOM     12  H   UNL     1       6.226  -2.106  -5.255  0.00  0.00    +0.000 HD
ATOM     13  H   UNL     1       7.678  -1.267  -4.678  0.00  0.00    +0.000 HD
BRANCH  11  15
ATOM     14  O   UNL     1       5.299   0.209  -5.774  0.00  0.00    +0.000 OA
ATOM     15  C   UNL     1       5.935  -0.071  -4.763  0.00  0.00    +0.000 C 
ATOM     16  H   UNL     1       6.060   0.674  -3.958  0.00  0.00    +0.000 HD
ENDBRANCH  11  15
ENDBRANCH   1  11
TORSDOF 4
ENDMDL
MODEL 10
REMARK VINA RESULT:    -3.040      2.560      3.597
REMARK INTER + INTRA:          -3.671
REMARK INTER:                  -3.662
REMARK INTRA:                  -0.010
REMARK UNBOUND:                -0.010
REMARK  Name = 8063
REMARK  4 active torsions:
REMARK  status: ('A' for Active; 'I' for Inactive)
REMARK    1  A    between atoms: C_2  and  C_3
REMARK    2  A    between atoms: C_2  and  C_4
REMARK    3  A    between atoms: C_3  and  C_5
REMARK    4  A    between atoms: C_4  and  C_6
REMARK                            x       y       z     vdW  Elec       q    Type
REMARK                         _______ _______ _______ _____ _____    ______ ____
ROOT
ATOM      1  C   UNL     1       6.888   0.681  -2.763  0.00  0.00    +0.000 C 
ATOM      2  H   UNL     1       7.627  -0.074  -2.468  0.00  0.00    +0.000 HD
ATOM      3  H   UNL     1       7.334   1.252  -3.588  0.00  0.00    +0.000 HD
ENDROOT
BRANCH   1   4
ATOM      4  C   UNL     1       6.603   1.615  -1.589  0.00  0.00    +0.000 C 
ATOM      5  H   UNL     1       6.295   2.599  -1.961  0.00  0.00    +0.000 HD
ATOM      6  H   UNL     1       5.774   1.220  -0.992  0.00  0.00    +0.000 HD
BRANCH   4   7
ATOM      7  C   UNL     1       7.826   1.782  -0.700  0.00  0.00    +0.000 C 
ATOM      8  H   UNL     1       8.541   0.973  -0.883  0.00  0.00    +0.000 HD
ATOM      9  H   UNL     1       7.548   1.756   0.359  0.00  0.00    +0.000 HD
ATOM     10  H   UNL     1       8.330   2.732  -0.900  0.00  0.00    +0.000 HD
ENDBRANCH   4   7
ENDBRANCH   1   4
BRANCH   1  11
ATOM     11  C   UNL     1       5.614  -0.005  -3.248  0.00  0.00    +0.000 C 
ATOM     12  H   UNL     1       4.823   0.077  -2.496  0.00  0.00    +0.000 HD
ATOM     13  H   UNL     1       5.801  -1.068  -3.432  0.00  0.00    +0.000 HD
BRANCH  11  15
ATOM     14  O   UNL     1       5.309   0.151  -5.651  0.00  0.00    +0.000 OA
ATOM     15  C   UNL     1       5.084   0.592  -4.529  0.00  0.00    +0.000 C 
ATOM     16  H   UNL     1       4.459   1.492  -4.399  0.00  0.00    +0.000 HD
ENDBRANCH  11  15
ENDBRANCH   1  11
TORSDOF 4
ENDMDL
