MODEL 1
REMARK VINA RESULT:    -4.413      0.000      0.000
REMARK INTER + INTRA:          -6.896
REMARK INTER:                  -6.100
REMARK INTRA:                  -0.796
REMARK UNBOUND:                -0.807
REMARK  Name = 125098
REMARK  8 active torsions:
REMARK  status: ('A' for Active; 'I' for Inactive)
REMARK    1  A    between atoms: O_1  and  C_11
REMARK    2  A    between atoms: O_1  and  C_13
REMARK    3  A    between atoms: O_2  and  C_12
REMARK    4  A    between atoms: C_5  and  C_10
REMARK    5  A    between atoms: C_10  and  C_12
REMARK    6  A    between atoms: C_13  and  C_14
REMARK    7  A    between atoms: C_13  and  C_15
REMARK    8  A    between atoms: C_14  and  C_16
REMARK                            x       y       z     vdW  Elec       q    Type
REMARK                         _______ _______ _______ _____ _____    ______ ____
ROOT
ATOM      1  O   UNL     1     -18.913 -12.482  -0.266  0.00  0.00    +0.000 OA
ATOM      2  N   UNL     1     -18.154 -11.270   1.572  0.00  0.00    +0.000 N 
ATOM      3  C   UNL     1     -17.506 -10.047   2.093  0.00  0.00    +0.000 C 
ATOM      4  C   UNL     1     -18.026  -9.691   3.494  0.00  0.00    +0.000 C 
ATOM      5  C   UNL     1     -18.018 -10.880   4.450  0.00  0.00    +0.000 C 
ATOM      6  C   UNL     1     -18.782 -12.050   3.843  0.00  0.00    +0.000 C 
ATOM      7  C   UNL     1     -18.225 -12.423   2.474  0.00  0.00    +0.000 C 
ATOM      8  C   UNL     1     -18.524 -11.425   0.228  0.00  0.00    +0.000 C 
ATOM      9  H   UNL     1     -17.768  -9.206   1.442  0.00  0.00    +0.000 HD
ATOM     10  H   UNL     1     -19.059  -9.331   3.399  0.00  0.00    +0.000 HD
ATOM     11  H   UNL     1     -17.445  -8.865   3.920  0.00  0.00    +0.000 HD
ATOM     12  H   UNL     1     -18.481 -10.591   5.400  0.00  0.00    +0.000 HD
ATOM     13  H   UNL     1     -16.989 -11.180   4.675  0.00  0.00    +0.000 HD
ATOM     14  H   UNL     1     -18.733 -12.916   4.512  0.00  0.00    +0.000 HD
ATOM     15  H   UNL     1     -19.840 -11.778   3.743  0.00  0.00    +0.000 HD
ATOM     16  H   UNL     1     -17.209 -12.825   2.570  0.00  0.00    +0.000 HD
ATOM     17  H   UNL     1     -18.840 -13.213   2.033  0.00  0.00    +0.000 HD
ENDROOT
BRANCH   3  18
ATOM     18  C   UNL     1     -15.981 -10.186   2.057  0.00  0.00    +0.000 C 
ATOM     19  H   UNL     1     -15.677 -11.238   2.015  0.00  0.00    +0.000 HD
ATOM     20  H   UNL     1     -15.546  -9.791   2.984  0.00  0.00    +0.000 HD
BRANCH  18  21
ATOM     21  C   UNL     1     -15.387  -9.456   0.868  0.00  0.00    +0.000 C 
ATOM     22  H   UNL     1     -14.421  -9.002   1.097  0.00  0.00    +0.000 HD
ATOM     23  H   UNL     1     -15.277 -10.109  -0.002  0.00  0.00    +0.000 HD
BRANCH  21  24
ATOM     24  O   UNL     1     -16.254  -8.385   0.520  0.00  0.00    +0.000 OA
ATOM     25  H   UNL     1     -15.941  -8.015  -0.323  0.00  0.00    +0.000 HD
ENDBRANCH  21  24
ENDBRANCH  18  21
ENDBRANCH   3  18
BRANCH   8  26
ATOM     26  O   UNL     1     -18.401 -10.267  -0.491  0.00  0.00    +0.000 OA
BRANCH  26  27
ATOM     27  C   UNL     1     -18.461 -10.397  -1.916  0.00  0.00    +0.000 C 
ATOM     28  H   UNL     1     -18.716 -11.437  -2.160  0.00  0.00    +0.000 HD
BRANCH  27  29
ATOM     29  C   UNL     1     -17.088 -10.091  -2.498  0.00  0.00    +0.000 C 
ATOM     30  H   UNL     1     -16.719  -9.121  -2.146  0.00  0.00    +0.000 HD
ATOM     31  H   UNL     1     -16.362 -10.839  -2.160  0.00  0.00    +0.000 HD
ATOM     32  H   UNL     1     -17.090 -10.094  -3.591  0.00  0.00    +0.000 HD
ENDBRANCH  27  29
BRANCH  27  33
ATOM     33  C   UNL     1     -19.520  -9.438  -2.463  0.00  0.00    +0.000 C 
ATOM     34  H   UNL     1     -19.486  -8.471  -1.949  0.00  0.00    +0.000 HD
ATOM     35  H   UNL     1     -19.319  -9.214  -3.518  0.00  0.00    +0.000 HD
BRANCH  33  36
ATOM     36  C   UNL     1     -20.932  -9.990  -2.312  0.00  0.00    +0.000 C 
ATOM     37  H   UNL     1     -21.024 -10.598  -1.407  0.00  0.00    +0.000 HD
ATOM     38  H   UNL     1     -21.225 -10.596  -3.173  0.00  0.00    +0.000 HD
ATOM     39  H   UNL     1     -21.648  -9.165  -2.238  0.00  0.00    +0.000 HD
ENDBRANCH  33  36
ENDBRANCH  27  33
ENDBRANCH  26  27
ENDBRANCH   8  26
TORSDOF 8
ENDMDL
MODEL 2
REMARK VINA RESULT:    -4.268     17.585     20.174
REMARK INTER + INTRA:          -6.697
REMARK INTER:                  -5.921
REMARK INTRA:                  -0.775
REMARK UNBOUND:                -0.807
REMARK  Name = 125098
REMARK  8 active torsions:
REMARK  status: ('A' for Active; 'I' for Inactive)
REMARK    1  A    between atoms: O_1  and  C_11
REMARK    2  A    between atoms: O_1  and  C_13
REMARK    3  A    between atoms: O_2  and  C_12
REMARK    4  A    between atoms: C_5  and  C_10
REMARK    5  A    between atoms: C_10  and  C_12
REMARK    6  A    between atoms: C_13  and  C_14
REMARK    7  A    between atoms: C_13  and  C_15
REMARK    8  A    between atoms: C_14  and  C_16
REMARK                            x       y       z     vdW  Elec       q    Type
REMARK                         _______ _______ _______ _____ _____    ______ ____
ROOT
ATOM      1  O   UNL     1     -16.142  -0.966  15.484  0.00  0.00    +0.000 OA
ATOM      2  N   UNL     1     -16.183  -0.153  17.666  0.00  0.00    +0.000 N 
ATOM      3  C   UNL     1     -16.723  -0.257  19.039  0.00  0.00    +0.000 C 
ATOM      4  C   UNL     1     -15.696   0.206  20.082  0.00  0.00    +0.000 C 
ATOM      5  C   UNL     1     -15.067   1.554  19.739  0.00  0.00    +0.000 C 
ATOM      6  C   UNL     1     -14.474   1.517  18.336  0.00  0.00    +0.000 C 
ATOM      7  C   UNL     1     -15.517   1.102  17.305  0.00  0.00    +0.000 C 
ATOM      8  C   UNL     1     -16.440  -1.105  16.669  0.00  0.00    +0.000 C 
ATOM      9  H   UNL     1     -16.932  -1.311  19.255  0.00  0.00    +0.000 HD
ATOM     10  H   UNL     1     -14.895  -0.543  20.137  0.00  0.00    +0.000 HD
ATOM     11  H   UNL     1     -16.152   0.250  21.078  0.00  0.00    +0.000 HD
ATOM     12  H   UNL     1     -14.282   1.789  20.466  0.00  0.00    +0.000 HD
ATOM     13  H   UNL     1     -15.816   2.351  19.808  0.00  0.00    +0.000 HD
ATOM     14  H   UNL     1     -14.067   2.501  18.077  0.00  0.00    +0.000 HD
ATOM     15  H   UNL     1     -13.639   0.806  18.316  0.00  0.00    +0.000 HD
ATOM     16  H   UNL     1     -16.294   1.870  17.216  0.00  0.00    +0.000 HD
ATOM     17  H   UNL     1     -15.043   1.011  16.323  0.00  0.00    +0.000 HD
ENDROOT
BRANCH   3  18
ATOM     18  C   UNL     1     -18.051   0.497  19.156  0.00  0.00    +0.000 C 
ATOM     19  H   UNL     1     -18.211   1.161  18.297  0.00  0.00    +0.000 HD
ATOM     20  H   UNL     1     -18.033   1.154  20.035  0.00  0.00    +0.000 HD
BRANCH  18  21
ATOM     21  C   UNL     1     -19.223  -0.458  19.262  0.00  0.00    +0.000 C 
ATOM     22  H   UNL     1     -18.941  -1.418  19.699  0.00  0.00    +0.000 HD
ATOM     23  H   UNL     1     -20.049  -0.033  19.840  0.00  0.00    +0.000 HD
BRANCH  21  24
ATOM     24  O   UNL     1     -19.692  -0.742  17.952  0.00  0.00    +0.000 OA
ATOM     25  H   UNL     1     -18.978  -1.201  17.477  0.00  0.00    +0.000 HD
ENDBRANCH  21  24
ENDBRANCH  18  21
ENDBRANCH   3  18
BRANCH   8  26
ATOM     26  O   UNL     1     -17.071  -2.220  17.154  0.00  0.00    +0.000 OA
BRANCH  26  27
ATOM     27  C   UNL     1     -16.482  -3.480  16.809  0.00  0.00    +0.000 C 
ATOM     28  H   UNL     1     -15.799  -3.325  15.964  0.00  0.00    +0.000 HD
BRANCH  27  29
ATOM     29  C   UNL     1     -17.583  -4.434  16.369  0.00  0.00    +0.000 C 
ATOM     30  H   UNL     1     -18.570  -4.053  16.651  0.00  0.00    +0.000 HD
ATOM     31  H   UNL     1     -17.587  -4.523  15.276  0.00  0.00    +0.000 HD
ATOM     32  H   UNL     1     -17.456  -5.436  16.787  0.00  0.00    +0.000 HD
ENDBRANCH  27  29
BRANCH  27  33
ATOM     33  C   UNL     1     -15.726  -4.027  18.022  0.00  0.00    +0.000 C 
ATOM     34  H   UNL     1     -15.447  -5.077  17.877  0.00  0.00    +0.000 HD
ATOM     35  H   UNL     1     -14.779  -3.489  18.151  0.00  0.00    +0.000 HD
BRANCH  33  36
ATOM     36  C   UNL     1     -16.548  -3.941  19.301  0.00  0.00    +0.000 C 
ATOM     37  H   UNL     1     -17.494  -3.419  19.129  0.00  0.00    +0.000 HD
ATOM     38  H   UNL     1     -16.004  -3.429  20.099  0.00  0.00    +0.000 HD
ATOM     39  H   UNL     1     -16.780  -4.948  19.663  0.00  0.00    +0.000 HD
ENDBRANCH  33  36
ENDBRANCH  27  33
ENDBRANCH  26  27
ENDBRANCH   8  26
TORSDOF 8
ENDMDL
MODEL 3
REMARK VINA RESULT:    -4.024      1.730      2.571
REMARK INTER + INTRA:          -6.360
REMARK INTER:                  -5.432
REMARK INTRA:                  -0.928
REMARK UNBOUND:                -0.807
REMARK  Name = 125098
REMARK  8 active torsions:
REMARK  status: ('A' for Active; 'I' for Inactive)
REMARK    1  A    between atoms: O_1  and  C_11
REMARK    2  A    between atoms: O_1  and  C_13
REMARK    3  A    between atoms: O_2  and  C_12
REMARK    4  A    between atoms: C_5  and  C_10
REMARK    5  A    between atoms: C_10  and  C_12
REMARK    6  A    between atoms: C_13  and  C_14
REMARK    7  A    between atoms: C_13  and  C_15
REMARK    8  A    between atoms: C_14  and  C_16
REMARK                            x       y       z     vdW  Elec       q    Type
REMARK                         _______ _______ _______ _____ _____    ______ ____
ROOT
ATOM      1  O   UNL     1     -19.329 -12.492   1.285  0.00  0.00    +0.000 OA
ATOM      2  N   UNL     1     -17.675 -10.878   0.993  0.00  0.00    +0.000 N 
ATOM      3  C   UNL     1     -16.697 -10.225   0.096  0.00  0.00    +0.000 C 
ATOM      4  C   UNL     1     -16.493  -8.749   0.468  0.00  0.00    +0.000 C 
ATOM      5  C   UNL     1     -16.237  -8.543   1.958  0.00  0.00    +0.000 C 
ATOM      6  C   UNL     1     -17.348  -9.186   2.779  0.00  0.00    +0.000 C 
ATOM      7  C   UNL     1     -17.508 -10.661   2.433  0.00  0.00    +0.000 C 
ATOM      8  C   UNL     1     -18.615 -11.817   0.544  0.00  0.00    +0.000 C 
ATOM      9  H   UNL     1     -17.095 -10.236  -0.925  0.00  0.00    +0.000 HD
ATOM     10  H   UNL     1     -17.400  -8.194   0.194  0.00  0.00    +0.000 HD
ATOM     11  H   UNL     1     -15.673  -8.316  -0.115  0.00  0.00    +0.000 HD
ATOM     12  H   UNL     1     -16.190  -7.470   2.178  0.00  0.00    +0.000 HD
ATOM     13  H   UNL     1     -15.269  -8.969   2.240  0.00  0.00    +0.000 HD
ATOM     14  H   UNL     1     -17.135  -9.076   3.848  0.00  0.00    +0.000 HD
ATOM     15  H   UNL     1     -18.292  -8.662   2.581  0.00  0.00    +0.000 HD
ATOM     16  H   UNL     1     -16.622 -11.225   2.746  0.00  0.00    +0.000 HD
ATOM     17  H   UNL     1     -18.360 -11.074   2.981  0.00  0.00    +0.000 HD
ENDROOT
BRANCH   3  18
ATOM     18  C   UNL     1     -15.380 -11.006   0.073  0.00  0.00    +0.000 C 
ATOM     19  H   UNL     1     -15.423 -11.881   0.734  0.00  0.00    +0.000 HD
ATOM     20  H   UNL     1     -14.567 -10.382   0.465  0.00  0.00    +0.000 HD
BRANCH  18  21
ATOM     21  C   UNL     1     -15.034 -11.467  -1.329  0.00  0.00    +0.000 C 
ATOM     22  H   UNL     1     -14.196 -10.912  -1.756  0.00  0.00    +0.000 HD
ATOM     23  H   UNL     1     -14.808 -12.537  -1.366  0.00  0.00    +0.000 HD
BRANCH  21  24
ATOM     24  O   UNL     1     -16.148 -11.213  -2.173  0.00  0.00    +0.000 OA
ATOM     25  H   UNL     1     -16.948 -11.498  -1.699  0.00  0.00    +0.000 HD
ENDBRANCH  21  24
ENDBRANCH  18  21
ENDBRANCH   3  18
BRANCH   8  26
ATOM     26  O   UNL     1     -18.656 -11.913  -0.821  0.00  0.00    +0.000 OA
BRANCH  26  27
ATOM     27  C   UNL     1     -19.949 -11.798  -1.425  0.00  0.00    +0.000 C 
ATOM     28  H   UNL     1     -20.674 -12.337  -0.801  0.00  0.00    +0.000 HD
BRANCH  27  29
ATOM     29  C   UNL     1     -19.914 -12.457  -2.797  0.00  0.00    +0.000 C 
ATOM     30  H   UNL     1     -20.275 -11.771  -3.572  0.00  0.00    +0.000 HD
ATOM     31  H   UNL     1     -18.881 -12.709  -3.065  0.00  0.00    +0.000 HD
ATOM     32  H   UNL     1     -20.504 -13.376  -2.833  0.00  0.00    +0.000 HD
ENDBRANCH  27  29
BRANCH  27  33
ATOM     33  C   UNL     1     -20.322 -10.318  -1.531  0.00  0.00    +0.000 C 
ATOM     34  H   UNL     1     -21.316 -10.188  -1.972  0.00  0.00    +0.000 HD
ATOM     35  H   UNL     1     -20.387  -9.873  -0.530  0.00  0.00    +0.000 HD
BRANCH  33  36
ATOM     36  C   UNL     1     -19.333  -9.533  -2.382  0.00  0.00    +0.000 C 
ATOM     37  H   UNL     1     -18.365 -10.041  -2.433  0.00  0.00    +0.000 HD
ATOM     38  H   UNL     1     -19.179  -8.522  -1.997  0.00  0.00    +0.000 HD
ATOM     39  H   UNL     1     -19.717  -9.435  -3.403  0.00  0.00    +0.000 HD
ENDBRANCH  33  36
ENDBRANCH  27  33
ENDBRANCH  26  27
ENDBRANCH   8  26
TORSDOF 8
ENDMDL
MODEL 4
REMARK VINA RESULT:    -4.009      1.805      5.103
REMARK INTER + INTRA:          -6.340
REMARK INTER:                  -5.611
REMARK INTRA:                  -0.729
REMARK UNBOUND:                -0.807
REMARK  Name = 125098
REMARK  8 active torsions:
REMARK  status: ('A' for Active; 'I' for Inactive)
REMARK    1  A    between atoms: O_1  and  C_11
REMARK    2  A    between atoms: O_1  and  C_13
REMARK    3  A    between atoms: O_2  and  C_12
REMARK    4  A    between atoms: C_5  and  C_10
REMARK    5  A    between atoms: C_10  and  C_12
REMARK    6  A    between atoms: C_13  and  C_14
REMARK    7  A    between atoms: C_13  and  C_15
REMARK    8  A    between atoms: C_14  and  C_16
REMARK                            x       y       z     vdW  Elec       q    Type
REMARK                         _______ _______ _______ _____ _____    ______ ____
ROOT
ATOM      1  O   UNL     1     -14.798 -10.202   0.049  0.00  0.00    +0.000 OA
ATOM      2  N   UNL     1     -17.014 -10.650  -0.511  0.00  0.00    +0.000 N 
ATOM      3  C   UNL     1     -18.265 -11.381  -0.213  0.00  0.00    +0.000 C 
ATOM      4  C   UNL     1     -19.500 -10.571  -0.634  0.00  0.00    +0.000 C 
ATOM      5  C   UNL     1     -19.397 -10.026  -2.055  0.00  0.00    +0.000 C 
ATOM      6  C   UNL     1     -18.112  -9.225  -2.221  0.00  0.00    +0.000 C 
ATOM      7  C   UNL     1     -16.890 -10.056  -1.845  0.00  0.00    +0.000 C 
ATOM      8  C   UNL     1     -15.900 -10.663   0.341  0.00  0.00    +0.000 C 
ATOM      9  H   UNL     1     -18.340 -11.521   0.871  0.00  0.00    +0.000 HD
ATOM     10  H   UNL     1     -19.610  -9.723   0.054  0.00  0.00    +0.000 HD
ATOM     11  H   UNL     1     -20.409 -11.176  -0.531  0.00  0.00    +0.000 HD
ATOM     12  H   UNL     1     -20.261  -9.386  -2.268  0.00  0.00    +0.000 HD
ATOM     13  H   UNL     1     -19.423 -10.847  -2.780  0.00  0.00    +0.000 HD
ATOM     14  H   UNL     1     -18.019  -8.876  -3.255  0.00  0.00    +0.000 HD
ATOM     15  H   UNL     1     -18.157  -8.335  -1.582  0.00  0.00    +0.000 HD
ATOM     16  H   UNL     1     -16.753 -10.878  -2.557  0.00  0.00    +0.000 HD
ATOM     17  H   UNL     1     -15.993  -9.431  -1.901  0.00  0.00    +0.000 HD
ENDROOT
BRANCH   3  18
ATOM     18  C   UNL     1     -18.240 -12.775  -0.846  0.00  0.00    +0.000 C 
ATOM     19  H   UNL     1     -17.261 -12.995  -1.289  0.00  0.00    +0.000 HD
ATOM     20  H   UNL     1     -18.955 -12.823  -1.677  0.00  0.00    +0.000 HD
BRANCH  18  21
ATOM     21  C   UNL     1     -18.572 -13.850   0.170  0.00  0.00    +0.000 C 
ATOM     22  H   UNL     1     -19.643 -13.920   0.369  0.00  0.00    +0.000 HD
ATOM     23  H   UNL     1     -18.202 -14.833  -0.137  0.00  0.00    +0.000 HD
BRANCH  21  24
ATOM     24  O   UNL     1     -17.962 -13.505   1.405  0.00  0.00    +0.000 OA
ATOM     25  H   UNL     1     -18.661 -13.182   1.999  0.00  0.00    +0.000 HD
ENDBRANCH  21  24
ENDBRANCH  18  21
ENDBRANCH   3  18
BRANCH   8  26
ATOM     26  O   UNL     1     -16.165 -11.253   1.548  0.00  0.00    +0.000 OA
BRANCH  26  27
ATOM     27  C   UNL     1     -15.990 -10.430   2.707  0.00  0.00    +0.000 C 
ATOM     28  H   UNL     1     -14.932 -10.147   2.777  0.00  0.00    +0.000 HD
BRANCH  27  29
ATOM     29  C   UNL     1     -16.353 -11.237   3.945  0.00  0.00    +0.000 C 
ATOM     30  H   UNL     1     -15.849 -12.210   3.942  0.00  0.00    +0.000 HD
ATOM     31  H   UNL     1     -16.012 -10.716   4.847  0.00  0.00    +0.000 HD
ATOM     32  H   UNL     1     -17.431 -11.396   4.037  0.00  0.00    +0.000 HD
ENDBRANCH  27  29
BRANCH  27  33
ATOM     33  C   UNL     1     -16.874  -9.188   2.577  0.00  0.00    +0.000 C 
ATOM     34  H   UNL     1     -16.303  -8.271   2.755  0.00  0.00    +0.000 HD
ATOM     35  H   UNL     1     -17.254  -9.101   1.551  0.00  0.00    +0.000 HD
BRANCH  33  36
ATOM     36  C   UNL     1     -18.038  -9.203   3.559  0.00  0.00    +0.000 C 
ATOM     37  H   UNL     1     -18.634 -10.115   3.452  0.00  0.00    +0.000 HD
ATOM     38  H   UNL     1     -18.693  -8.338   3.426  0.00  0.00    +0.000 HD
ATOM     39  H   UNL     1     -17.660  -9.166   4.586  0.00  0.00    +0.000 HD
ENDBRANCH  33  36
ENDBRANCH  27  33
ENDBRANCH  26  27
ENDBRANCH   8  26
TORSDOF 8
ENDMDL
MODEL 5
REMARK VINA RESULT:    -3.927     33.296     35.480
REMARK INTER + INTRA:          -6.226
REMARK INTER:                  -5.327
REMARK INTRA:                  -0.898
REMARK UNBOUND:                -0.807
REMARK  Name = 125098
REMARK  8 active torsions:
REMARK  status: ('A' for Active; 'I' for Inactive)
REMARK    1  A    between atoms: O_1  and  C_11
REMARK    2  A    between atoms: O_1  and  C_13
REMARK    3  A    between atoms: O_2  and  C_12
REMARK    4  A    between atoms: C_5  and  C_10
REMARK    5  A    between atoms: C_10  and  C_12
REMARK    6  A    between atoms: C_13  and  C_14
REMARK    7  A    between atoms: C_13  and  C_15
REMARK    8  A    between atoms: C_14  and  C_16
REMARK                            x       y       z     vdW  Elec       q    Type
REMARK                         _______ _______ _______ _____ _____    ______ ____
ROOT
ATOM      1  O   UNL     1       5.928  14.722 -13.068  0.00  0.00    +0.000 OA
ATOM      2  N   UNL     1       5.138  14.943 -10.888  0.00  0.00    +0.000 N 
ATOM      3  C   UNL     1       4.020  14.791  -9.933  0.00  0.00    +0.000 C 
ATOM      4  C   UNL     1       4.530  14.476  -8.519  0.00  0.00    +0.000 C 
ATOM      5  C   UNL     1       5.641  15.418  -8.064  0.00  0.00    +0.000 C 
ATOM      6  C   UNL     1       6.772  15.431  -9.084  0.00  0.00    +0.000 C 
ATOM      7  C   UNL     1       6.259  15.791 -10.474  0.00  0.00    +0.000 C 
ATOM      8  C   UNL     1       5.085  14.472 -12.208  0.00  0.00    +0.000 C 
ATOM      9  H   UNL     1       3.408  13.935 -10.240  0.00  0.00    +0.000 HD
ATOM     10  H   UNL     1       4.923  13.451  -8.512  0.00  0.00    +0.000 HD
ATOM     11  H   UNL     1       3.703  14.498  -7.799  0.00  0.00    +0.000 HD
ATOM     12  H   UNL     1       6.025  15.091  -7.091  0.00  0.00    +0.000 HD
ATOM     13  H   UNL     1       5.247  16.431  -7.928  0.00  0.00    +0.000 HD
ATOM     14  H   UNL     1       7.545  16.144  -8.777  0.00  0.00    +0.000 HD
ATOM     15  H   UNL     1       7.241  14.439  -9.116  0.00  0.00    +0.000 HD
ATOM     16  H   UNL     1       5.907  16.829 -10.494  0.00  0.00    +0.000 HD
ATOM     17  H   UNL     1       7.079  15.718 -11.195  0.00  0.00    +0.000 HD
ENDROOT
BRANCH   3  18
ATOM     18  C   UNL     1       3.113  16.025  -9.962  0.00  0.00    +0.000 C 
ATOM     19  H   UNL     1       3.499  16.788 -10.649  0.00  0.00    +0.000 HD
ATOM     20  H   UNL     1       3.097  16.502  -8.974  0.00  0.00    +0.000 HD
BRANCH  18  21
ATOM     21  C   UNL     1       1.700  15.663 -10.373  0.00  0.00    +0.000 C 
ATOM     22  H   UNL     1       1.344  14.752  -9.889  0.00  0.00    +0.000 HD
ATOM     23  H   UNL     1       0.993  16.474 -10.171  0.00  0.00    +0.000 HD
BRANCH  21  24
ATOM     24  O   UNL     1       1.692  15.399 -11.769  0.00  0.00    +0.000 OA
ATOM     25  H   UNL     1       0.863  15.756 -12.132  0.00  0.00    +0.000 HD
ENDBRANCH  21  24
ENDBRANCH  18  21
ENDBRANCH   3  18
BRANCH   8  26
ATOM     26  O   UNL     1       3.981  13.698 -12.449  0.00  0.00    +0.000 OA
BRANCH  26  27
ATOM     27  C   UNL     1       4.225  12.309 -12.701  0.00  0.00    +0.000 C 
ATOM     28  H   UNL     1       5.310  12.148 -12.740  0.00  0.00    +0.000 HD
BRANCH  27  29
ATOM     29  C   UNL     1       3.636  11.943 -14.056  0.00  0.00    +0.000 C 
ATOM     30  H   UNL     1       3.391  10.876 -14.102  0.00  0.00    +0.000 HD
ATOM     31  H   UNL     1       2.696  12.483 -14.214  0.00  0.00    +0.000 HD
ATOM     32  H   UNL     1       4.308  12.189 -14.882  0.00  0.00    +0.000 HD
ENDBRANCH  27  29
BRANCH  27  33
ATOM     33  C   UNL     1       3.595  11.479 -11.581  0.00  0.00    +0.000 C 
ATOM     34  H   UNL     1       3.603  10.410 -11.823  0.00  0.00    +0.000 HD
ATOM     35  H   UNL     1       4.187  11.574 -10.662  0.00  0.00    +0.000 HD
BRANCH  33  36
ATOM     36  C   UNL     1       2.151  11.878 -11.308  0.00  0.00    +0.000 C 
ATOM     37  H   UNL     1       2.093  12.887 -10.887  0.00  0.00    +0.000 HD
ATOM     38  H   UNL     1       1.660  11.182 -10.623  0.00  0.00    +0.000 HD
ATOM     39  H   UNL     1       1.580  11.870 -12.242  0.00  0.00    +0.000 HD
ENDBRANCH  33  36
ENDBRANCH  27  33
ENDBRANCH  26  27
ENDBRANCH   8  26
TORSDOF 8
ENDMDL
MODEL 6
REMARK VINA RESULT:    -3.845      3.906      5.956
REMARK INTER + INTRA:          -6.113
REMARK INTER:                  -5.435
REMARK INTRA:                  -0.678
REMARK UNBOUND:                -0.807
REMARK  Name = 125098
REMARK  8 active torsions:
REMARK  status: ('A' for Active; 'I' for Inactive)
REMARK    1  A    between atoms: O_1  and  C_11
REMARK    2  A    between atoms: O_1  and  C_13
REMARK    3  A    between atoms: O_2  and  C_12
REMARK    4  A    between atoms: C_5  and  C_10
REMARK    5  A    between atoms: C_10  and  C_12
REMARK    6  A    between atoms: C_13  and  C_14
REMARK    7  A    between atoms: C_13  and  C_15
REMARK    8  A    between atoms: C_14  and  C_16
REMARK                            x       y       z     vdW  Elec       q    Type
REMARK                         _______ _______ _______ _____ _____    ______ ____
ROOT
ATOM      1  O   UNL     1     -16.462 -12.943  -0.602  0.00  0.00    +0.000 OA
ATOM      2  N   UNL     1     -14.709 -12.755  -2.124  0.00  0.00    +0.000 N 
ATOM      3  C   UNL     1     -14.043 -11.972  -3.187  0.00  0.00    +0.000 C 
ATOM      4  C   UNL     1     -12.524 -12.196  -3.180  0.00  0.00    +0.000 C 
ATOM      5  C   UNL     1     -12.141 -13.672  -3.133  0.00  0.00    +0.000 C 
ATOM      6  C   UNL     1     -12.820 -14.356  -1.954  0.00  0.00    +0.000 C 
ATOM      7  C   UNL     1     -14.332 -14.166  -1.999  0.00  0.00    +0.000 C 
ATOM      8  C   UNL     1     -15.789 -12.264  -1.376  0.00  0.00    +0.000 C 
ATOM      9  H   UNL     1     -14.201 -10.906  -2.989  0.00  0.00    +0.000 HD
ATOM     10  H   UNL     1     -12.105 -11.703  -2.293  0.00  0.00    +0.000 HD
ATOM     11  H   UNL     1     -12.061 -11.717  -4.051  0.00  0.00    +0.000 HD
ATOM     12  H   UNL     1     -11.053 -13.768  -3.039  0.00  0.00    +0.000 HD
ATOM     13  H   UNL     1     -12.425 -14.168  -4.068  0.00  0.00    +0.000 HD
ATOM     14  H   UNL     1     -12.581 -15.425  -1.953  0.00  0.00    +0.000 HD
ATOM     15  H   UNL     1     -12.429 -13.936  -1.019  0.00  0.00    +0.000 HD
ATOM     16  H   UNL     1     -14.758 -14.695  -2.860  0.00  0.00    +0.000 HD
ATOM     17  H   UNL     1     -14.782 -14.602  -1.102  0.00  0.00    +0.000 HD
ENDROOT
BRANCH   3  18
ATOM     18  C   UNL     1     -14.669 -12.273  -4.552  0.00  0.00    +0.000 C 
ATOM     19  H   UNL     1     -15.252 -13.202  -4.529  0.00  0.00    +0.000 HD
ATOM     20  H   UNL     1     -13.881 -12.441  -5.297  0.00  0.00    +0.000 HD
BRANCH  18  21
ATOM     21  C   UNL     1     -15.567 -11.141  -5.011  0.00  0.00    +0.000 C 
ATOM     22  H   UNL     1     -15.375 -10.849  -6.045  0.00  0.00    +0.000 HD
ATOM     23  H   UNL     1     -16.627 -11.388  -4.902  0.00  0.00    +0.000 HD
BRANCH  21  24
ATOM     24  O   UNL     1     -15.288  -9.997  -4.218  0.00  0.00    +0.000 OA
ATOM     25  H   UNL     1     -14.970  -9.296  -4.812  0.00  0.00    +0.000 HD
ENDBRANCH  21  24
ENDBRANCH  18  21
ENDBRANCH   3  18
BRANCH   8  26
ATOM     26  O   UNL     1     -16.025 -10.934  -1.599  0.00  0.00    +0.000 OA
BRANCH  26  27
ATOM     27  C   UNL     1     -16.748 -10.239  -0.577  0.00  0.00    +0.000 C 
ATOM     28  H   UNL     1     -17.388 -10.961  -0.051  0.00  0.00    +0.000 HD
BRANCH  27  29
ATOM     29  C   UNL     1     -17.641  -9.192  -1.228  0.00  0.00    +0.000 C 
ATOM     30  H   UNL     1     -17.414  -8.190  -0.846  0.00  0.00    +0.000 HD
ATOM     31  H   UNL     1     -17.455  -9.160  -2.307  0.00  0.00    +0.000 HD
ATOM     32  H   UNL     1     -18.703  -9.398  -1.075  0.00  0.00    +0.000 HD
ENDBRANCH  27  29
BRANCH  27  33
ATOM     33  C   UNL     1     -15.753  -9.595   0.390  0.00  0.00    +0.000 C 
ATOM     34  H   UNL     1     -15.444 -10.297   1.172  0.00  0.00    +0.000 HD
ATOM     35  H   UNL     1     -14.831  -9.326  -0.141  0.00  0.00    +0.000 HD
BRANCH  33  36
ATOM     36  C   UNL     1     -16.330  -8.364   1.077  0.00  0.00    +0.000 C 
ATOM     37  H   UNL     1     -17.410  -8.463   1.223  0.00  0.00    +0.000 HD
ATOM     38  H   UNL     1     -16.134  -7.452   0.507  0.00  0.00    +0.000 HD
ATOM     39  H   UNL     1     -15.867  -8.236   2.061  0.00  0.00    +0.000 HD
ENDBRANCH  33  36
ENDBRANCH  27  33
ENDBRANCH  26  27
ENDBRANCH   8  26
TORSDOF 8
ENDMDL
MODEL 7
REMARK VINA RESULT:    -3.828      2.214      2.703
REMARK INTER + INTRA:          -6.090
REMARK INTER:                  -5.439
REMARK INTRA:                  -0.650
REMARK UNBOUND:                -0.807
REMARK  Name = 125098
REMARK  8 active torsions:
REMARK  status: ('A' for Active; 'I' for Inactive)
REMARK    1  A    between atoms: O_1  and  C_11
REMARK    2  A    between atoms: O_1  and  C_13
REMARK    3  A    between atoms: O_2  and  C_12
REMARK    4  A    between atoms: C_5  and  C_10
REMARK    5  A    between atoms: C_10  and  C_12
REMARK    6  A    between atoms: C_13  and  C_14
REMARK    7  A    between atoms: C_13  and  C_15
REMARK    8  A    between atoms: C_14  and  C_16
REMARK                            x       y       z     vdW  Elec       q    Type
REMARK                         _______ _______ _______ _____ _____    ______ ____
ROOT
ATOM      1  O   UNL     1     -15.499 -13.552   0.525  0.00  0.00    +0.000 OA
ATOM      2  N   UNL     1     -16.684 -11.945   1.723  0.00  0.00    +0.000 N 
ATOM      3  C   UNL     1     -17.301 -10.601   1.758  0.00  0.00    +0.000 C 
ATOM      4  C   UNL     1     -18.526 -10.571   2.684  0.00  0.00    +0.000 C 
ATOM      5  C   UNL     1     -18.251 -11.188   4.052  0.00  0.00    +0.000 C 
ATOM      6  C   UNL     1     -17.695 -12.598   3.893  0.00  0.00    +0.000 C 
ATOM      7  C   UNL     1     -16.453 -12.606   3.010  0.00  0.00    +0.000 C 
ATOM      8  C   UNL     1     -16.157 -12.513   0.554  0.00  0.00    +0.000 C 
ATOM      9  H   UNL     1     -17.665 -10.355   0.754  0.00  0.00    +0.000 HD
ATOM     10  H   UNL     1     -19.336 -11.138   2.207  0.00  0.00    +0.000 HD
ATOM     11  H   UNL     1     -18.891  -9.544   2.804  0.00  0.00    +0.000 HD
ATOM     12  H   UNL     1     -19.179 -11.220   4.635  0.00  0.00    +0.000 HD
ATOM     13  H   UNL     1     -17.544 -10.568   4.614  0.00  0.00    +0.000 HD
ATOM     14  H   UNL     1     -17.455 -13.018   4.876  0.00  0.00    +0.000 HD
ATOM     15  H   UNL     1     -18.464 -13.240   3.446  0.00  0.00    +0.000 HD
ATOM     16  H   UNL     1     -15.629 -12.079   3.505  0.00  0.00    +0.000 HD
ATOM     17  H   UNL     1     -16.124 -13.638   2.854  0.00  0.00    +0.000 HD
ENDROOT
BRANCH   3  18
ATOM     18  C   UNL     1     -16.263  -9.540   2.132  0.00  0.00    +0.000 C 
ATOM     19  H   UNL     1     -15.248  -9.956   2.133  0.00  0.00    +0.000 HD
ATOM     20  H   UNL     1     -16.437  -9.189   3.157  0.00  0.00    +0.000 HD
BRANCH  18  21
ATOM     21  C   UNL     1     -16.308  -8.361   1.179  0.00  0.00    +0.000 C 
ATOM     22  H   UNL     1     -17.021  -7.597   1.494  0.00  0.00    +0.000 HD
ATOM     23  H   UNL     1     -15.325  -7.900   1.049  0.00  0.00    +0.000 HD
BRANCH  21  24
ATOM     24  O   UNL     1     -16.758  -8.824  -0.086  0.00  0.00    +0.000 OA
ATOM     25  H   UNL     1     -16.635  -9.788  -0.108  0.00  0.00    +0.000 HD
ENDBRANCH  21  24
ENDBRANCH  18  21
ENDBRANCH   3  18
BRANCH   8  26
ATOM     26  O   UNL     1     -16.449 -11.783  -0.567  0.00  0.00    +0.000 OA
BRANCH  26  27
ATOM     27  C   UNL     1     -15.441 -11.753  -1.583  0.00  0.00    +0.000 C 
ATOM     28  H   UNL     1     -15.208 -12.786  -1.873  0.00  0.00    +0.000 HD
BRANCH  27  29
ATOM     29  C   UNL     1     -14.181 -11.121  -1.010  0.00  0.00    +0.000 C 
ATOM     30  H   UNL     1     -13.364 -11.850  -0.956  0.00  0.00    +0.000 HD
ATOM     31  H   UNL     1     -13.833 -10.316  -1.666  0.00  0.00    +0.000 HD
ATOM     32  H   UNL     1     -14.344 -10.697  -0.016  0.00  0.00    +0.000 HD
ENDBRANCH  27  29
BRANCH  27  33
ATOM     33  C   UNL     1     -15.962 -10.959  -2.783  0.00  0.00    +0.000 C 
ATOM     34  H   UNL     1     -16.896 -11.383  -3.166  0.00  0.00    +0.000 HD
ATOM     35  H   UNL     1     -16.210  -9.935  -2.478  0.00  0.00    +0.000 HD
BRANCH  33  36
ATOM     36  C   UNL     1     -14.964 -10.928  -3.932  0.00  0.00    +0.000 C 
ATOM     37  H   UNL     1     -15.333 -10.316  -4.760  0.00  0.00    +0.000 HD
ATOM     38  H   UNL     1     -14.745 -11.932  -4.307  0.00  0.00    +0.000 HD
ATOM     39  H   UNL     1     -14.016 -10.498  -3.591  0.00  0.00    +0.000 HD
ENDBRANCH  33  36
ENDBRANCH  27  33
ENDBRANCH  26  27
ENDBRANCH   8  26
TORSDOF 8
ENDMDL
MODEL 8
REMARK VINA RESULT:    -3.778     18.548     21.088
REMARK INTER + INTRA:          -6.020
REMARK INTER:                  -5.213
REMARK INTRA:                  -0.807
REMARK UNBOUND:                -0.807
REMARK  Name = 125098
REMARK  8 active torsions:
REMARK  status: ('A' for Active; 'I' for Inactive)
REMARK    1  A    between atoms: O_1  and  C_11
REMARK    2  A    between atoms: O_1  and  C_13
REMARK    3  A    between atoms: O_2  and  C_12
REMARK    4  A    between atoms: C_5  and  C_10
REMARK    5  A    between atoms: C_10  and  C_12
REMARK    6  A    between atoms: C_13  and  C_14
REMARK    7  A    between atoms: C_13  and  C_15
REMARK    8  A    between atoms: C_14  and  C_16
REMARK                            x       y       z     vdW  Elec       q    Type
REMARK                         _______ _______ _______ _____ _____    ______ ____
ROOT
ATOM      1  O   UNL     1     -17.259 -13.820  20.730  0.00  0.00    +0.000 OA
ATOM      2  N   UNL     1     -15.537 -14.614  22.082  0.00  0.00    +0.000 N 
ATOM      3  C   UNL     1     -14.085 -14.710  22.345  0.00  0.00    +0.000 C 
ATOM      4  C   UNL     1     -13.793 -14.802  23.850  0.00  0.00    +0.000 C 
ATOM      5  C   UNL     1     -14.645 -15.851  24.557  0.00  0.00    +0.000 C 
ATOM      6  C   UNL     1     -16.123 -15.604  24.281  0.00  0.00    +0.000 C 
ATOM      7  C   UNL     1     -16.406 -15.562  22.784  0.00  0.00    +0.000 C 
ATOM      8  C   UNL     1     -16.079 -13.799  21.077  0.00  0.00    +0.000 C 
ATOM      9  H   UNL     1     -13.602 -13.792  21.990  0.00  0.00    +0.000 HD
ATOM     10  H   UNL     1     -14.002 -13.824  24.304  0.00  0.00    +0.000 HD
ATOM     11  H   UNL     1     -12.730 -15.005  24.023  0.00  0.00    +0.000 HD
ATOM     12  H   UNL     1     -14.460 -15.809  25.637  0.00  0.00    +0.000 HD
ATOM     13  H   UNL     1     -14.365 -16.856  24.224  0.00  0.00    +0.000 HD
ATOM     14  H   UNL     1     -16.728 -16.387  24.751  0.00  0.00    +0.000 HD
ATOM     15  H   UNL     1     -16.420 -14.650  24.734  0.00  0.00    +0.000 HD
ATOM     16  H   UNL     1     -16.241 -16.549  22.336  0.00  0.00    +0.000 HD
ATOM     17  H   UNL     1     -17.458 -15.308  22.618  0.00  0.00    +0.000 HD
ENDROOT
BRANCH   3  18
ATOM     18  C   UNL     1     -13.470 -15.873  21.561  0.00  0.00    +0.000 C 
ATOM     19  H   UNL     1     -14.239 -16.453  21.037  0.00  0.00    +0.000 HD
ATOM     20  H   UNL     1     -12.991 -16.579  22.252  0.00  0.00    +0.000 HD
BRANCH  18  21
ATOM     21  C   UNL     1     -12.451 -15.383  20.552  0.00  0.00    +0.000 C 
ATOM     22  H   UNL     1     -11.453 -15.787  20.735  0.00  0.00    +0.000 HD
ATOM     23  H   UNL     1     -12.746 -15.615  19.524  0.00  0.00    +0.000 HD
BRANCH  21  24
ATOM     24  O   UNL     1     -12.335 -13.973  20.678  0.00  0.00    +0.000 OA
ATOM     25  H   UNL     1     -11.916 -13.787  21.535  0.00  0.00    +0.000 HD
ENDBRANCH  21  24
ENDBRANCH  18  21
ENDBRANCH   3  18
BRANCH   8  26
ATOM     26  O   UNL     1     -15.149 -12.970  20.509  0.00  0.00    +0.000 OA
BRANCH  26  27
ATOM     27  C   UNL     1     -15.393 -12.579  19.153  0.00  0.00    +0.000 C 
ATOM     28  H   UNL     1     -16.475 -12.458  19.016  0.00  0.00    +0.000 HD
BRANCH  27  29
ATOM     29  C   UNL     1     -14.913 -13.687  18.226  0.00  0.00    +0.000 C 
ATOM     30  H   UNL     1     -15.732 -14.057  17.599  0.00  0.00    +0.000 HD
ATOM     31  H   UNL     1     -14.151 -13.299  17.541  0.00  0.00    +0.000 HD
ATOM     32  H   UNL     1     -14.477 -14.527  18.773  0.00  0.00    +0.000 HD
ENDBRANCH  27  29
BRANCH  27  33
ATOM     33  C   UNL     1     -14.661 -11.266  18.871  0.00  0.00    +0.000 C 
ATOM     34  H   UNL     1     -14.788 -10.554  19.694  0.00  0.00    +0.000 HD
ATOM     35  H   UNL     1     -13.580 -11.443  18.803  0.00  0.00    +0.000 HD
BRANCH  33  36
ATOM     36  C   UNL     1     -15.154 -10.592  17.598  0.00  0.00    +0.000 C 
ATOM     37  H   UNL     1     -16.095 -11.035  17.255  0.00  0.00    +0.000 HD
ATOM     38  H   UNL     1     -14.419 -10.660  16.791  0.00  0.00    +0.000 HD
ATOM     39  H   UNL     1     -15.331  -9.528  17.784  0.00  0.00    +0.000 HD
ENDBRANCH  33  36
ENDBRANCH  27  33
ENDBRANCH  26  27
ENDBRANCH   8  26
TORSDOF 8
ENDMDL
MODEL 9
REMARK VINA RESULT:    -3.771     42.640     44.918
REMARK INTER + INTRA:          -6.010
REMARK INTER:                  -5.300
REMARK INTRA:                  -0.711
REMARK UNBOUND:                -0.807
REMARK  Name = 125098
REMARK  8 active torsions:
REMARK  status: ('A' for Active; 'I' for Inactive)
REMARK    1  A    between atoms: O_1  and  C_11
REMARK    2  A    between atoms: O_1  and  C_13
REMARK    3  A    between atoms: O_2  and  C_12
REMARK    4  A    between atoms: C_5  and  C_10
REMARK    5  A    between atoms: C_10  and  C_12
REMARK    6  A    between atoms: C_13  and  C_14
REMARK    7  A    between atoms: C_13  and  C_15
REMARK    8  A    between atoms: C_14  and  C_16
REMARK                            x       y       z     vdW  Elec       q    Type
REMARK                         _______ _______ _______ _____ _____    ______ ____
ROOT
ATOM      1  O   UNL     1      12.640  14.693 -18.243  0.00  0.00    +0.000 OA
ATOM      2  N   UNL     1      14.274  14.174 -19.819  0.00  0.00    +0.000 N 
ATOM      3  C   UNL     1      14.871  13.176 -20.732  0.00  0.00    +0.000 C 
ATOM      4  C   UNL     1      15.488  13.846 -21.969  0.00  0.00    +0.000 C 
ATOM      5  C   UNL     1      16.397  15.020 -21.617  0.00  0.00    +0.000 C 
ATOM      6  C   UNL     1      15.651  16.021 -20.743  0.00  0.00    +0.000 C 
ATOM      7  C   UNL     1      15.085  15.352 -19.496  0.00  0.00    +0.000 C 
ATOM      8  C   UNL     1      13.075  13.955 -19.125  0.00  0.00    +0.000 C 
ATOM      9  H   UNL     1      14.077  12.517 -21.100  0.00  0.00    +0.000 HD
ATOM     10  H   UNL     1      14.674  14.219 -22.604  0.00  0.00    +0.000 HD
ATOM     11  H   UNL     1      16.040  13.112 -22.567  0.00  0.00    +0.000 HD
ATOM     12  H   UNL     1      16.735  15.512 -22.536  0.00  0.00    +0.000 HD
ATOM     13  H   UNL     1      17.293  14.664 -21.098  0.00  0.00    +0.000 HD
ATOM     14  H   UNL     1      16.322  16.837 -20.454  0.00  0.00    +0.000 HD
ATOM     15  H   UNL     1      14.832  16.465 -21.322  0.00  0.00    +0.000 HD
ATOM     16  H   UNL     1      15.896  15.019 -18.839  0.00  0.00    +0.000 HD
ATOM     17  H   UNL     1      14.493  16.078 -18.930  0.00  0.00    +0.000 HD
ENDROOT
BRANCH   3  18
ATOM     18  C   UNL     1      15.877  12.295 -19.985  0.00  0.00    +0.000 C 
ATOM     19  H   UNL     1      16.105  12.701 -18.993  0.00  0.00    +0.000 HD
ATOM     20  H   UNL     1      16.833  12.279 -20.523  0.00  0.00    +0.000 HD
BRANCH  18  21
ATOM     21  C   UNL     1      15.361  10.878 -19.828  0.00  0.00    +0.000 C 
ATOM     22  H   UNL     1      16.030  10.138 -20.272  0.00  0.00    +0.000 HD
ATOM     23  H   UNL     1      15.187  10.618 -18.780  0.00  0.00    +0.000 HD
BRANCH  21  24
ATOM     24  O   UNL     1      14.130  10.767 -20.529  0.00  0.00    +0.000 OA
ATOM     25  H   UNL     1      13.579  11.528 -20.277  0.00  0.00    +0.000 HD
ENDBRANCH  21  24
ENDBRANCH  18  21
ENDBRANCH   3  18
BRANCH   8  26
ATOM     26  O   UNL     1      12.431  12.816 -19.530  0.00  0.00    +0.000 OA
BRANCH  26  27
ATOM     27  C   UNL     1      11.086  12.982 -19.995  0.00  0.00    +0.000 C 
ATOM     28  H   UNL     1      10.898  14.054 -20.141  0.00  0.00    +0.000 HD
BRANCH  27  29
ATOM     29  C   UNL     1      10.129  12.467 -18.929  0.00  0.00    +0.000 C 
ATOM     30  H   UNL     1       9.634  13.296 -18.412  0.00  0.00    +0.000 HD
ATOM     31  H   UNL     1       9.334  11.874 -19.394  0.00  0.00    +0.000 HD
ATOM     32  H   UNL     1      10.630  11.837 -18.190  0.00  0.00    +0.000 HD
ENDBRANCH  27  29
BRANCH  27  33
ATOM     33  C   UNL     1      10.913  12.218 -21.309  0.00  0.00    +0.000 C 
ATOM     34  H   UNL     1      10.797  12.903 -22.156  0.00  0.00    +0.000 HD
ATOM     35  H   UNL     1      11.816  11.634 -21.528  0.00  0.00    +0.000 HD
BRANCH  33  36
ATOM     36  C   UNL     1       9.697  11.302 -21.288  0.00  0.00    +0.000 C 
ATOM     37  H   UNL     1       9.626  10.718 -22.211  0.00  0.00    +0.000 HD
ATOM     38  H   UNL     1       8.768  11.863 -21.155  0.00  0.00    +0.000 HD
ATOM     39  H   UNL     1       9.774  10.600 -20.451  0.00  0.00    +0.000 HD
ENDBRANCH  33  36
ENDBRANCH  27  33
ENDBRANCH  26  27
ENDBRANCH   8  26
TORSDOF 8
ENDMDL
MODEL 10
REMARK VINA RESULT:    -3.727     17.059     18.680
REMARK INTER + INTRA:          -5.951
REMARK INTER:                  -5.425
REMARK INTRA:                  -0.526
REMARK UNBOUND:                -0.807
REMARK  Name = 125098
REMARK  8 active torsions:
REMARK  status: ('A' for Active; 'I' for Inactive)
REMARK    1  A    between atoms: O_1  and  C_11
REMARK    2  A    between atoms: O_1  and  C_13
REMARK    3  A    between atoms: O_2  and  C_12
REMARK    4  A    between atoms: C_5  and  C_10
REMARK    5  A    between atoms: C_10  and  C_12
REMARK    6  A    between atoms: C_13  and  C_14
REMARK    7  A    between atoms: C_13  and  C_15
REMARK    8  A    between atoms: C_14  and  C_16
REMARK                            x       y       z     vdW  Elec       q    Type
REMARK                         _______ _______ _______ _____ _____    ______ ____
ROOT
ATOM      1  O   UNL     1     -14.293   6.247   1.018  0.00  0.00    +0.000 OA
ATOM      2  N   UNL     1     -16.205   6.898   2.177  0.00  0.00    +0.000 N 
ATOM      3  C   UNL     1     -16.809   7.717   3.250  0.00  0.00    +0.000 C 
ATOM      4  C   UNL     1     -18.247   8.126   2.900  0.00  0.00    +0.000 C 
ATOM      5  C   UNL     1     -19.101   6.952   2.430  0.00  0.00    +0.000 C 
ATOM      6  C   UNL     1     -18.418   6.234   1.273  0.00  0.00    +0.000 C 
ATOM      7  C   UNL     1     -17.009   5.792   1.650  0.00  0.00    +0.000 C 
ATOM      8  C   UNL     1     -14.863   7.018   1.788  0.00  0.00    +0.000 C 
ATOM      9  H   UNL     1     -16.237   8.647   3.346  0.00  0.00    +0.000 HD
ATOM     10  H   UNL     1     -18.210   8.870   2.093  0.00  0.00    +0.000 HD
ATOM     11  H   UNL     1     -18.726   8.617   3.755  0.00  0.00    +0.000 HD
ATOM     12  H   UNL     1     -20.084   7.316   2.110  0.00  0.00    +0.000 HD
ATOM     13  H   UNL     1     -19.273   6.253   3.256  0.00  0.00    +0.000 HD
ATOM     14  H   UNL     1     -19.012   5.364   0.971  0.00  0.00    +0.000 HD
ATOM     15  H   UNL     1     -18.369   6.907   0.408  0.00  0.00    +0.000 HD
ATOM     16  H   UNL     1     -17.046   5.017   2.424  0.00  0.00    +0.000 HD
ATOM     17  H   UNL     1     -16.520   5.349   0.777  0.00  0.00    +0.000 HD
ENDROOT
BRANCH   3  18
ATOM     18  C   UNL     1     -16.721   6.994   4.597  0.00  0.00    +0.000 C 
ATOM     19  H   UNL     1     -15.684   6.923   4.945  0.00  0.00    +0.000 HD
ATOM     20  H   UNL     1     -17.066   5.958   4.489  0.00  0.00    +0.000 HD
BRANCH  18  21
ATOM     21  C   UNL     1     -17.548   7.695   5.657  0.00  0.00    +0.000 C 
ATOM     22  H   UNL     1     -16.940   8.068   6.482  0.00  0.00    +0.000 HD
ATOM     23  H   UNL     1     -18.132   8.522   5.241  0.00  0.00    +0.000 HD
BRANCH  21  24
ATOM     24  O   UNL     1     -18.446   6.751   6.223  0.00  0.00    +0.000 OA
ATOM     25  H   UNL     1     -18.403   6.845   7.189  0.00  0.00    +0.000 HD
ENDBRANCH  21  24
ENDBRANCH  18  21
ENDBRANCH   3  18
BRANCH   8  26
ATOM     26  O   UNL     1     -14.239   8.093   2.364  0.00  0.00    +0.000 OA
BRANCH  26  27
ATOM     27  C   UNL     1     -12.977   7.832   2.988  0.00  0.00    +0.000 C 
ATOM     28  H   UNL     1     -12.707   6.784   2.803  0.00  0.00    +0.000 HD
BRANCH  27  29
ATOM     29  C   UNL     1     -13.118   8.034   4.490  0.00  0.00    +0.000 C 
ATOM     30  H   UNL     1     -13.031   9.094   4.754  0.00  0.00    +0.000 HD
ATOM     31  H   UNL     1     -14.112   7.713   4.819  0.00  0.00    +0.000 HD
ATOM     32  H   UNL     1     -12.377   7.465   5.057  0.00  0.00    +0.000 HD
ENDBRANCH  27  29
BRANCH  27  33
ATOM     33  C   UNL     1     -11.924   8.774   2.399  0.00  0.00    +0.000 C 
ATOM     34  H   UNL     1     -12.386   9.558   1.789  0.00  0.00    +0.000 HD
ATOM     35  H   UNL     1     -11.398   9.302   3.204  0.00  0.00    +0.000 HD
BRANCH  33  36
ATOM     36  C   UNL     1     -10.920   8.040   1.521  0.00  0.00    +0.000 C 
ATOM     37  H   UNL     1     -11.396   7.217   0.978  0.00  0.00    +0.000 HD
ATOM     38  H   UNL     1     -10.086   7.639   2.105  0.00  0.00    +0.000 HD
ATOM     39  H   UNL     1     -10.496   8.729   0.784  0.00  0.00    +0.000 HD
ENDBRANCH  33  36
ENDBRANCH  27  33
ENDBRANCH  26  27
ENDBRANCH   8  26
TORSDOF 8
ENDMDL
