MODEL 1
REMARK VINA RESULT:    -4.044      0.000      0.000
REMARK INTER + INTRA:          -4.044
REMARK INTER:                  -4.044
REMARK INTRA:                   0.000
REMARK UNBOUND:                 0.000
REMARK  Name = 1049
REMARK  0 active torsions:
REMARK  status: ('A' for Active; 'I' for Inactive)
REMARK                            x       y       z     vdW  Elec       q    Type
REMARK                         _______ _______ _______ _____ _____    ______ ____
ROOT
ATOM      1  N   UNL     1       7.345   0.496  -2.660  0.00  0.00    +0.000 NA
ATOM      2  C   UNL     1       5.595   0.161  -4.816  0.00  0.00    +0.000 A 
ATOM      3  C   UNL     1       6.820  -0.498  -4.802  0.00  0.00    +0.000 A 
ATOM      4  C   UNL     1       5.245   0.986  -3.754  0.00  0.00    +0.000 A 
ATOM      5  C   UNL     1       7.651  -0.299  -3.711  0.00  0.00    +0.000 A 
ATOM      6  C   UNL     1       6.146   1.119  -2.709  0.00  0.00    +0.000 A 
ATOM      7  H   UNL     1       4.916   0.031  -5.653  0.00  0.00    +0.000 HD
ATOM      8  H   UNL     1       7.115  -1.146  -5.619  0.00  0.00    +0.000 HD
ATOM      9  H   UNL     1       4.295   1.510  -3.743  0.00  0.00    +0.000 HD
ATOM     10  H   UNL     1       8.617  -0.789  -3.652  0.00  0.00    +0.000 HD
ATOM     11  H   UNL     1       5.919   1.751  -1.858  0.00  0.00    +0.000 HD
ENDROOT
TORSDOF 0
ENDMDL
MODEL 2
REMARK VINA RESULT:    -3.426      1.673      2.121
REMARK INTER + INTRA:          -3.426
REMARK INTER:                  -3.426
REMARK INTRA:                   0.000
REMARK UNBOUND:                 0.000
REMARK  Name = 1049
REMARK  0 active torsions:
REMARK  status: ('A' for Active; 'I' for Inactive)
REMARK                            x       y       z     vdW  Elec       q    Type
REMARK                         _______ _______ _______ _____ _____    ______ ____
ROOT
ATOM      1  N   UNL     1       6.664  -1.317  -1.662  0.00  0.00    +0.000 NA
ATOM      2  C   UNL     1       5.993   1.024  -3.036  0.00  0.00    +0.000 A 
ATOM      3  C   UNL     1       5.609  -0.215  -3.538  0.00  0.00    +0.000 A 
ATOM      4  C   UNL     1       6.713   1.093  -1.849  0.00  0.00    +0.000 A 
ATOM      5  C   UNL     1       5.966  -1.345  -2.819  0.00  0.00    +0.000 A 
ATOM      6  C   UNL     1       7.021  -0.095  -1.205  0.00  0.00    +0.000 A 
ATOM      7  H   UNL     1       5.733   1.933  -3.570  0.00  0.00    +0.000 HD
ATOM      8  H   UNL     1       5.047  -0.293  -4.462  0.00  0.00    +0.000 HD
ATOM      9  H   UNL     1       7.024   2.048  -1.439  0.00  0.00    +0.000 HD
ATOM     10  H   UNL     1       5.690  -2.334  -3.167  0.00  0.00    +0.000 HD
ATOM     11  H   UNL     1       7.580  -0.094  -0.276  0.00  0.00    +0.000 HD
ENDROOT
TORSDOF 0
ENDMDL
MODEL 3
REMARK VINA RESULT:    -3.401     15.761     16.371
REMARK INTER + INTRA:          -3.401
REMARK INTER:                  -3.401
REMARK INTRA:                   0.000
REMARK UNBOUND:                 0.000
REMARK  Name = 1049
REMARK  0 active torsions:
REMARK  status: ('A' for Active; 'I' for Inactive)
REMARK                            x       y       z     vdW  Elec       q    Type
REMARK                         _______ _______ _______ _____ _____    ______ ____
ROOT
ATOM      1  N   UNL     1      -1.741 -14.231  -7.896  0.00  0.00    +0.000 NA
ATOM      2  C   UNL     1      -0.362 -12.203  -9.239  0.00  0.00    +0.000 A 
ATOM      3  C   UNL     1      -0.499 -12.156  -7.856  0.00  0.00    +0.000 A 
ATOM      4  C   UNL     1      -0.914 -13.262  -9.951  0.00  0.00    +0.000 A 
ATOM      5  C   UNL     1      -1.192 -13.186  -7.238  0.00  0.00    +0.000 A 
ATOM      6  C   UNL     1      -1.588 -14.242  -9.240  0.00  0.00    +0.000 A 
ATOM      7  H   UNL     1       0.173 -11.416  -9.761  0.00  0.00    +0.000 HD
ATOM      8  H   UNL     1      -0.078 -11.341  -7.281  0.00  0.00    +0.000 HD
ATOM      9  H   UNL     1      -0.820 -13.320 -11.030  0.00  0.00    +0.000 HD
ATOM     10  H   UNL     1      -1.327 -13.196  -6.162  0.00  0.00    +0.000 HD
ATOM     11  H   UNL     1      -2.036 -15.089  -9.749  0.00  0.00    +0.000 HD
ENDROOT
TORSDOF 0
ENDMDL
MODEL 4
REMARK VINA RESULT:    -3.337      8.237      8.826
REMARK INTER + INTRA:          -3.337
REMARK INTER:                  -3.337
REMARK INTRA:                   0.000
REMARK UNBOUND:                 0.000
REMARK  Name = 1049
REMARK  0 active torsions:
REMARK  status: ('A' for Active; 'I' for Inactive)
REMARK                            x       y       z     vdW  Elec       q    Type
REMARK                         _______ _______ _______ _____ _____    ______ ____
ROOT
ATOM      1  N   UNL     1      13.822   6.420  -4.527  0.00  0.00    +0.000 NA
ATOM      2  C   UNL     1      13.668   3.651  -4.881  0.00  0.00    +0.000 A 
ATOM      3  C   UNL     1      14.647   4.386  -5.540  0.00  0.00    +0.000 A 
ATOM      4  C   UNL     1      12.766   4.299  -4.045  0.00  0.00    +0.000 A 
ATOM      5  C   UNL     1      14.681   5.755  -5.331  0.00  0.00    +0.000 A 
ATOM      6  C   UNL     1      12.883   5.673  -3.903  0.00  0.00    +0.000 A 
ATOM      7  H   UNL     1      13.608   2.575  -5.018  0.00  0.00    +0.000 HD
ATOM      8  H   UNL     1      15.361   3.902  -6.196  0.00  0.00    +0.000 HD
ATOM      9  H   UNL     1      11.994   3.747  -3.520  0.00  0.00    +0.000 HD
ATOM     10  H   UNL     1      15.425   6.373  -5.822  0.00  0.00    +0.000 HD
ATOM     11  H   UNL     1      12.204   6.224  -3.262  0.00  0.00    +0.000 HD
ENDROOT
TORSDOF 0
ENDMDL
MODEL 5
REMARK VINA RESULT:    -3.144      8.692      9.130
REMARK INTER + INTRA:          -3.144
REMARK INTER:                  -3.144
REMARK INTRA:                   0.000
REMARK UNBOUND:                 0.000
REMARK  Name = 1049
REMARK  0 active torsions:
REMARK  status: ('A' for Active; 'I' for Inactive)
REMARK                            x       y       z     vdW  Elec       q    Type
REMARK                         _______ _______ _______ _____ _____    ______ ____
ROOT
ATOM      1  N   UNL     1      13.277   7.985  -4.052  0.00  0.00    +0.000 NA
ATOM      2  C   UNL     1      12.541   5.338  -3.531  0.00  0.00    +0.000 A 
ATOM      3  C   UNL     1      13.548   5.615  -4.450  0.00  0.00    +0.000 A 
ATOM      4  C   UNL     1      11.903   6.383  -2.873  0.00  0.00    +0.000 A 
ATOM      5  C   UNL     1      13.875   6.943  -4.672  0.00  0.00    +0.000 A 
ATOM      6  C   UNL     1      12.303   7.677  -3.165  0.00  0.00    +0.000 A 
ATOM      7  H   UNL     1      12.256   4.310  -3.328  0.00  0.00    +0.000 HD
ATOM      8  H   UNL     1      14.060   4.817  -4.974  0.00  0.00    +0.000 HD
ATOM      9  H   UNL     1      11.115   6.191  -2.152  0.00  0.00    +0.000 HD
ATOM     10  H   UNL     1      14.653   7.213  -5.379  0.00  0.00    +0.000 HD
ATOM     11  H   UNL     1      11.835   8.526  -2.679  0.00  0.00    +0.000 HD
ENDROOT
TORSDOF 0
ENDMDL
MODEL 6
REMARK VINA RESULT:    -3.050     16.871     17.583
REMARK INTER + INTRA:          -3.050
REMARK INTER:                  -3.050
REMARK INTRA:                   0.000
REMARK UNBOUND:                 0.000
REMARK  Name = 1049
REMARK  0 active torsions:
REMARK  status: ('A' for Active; 'I' for Inactive)
REMARK                            x       y       z     vdW  Elec       q    Type
REMARK                         _______ _______ _______ _____ _____    ______ ____
ROOT
ATOM      1  N   UNL     1      -1.457 -14.800 -10.745  0.00  0.00    +0.000 NA
ATOM      2  C   UNL     1       0.297 -12.772 -11.537  0.00  0.00    +0.000 A 
ATOM      3  C   UNL     1      -0.324 -12.711 -10.294  0.00  0.00    +0.000 A 
ATOM      4  C   UNL     1       0.042 -13.844 -12.383  0.00  0.00    +0.000 A 
ATOM      5  C   UNL     1      -1.185 -13.741  -9.949  0.00  0.00    +0.000 A 
ATOM      6  C   UNL     1      -0.835 -14.824 -11.945  0.00  0.00    +0.000 A 
ATOM      7  H   UNL     1       0.978 -11.984 -11.844  0.00  0.00    +0.000 HD
ATOM      8  H   UNL     1      -0.141 -11.885  -9.617  0.00  0.00    +0.000 HD
ATOM      9  H   UNL     1       0.515 -13.912 -13.357  0.00  0.00    +0.000 HD
ATOM     10  H   UNL     1      -1.695 -13.742  -8.991  0.00  0.00    +0.000 HD
ATOM     11  H   UNL     1      -1.067 -15.680 -12.569  0.00  0.00    +0.000 HD
ENDROOT
TORSDOF 0
ENDMDL
MODEL 7
REMARK VINA RESULT:    -3.022     11.470     12.587
REMARK INTER + INTRA:          -3.022
REMARK INTER:                  -3.022
REMARK INTRA:                   0.000
REMARK UNBOUND:                 0.000
REMARK  Name = 1049
REMARK  0 active torsions:
REMARK  status: ('A' for Active; 'I' for Inactive)
REMARK                            x       y       z     vdW  Elec       q    Type
REMARK                         _______ _______ _______ _____ _____    ______ ____
ROOT
ATOM      1  N   UNL     1      -3.102   6.445  -3.456  0.00  0.00    +0.000 NA
ATOM      2  C   UNL     1      -4.662   7.909  -5.256  0.00  0.00    +0.000 A 
ATOM      3  C   UNL     1      -4.852   8.058  -3.886  0.00  0.00    +0.000 A 
ATOM      4  C   UNL     1      -3.694   7.029  -5.726  0.00  0.00    +0.000 A 
ATOM      5  C   UNL     1      -4.053   7.309  -3.036  0.00  0.00    +0.000 A 
ATOM      6  C   UNL     1      -2.946   6.327  -4.794  0.00  0.00    +0.000 A 
ATOM      7  H   UNL     1      -5.268   8.477  -5.955  0.00  0.00    +0.000 HD
ATOM      8  H   UNL     1      -5.600   8.737  -3.497  0.00  0.00    +0.000 HD
ATOM      9  H   UNL     1      -3.528   6.897  -6.790  0.00  0.00    +0.000 HD
ATOM     10  H   UNL     1      -4.161   7.389  -1.960  0.00  0.00    +0.000 HD
ATOM     11  H   UNL     1      -2.179   5.629  -5.110  0.00  0.00    +0.000 HD
ENDROOT
TORSDOF 0
ENDMDL
MODEL 8
REMARK VINA RESULT:    -2.967     26.585     26.818
REMARK INTER + INTRA:          -2.967
REMARK INTER:                  -2.967
REMARK INTRA:                   0.000
REMARK UNBOUND:                 0.000
REMARK  Name = 1049
REMARK  0 active torsions:
REMARK  status: ('A' for Active; 'I' for Inactive)
REMARK                            x       y       z     vdW  Elec       q    Type
REMARK                         _______ _______ _______ _____ _____    ______ ____
ROOT
ATOM      1  N   UNL     1      -0.581  -9.211  20.372  0.00  0.00    +0.000 NA
ATOM      2  C   UNL     1      -1.508  -6.608  20.796  0.00  0.00    +0.000 A 
ATOM      3  C   UNL     1      -0.146  -6.883  20.858  0.00  0.00    +0.000 A 
ATOM      4  C   UNL     1      -2.406  -7.633  20.523  0.00  0.00    +0.000 A 
ATOM      5  C   UNL     1       0.263  -8.189  20.640  0.00  0.00    +0.000 A 
ATOM      6  C   UNL     1      -1.897  -8.906  20.320  0.00  0.00    +0.000 A 
ATOM      7  H   UNL     1      -1.868  -5.597  20.961  0.00  0.00    +0.000 HD
ATOM      8  H   UNL     1       0.573  -6.100  21.070  0.00  0.00    +0.000 HD
ATOM      9  H   UNL     1      -3.472  -7.442  20.470  0.00  0.00    +0.000 HD
ATOM     10  H   UNL     1       1.313  -8.456  20.677  0.00  0.00    +0.000 HD
ATOM     11  H   UNL     1      -2.557  -9.739  20.104  0.00  0.00    +0.000 HD
ENDROOT
TORSDOF 0
ENDMDL
MODEL 9
REMARK VINA RESULT:    -2.960     20.274     20.521
REMARK INTER + INTRA:          -2.960
REMARK INTER:                  -2.960
REMARK INTRA:                   0.000
REMARK UNBOUND:                 0.000
REMARK  Name = 1049
REMARK  0 active torsions:
REMARK  status: ('A' for Active; 'I' for Inactive)
REMARK                            x       y       z     vdW  Elec       q    Type
REMARK                         _______ _______ _______ _____ _____    ______ ____
ROOT
ATOM      1  N   UNL     1      20.587  15.213 -10.901  0.00  0.00    +0.000 NA
ATOM      2  C   UNL     1      18.261  13.677 -11.124  0.00  0.00    +0.000 A 
ATOM      3  C   UNL     1      19.129  13.790 -12.205  0.00  0.00    +0.000 A 
ATOM      4  C   UNL     1      18.554  14.330  -9.933  0.00  0.00    +0.000 A 
ATOM      5  C   UNL     1      20.268  14.563 -12.043  0.00  0.00    +0.000 A 
ATOM      6  C   UNL     1      19.719  15.080  -9.873  0.00  0.00    +0.000 A 
ATOM      7  H   UNL     1      17.358  13.080 -11.211  0.00  0.00    +0.000 HD
ATOM      8  H   UNL     1      18.921  13.289 -13.143  0.00  0.00    +0.000 HD
ATOM      9  H   UNL     1      17.892  14.257  -9.077  0.00  0.00    +0.000 HD
ATOM     10  H   UNL     1      20.977  14.683 -12.855  0.00  0.00    +0.000 HD
ATOM     11  H   UNL     1      19.992  15.609  -8.966  0.00  0.00    +0.000 HD
ENDROOT
TORSDOF 0
ENDMDL
MODEL 10
REMARK VINA RESULT:    -2.940     25.418     25.976
REMARK INTER + INTRA:          -2.940
REMARK INTER:                  -2.940
REMARK INTRA:                   0.000
REMARK UNBOUND:                 0.000
REMARK  Name = 1049
REMARK  0 active torsions:
REMARK  status: ('A' for Active; 'I' for Inactive)
REMARK                            x       y       z     vdW  Elec       q    Type
REMARK                         _______ _______ _______ _____ _____    ______ ____
ROOT
ATOM      1  N   UNL     1     -16.334 -11.302   3.063  0.00  0.00    +0.000 NA
ATOM      2  C   UNL     1     -16.627  -8.701   2.078  0.00  0.00    +0.000 A 
ATOM      3  C   UNL     1     -15.769  -9.595   1.446  0.00  0.00    +0.000 A 
ATOM      4  C   UNL     1     -17.338  -9.106   3.202  0.00  0.00    +0.000 A 
ATOM      5  C   UNL     1     -15.659 -10.872   1.973  0.00  0.00    +0.000 A 
ATOM      6  C   UNL     1     -17.158 -10.405   3.651  0.00  0.00    +0.000 A 
ATOM      7  H   UNL     1     -16.740  -7.691   1.696  0.00  0.00    +0.000 HD
ATOM      8  H   UNL     1     -15.204  -9.301   0.569  0.00  0.00    +0.000 HD
ATOM      9  H   UNL     1     -18.012  -8.427   3.711  0.00  0.00    +0.000 HD
ATOM     10  H   UNL     1     -15.004 -11.606   1.517  0.00  0.00    +0.000 HD
ATOM     11  H   UNL     1     -17.690 -10.769   4.523  0.00  0.00    +0.000 HD
ENDROOT
TORSDOF 0
ENDMDL
