MODEL 1
REMARK VINA RESULT:    -4.933      0.000      0.000
REMARK INTER + INTRA:          -4.933
REMARK INTER:                  -4.933
REMARK INTRA:                   0.000
REMARK UNBOUND:                 0.000
REMARK  Name = 7047
REMARK  0 active torsions:
REMARK  status: ('A' for Active; 'I' for Inactive)
REMARK                            x       y       z     vdW  Elec       q    Type
REMARK                         _______ _______ _______ _____ _____    ______ ____
ROOT
ATOM      1  N   UNL     1       4.849 -13.229 -25.082  0.00  0.00    +0.000 NA
ATOM      2  C   UNL     1       6.462 -11.453 -25.307  0.00  0.00    +0.000 A 
ATOM      3  C   UNL     1       5.171 -11.925 -24.988  0.00  0.00    +0.000 A 
ATOM      4  C   UNL     1       6.764 -10.086 -25.198  0.00  0.00    +0.000 A 
ATOM      5  C   UNL     1       7.420 -12.384 -25.730  0.00  0.00    +0.000 A 
ATOM      6  C   UNL     1       4.220 -11.000 -24.568  0.00  0.00    +0.000 A 
ATOM      7  C   UNL     1       5.793  -9.181 -24.775  0.00  0.00    +0.000 A 
ATOM      8  C   UNL     1       4.520  -9.639 -24.460  0.00  0.00    +0.000 A 
ATOM      9  C   UNL     1       7.091 -13.729 -25.827  0.00  0.00    +0.000 A 
ATOM     10  C   UNL     1       5.803 -14.096 -25.495  0.00  0.00    +0.000 A 
ATOM     11  H   UNL     1       7.758  -9.716 -25.442  0.00  0.00    +0.000 HD
ATOM     12  H   UNL     1       8.428 -12.068 -25.986  0.00  0.00    +0.000 HD
ATOM     13  H   UNL     1       3.216 -11.333 -24.316  0.00  0.00    +0.000 HD
ATOM     14  H   UNL     1       6.030  -8.125 -24.692  0.00  0.00    +0.000 HD
ATOM     15  H   UNL     1       3.757  -8.942 -24.129  0.00  0.00    +0.000 HD
ATOM     16  H   UNL     1       7.819 -14.462 -26.153  0.00  0.00    +0.000 HD
ATOM     17  H   UNL     1       5.487 -15.133 -25.551  0.00  0.00    +0.000 HD
ENDROOT
TORSDOF 0
ENDMDL
MODEL 2
REMARK VINA RESULT:    -4.713     28.205     30.202
REMARK INTER + INTRA:          -4.713
REMARK INTER:                  -4.713
REMARK INTRA:                   0.000
REMARK UNBOUND:                 0.000
REMARK  Name = 7047
REMARK  0 active torsions:
REMARK  status: ('A' for Active; 'I' for Inactive)
REMARK                            x       y       z     vdW  Elec       q    Type
REMARK                         _______ _______ _______ _____ _____    ______ ____
ROOT
ATOM      1  N   UNL     1       1.746  14.906  -8.386  0.00  0.00    +0.000 NA
ATOM      2  C   UNL     1       3.345  13.571  -9.598  0.00  0.00    +0.000 A 
ATOM      3  C   UNL     1       2.020  13.949  -9.292  0.00  0.00    +0.000 A 
ATOM      4  C   UNL     1       3.594  12.568 -10.549  0.00  0.00    +0.000 A 
ATOM      5  C   UNL     1       4.388  14.223  -8.929  0.00  0.00    +0.000 A 
ATOM      6  C   UNL     1       0.983  13.301  -9.957  0.00  0.00    +0.000 A 
ATOM      7  C   UNL     1       2.538  11.935 -11.200  0.00  0.00    +0.000 A 
ATOM      8  C   UNL     1       1.232  12.302 -10.904  0.00  0.00    +0.000 A 
ATOM      9  C   UNL     1       4.109  15.210  -7.994  0.00  0.00    +0.000 A 
ATOM     10  C   UNL     1       2.783  15.512  -7.762  0.00  0.00    +0.000 A 
ATOM     11  H   UNL     1       4.613  12.272 -10.788  0.00  0.00    +0.000 HD
ATOM     12  H   UNL     1       5.425  13.966  -9.131  0.00  0.00    +0.000 HD
ATOM     13  H   UNL     1      -0.049  13.570  -9.743  0.00  0.00    +0.000 HD
ATOM     14  H   UNL     1       2.735  11.160 -11.934  0.00  0.00    +0.000 HD
ATOM     15  H   UNL     1       0.402  11.815 -11.406  0.00  0.00    +0.000 HD
ATOM     16  H   UNL     1       4.904  15.725  -7.467  0.00  0.00    +0.000 HD
ATOM     17  H   UNL     1       2.503  16.275  -7.042  0.00  0.00    +0.000 HD
ENDROOT
TORSDOF 0
ENDMDL
MODEL 3
REMARK VINA RESULT:    -4.684     34.443     35.867
REMARK INTER + INTRA:          -4.684
REMARK INTER:                  -4.684
REMARK INTRA:                   0.000
REMARK UNBOUND:                 0.000
REMARK  Name = 7047
REMARK  0 active torsions:
REMARK  status: ('A' for Active; 'I' for Inactive)
REMARK                            x       y       z     vdW  Elec       q    Type
REMARK                         _______ _______ _______ _____ _____    ______ ____
ROOT
ATOM      1  N   UNL     1     -16.692 -12.063   3.152  0.00  0.00    +0.000 NA
ATOM      2  C   UNL     1     -17.105  -9.731   2.711  0.00  0.00    +0.000 A 
ATOM      3  C   UNL     1     -16.441 -10.947   2.442  0.00  0.00    +0.000 A 
ATOM      4  C   UNL     1     -16.818  -8.585   1.950  0.00  0.00    +0.000 A 
ATOM      5  C   UNL     1     -18.046  -9.707   3.748  0.00  0.00    +0.000 A 
ATOM      6  C   UNL     1     -15.506 -10.970   1.413  0.00  0.00    +0.000 A 
ATOM      7  C   UNL     1     -15.877  -8.635   0.925  0.00  0.00    +0.000 A 
ATOM      8  C   UNL     1     -15.221  -9.829   0.656  0.00  0.00    +0.000 A 
ATOM      9  C   UNL     1     -18.307 -10.856   4.480  0.00  0.00    +0.000 A 
ATOM     10  C   UNL     1     -17.609 -11.999   4.145  0.00  0.00    +0.000 A 
ATOM     11  H   UNL     1     -17.327  -7.644   2.153  0.00  0.00    +0.000 HD
ATOM     12  H   UNL     1     -18.583  -8.793   3.991  0.00  0.00    +0.000 HD
ATOM     13  H   UNL     1     -14.978 -11.893   1.181  0.00  0.00    +0.000 HD
ATOM     14  H   UNL     1     -15.659  -7.747   0.340  0.00  0.00    +0.000 HD
ATOM     15  H   UNL     1     -14.486  -9.879  -0.142  0.00  0.00    +0.000 HD
ATOM     16  H   UNL     1     -19.032 -10.856   5.285  0.00  0.00    +0.000 HD
ATOM     17  H   UNL     1     -17.770 -12.927   4.682  0.00  0.00    +0.000 HD
ENDROOT
TORSDOF 0
ENDMDL
MODEL 4
REMARK VINA RESULT:    -4.653     28.023     29.914
REMARK INTER + INTRA:          -4.653
REMARK INTER:                  -4.653
REMARK INTRA:                   0.000
REMARK UNBOUND:                 0.000
REMARK  Name = 7047
REMARK  0 active torsions:
REMARK  status: ('A' for Active; 'I' for Inactive)
REMARK                            x       y       z     vdW  Elec       q    Type
REMARK                         _______ _______ _______ _____ _____    ______ ____
ROOT
ATOM      1  N   UNL     1       0.953  13.091 -10.141  0.00  0.00    +0.000 NA
ATOM      2  C   UNL     1       3.289  13.490  -9.703  0.00  0.00    +0.000 A 
ATOM      3  C   UNL     1       1.921  13.748  -9.474  0.00  0.00    +0.000 A 
ATOM      4  C   UNL     1       4.272  14.195  -8.990  0.00  0.00    +0.000 A 
ATOM      5  C   UNL     1       3.627  12.518 -10.654  0.00  0.00    +0.000 A 
ATOM      6  C   UNL     1       1.585  14.713  -8.530  0.00  0.00    +0.000 A 
ATOM      7  C   UNL     1       3.909  15.155  -8.049  0.00  0.00    +0.000 A 
ATOM      8  C   UNL     1       2.564  15.414  -7.820  0.00  0.00    +0.000 A 
ATOM      9  C   UNL     1       2.632  11.839 -11.343  0.00  0.00    +0.000 A 
ATOM     10  C   UNL     1       1.322  12.160 -11.052  0.00  0.00    +0.000 A 
ATOM     11  H   UNL     1       5.329  13.999  -9.162  0.00  0.00    +0.000 HD
ATOM     12  H   UNL     1       4.668  12.285 -10.865  0.00  0.00    +0.000 HD
ATOM     13  H   UNL     1       0.538  14.935  -8.331  0.00  0.00    +0.000 HD
ATOM     14  H   UNL     1       4.672  15.698  -7.500  0.00  0.00    +0.000 HD
ATOM     15  H   UNL     1       2.271  16.162  -7.088  0.00  0.00    +0.000 HD
ATOM     16  H   UNL     1       2.876  11.085 -12.082  0.00  0.00    +0.000 HD
ATOM     17  H   UNL     1       0.501  11.662 -11.558  0.00  0.00    +0.000 HD
ENDROOT
TORSDOF 0
ENDMDL
MODEL 5
REMARK VINA RESULT:    -4.589     34.506     35.957
REMARK INTER + INTRA:          -4.589
REMARK INTER:                  -4.589
REMARK INTRA:                   0.000
REMARK UNBOUND:                 0.000
REMARK  Name = 7047
REMARK  0 active torsions:
REMARK  status: ('A' for Active; 'I' for Inactive)
REMARK                            x       y       z     vdW  Elec       q    Type
REMARK                         _______ _______ _______ _____ _____    ______ ____
ROOT
ATOM      1  N   UNL     1     -17.666 -10.451   0.177  0.00  0.00    +0.000 NA
ATOM      2  C   UNL     1     -17.269  -9.724   2.440  0.00  0.00    +0.000 A 
ATOM      3  C   UNL     1     -17.859 -10.597   1.502  0.00  0.00    +0.000 A 
ATOM      4  C   UNL     1     -17.491  -9.906   3.815  0.00  0.00    +0.000 A 
ATOM      5  C   UNL     1     -16.464  -8.684   1.958  0.00  0.00    +0.000 A 
ATOM      6  C   UNL     1     -18.659 -11.630   1.980  0.00  0.00    +0.000 A 
ATOM      7  C   UNL     1     -18.296 -10.948   4.268  0.00  0.00    +0.000 A 
ATOM      8  C   UNL     1     -18.880 -11.811   3.349  0.00  0.00    +0.000 A 
ATOM      9  C   UNL     1     -16.263  -8.531   0.594  0.00  0.00    +0.000 A 
ATOM     10  C   UNL     1     -16.882  -9.433  -0.247  0.00  0.00    +0.000 A 
ATOM     11  H   UNL     1     -17.038  -9.236   4.543  0.00  0.00    +0.000 HD
ATOM     12  H   UNL     1     -15.987  -7.986   2.643  0.00  0.00    +0.000 HD
ATOM     13  H   UNL     1     -19.128 -12.320   1.282  0.00  0.00    +0.000 HD
ATOM     14  H   UNL     1     -18.465 -11.085   5.331  0.00  0.00    +0.000 HD
ATOM     15  H   UNL     1     -19.509 -12.627   3.692  0.00  0.00    +0.000 HD
ATOM     16  H   UNL     1     -15.644  -7.732   0.204  0.00  0.00    +0.000 HD
ATOM     17  H   UNL     1     -16.762  -9.364  -1.324  0.00  0.00    +0.000 HD
ENDROOT
TORSDOF 0
ENDMDL
MODEL 6
REMARK VINA RESULT:    -4.580     48.028     49.305
REMARK INTER + INTRA:          -4.580
REMARK INTER:                  -4.580
REMARK INTRA:                   0.000
REMARK UNBOUND:                 0.000
REMARK  Name = 7047
REMARK  0 active torsions:
REMARK  status: ('A' for Active; 'I' for Inactive)
REMARK                            x       y       z     vdW  Elec       q    Type
REMARK                         _______ _______ _______ _____ _____    ______ ____
ROOT
ATOM      1  N   UNL     1       1.110   8.513  21.168  0.00  0.00    +0.000 NA
ATOM      2  C   UNL     1       2.073   7.247  19.359  0.00  0.00    +0.000 A 
ATOM      3  C   UNL     1       2.170   7.906  20.603  0.00  0.00    +0.000 A 
ATOM      4  C   UNL     1       3.200   6.623  18.798  0.00  0.00    +0.000 A 
ATOM      5  C   UNL     1       0.831   7.236  18.712  0.00  0.00    +0.000 A 
ATOM      6  C   UNL     1       3.404   7.916  21.245  0.00  0.00    +0.000 A 
ATOM      7  C   UNL     1       4.424   6.649  19.462  0.00  0.00    +0.000 A 
ATOM      8  C   UNL     1       4.526   7.296  20.687  0.00  0.00    +0.000 A 
ATOM      9  C   UNL     1      -0.263   7.861  19.292  0.00  0.00    +0.000 A 
ATOM     10  C   UNL     1      -0.073   8.480  20.511  0.00  0.00    +0.000 A 
ATOM     11  H   UNL     1       3.132   6.114  17.839  0.00  0.00    +0.000 HD
ATOM     12  H   UNL     1       0.708   6.741  17.752  0.00  0.00    +0.000 HD
ATOM     13  H   UNL     1       3.510   8.416  22.206  0.00  0.00    +0.000 HD
ATOM     14  H   UNL     1       5.293   6.166  19.025  0.00  0.00    +0.000 HD
ATOM     15  H   UNL     1       5.475   7.321  21.212  0.00  0.00    +0.000 HD
ATOM     16  H   UNL     1      -1.232   7.863  18.806  0.00  0.00    +0.000 HD
ATOM     17  H   UNL     1      -0.892   8.985  21.013  0.00  0.00    +0.000 HD
ENDROOT
TORSDOF 0
ENDMDL
MODEL 7
REMARK VINA RESULT:    -4.551     26.998     29.095
REMARK INTER + INTRA:          -4.551
REMARK INTER:                  -4.551
REMARK INTRA:                   0.000
REMARK UNBOUND:                 0.000
REMARK  Name = 7047
REMARK  0 active torsions:
REMARK  status: ('A' for Active; 'I' for Inactive)
REMARK                            x       y       z     vdW  Elec       q    Type
REMARK                         _______ _______ _______ _____ _____    ______ ____
ROOT
ATOM      1  N   UNL     1       5.169  15.143 -10.751  0.00  0.00    +0.000 NA
ATOM      2  C   UNL     1       3.881  13.125 -11.027  0.00  0.00    +0.000 A 
ATOM      3  C   UNL     1       4.826  14.068 -11.485  0.00  0.00    +0.000 A 
ATOM      4  C   UNL     1       3.547  12.015 -11.820  0.00  0.00    +0.000 A 
ATOM      5  C   UNL     1       3.297  13.333  -9.771  0.00  0.00    +0.000 A 
ATOM      6  C   UNL     1       5.406  13.862 -12.733  0.00  0.00    +0.000 A 
ATOM      7  C   UNL     1       4.142  11.832 -13.065  0.00  0.00    +0.000 A 
ATOM      8  C   UNL     1       5.073  12.756 -13.522  0.00  0.00    +0.000 A 
ATOM      9  C   UNL     1       3.649  14.440  -9.012  0.00  0.00    +0.000 A 
ATOM     10  C   UNL     1       4.582  15.307  -9.543  0.00  0.00    +0.000 A 
ATOM     11  H   UNL     1       2.819  11.285 -11.472  0.00  0.00    +0.000 HD
ATOM     12  H   UNL     1       2.564  12.634  -9.376  0.00  0.00    +0.000 HD
ATOM     13  H   UNL     1       6.138  14.571 -13.114  0.00  0.00    +0.000 HD
ATOM     14  H   UNL     1       3.881  10.972 -13.674  0.00  0.00    +0.000 HD
ATOM     15  H   UNL     1       5.543  12.622 -14.491  0.00  0.00    +0.000 HD
ATOM     16  H   UNL     1       3.207  14.616  -8.038  0.00  0.00    +0.000 HD
ATOM     17  H   UNL     1       4.896  16.190  -8.995  0.00  0.00    +0.000 HD
ENDROOT
TORSDOF 0
ENDMDL
MODEL 8
REMARK VINA RESULT:    -4.548     47.764     48.588
REMARK INTER + INTRA:          -4.548
REMARK INTER:                  -4.548
REMARK INTRA:                   0.000
REMARK UNBOUND:                 0.000
REMARK  Name = 7047
REMARK  0 active torsions:
REMARK  status: ('A' for Active; 'I' for Inactive)
REMARK                            x       y       z     vdW  Elec       q    Type
REMARK                         _______ _______ _______ _____ _____    ______ ____
ROOT
ATOM      1  N   UNL     1     -14.985 -14.303  17.568  0.00  0.00    +0.000 NA
ATOM      2  C   UNL     1     -13.797 -13.800  19.603  0.00  0.00    +0.000 A 
ATOM      3  C   UNL     1     -14.067 -14.632  18.497  0.00  0.00    +0.000 A 
ATOM      4  C   UNL     1     -12.832 -14.175  20.553  0.00  0.00    +0.000 A 
ATOM      5  C   UNL     1     -14.515 -12.603  19.720  0.00  0.00    +0.000 A 
ATOM      6  C   UNL     1     -13.354 -15.821  18.381  0.00  0.00    +0.000 A 
ATOM      7  C   UNL     1     -12.132 -15.370  20.414  0.00  0.00    +0.000 A 
ATOM      8  C   UNL     1     -12.394 -16.194  19.327  0.00  0.00    +0.000 A 
ATOM      9  C   UNL     1     -15.462 -12.261  18.765  0.00  0.00    +0.000 A 
ATOM     10  C   UNL     1     -15.657 -13.138  17.717  0.00  0.00    +0.000 A 
ATOM     11  H   UNL     1     -12.620 -13.536  21.409  0.00  0.00    +0.000 HD
ATOM     12  H   UNL     1     -14.341 -11.929  20.556  0.00  0.00    +0.000 HD
ATOM     13  H   UNL     1     -13.540 -16.485  17.539  0.00  0.00    +0.000 HD
ATOM     14  H   UNL     1     -11.388 -15.656  21.150  0.00  0.00    +0.000 HD
ATOM     15  H   UNL     1     -11.853 -17.129  19.210  0.00  0.00    +0.000 HD
ATOM     16  H   UNL     1     -16.026 -11.339  18.839  0.00  0.00    +0.000 HD
ATOM     17  H   UNL     1     -16.384 -12.924  16.940  0.00  0.00    +0.000 HD
ENDROOT
TORSDOF 0
ENDMDL
MODEL 9
REMARK VINA RESULT:    -4.469     26.091     27.740
REMARK INTER + INTRA:          -4.469
REMARK INTER:                  -4.469
REMARK INTRA:                   0.000
REMARK UNBOUND:                 0.000
REMARK  Name = 7047
REMARK  0 active torsions:
REMARK  status: ('A' for Active; 'I' for Inactive)
REMARK                            x       y       z     vdW  Elec       q    Type
REMARK                         _______ _______ _______ _____ _____    ______ ____
ROOT
ATOM      1  N   UNL     1       3.907  11.685 -13.807  0.00  0.00    +0.000 NA
ATOM      2  C   UNL     1       4.633  13.389 -12.265  0.00  0.00    +0.000 A 
ATOM      3  C   UNL     1       3.803  12.302 -12.615  0.00  0.00    +0.000 A 
ATOM      4  C   UNL     1       4.497  14.009 -11.013  0.00  0.00    +0.000 A 
ATOM      5  C   UNL     1       5.584  13.820 -13.199  0.00  0.00    +0.000 A 
ATOM      6  C   UNL     1       2.858  11.874 -11.688  0.00  0.00    +0.000 A 
ATOM      7  C   UNL     1       3.543  13.561 -10.103  0.00  0.00    +0.000 A 
ATOM      8  C   UNL     1       2.723  12.492 -10.441  0.00  0.00    +0.000 A 
ATOM      9  C   UNL     1       5.693  13.186 -14.428  0.00  0.00    +0.000 A 
ATOM     10  C   UNL     1       4.839  12.132 -14.681  0.00  0.00    +0.000 A 
ATOM     11  H   UNL     1       5.134  14.847 -10.737  0.00  0.00    +0.000 HD
ATOM     12  H   UNL     1       6.246  14.653 -12.974  0.00  0.00    +0.000 HD
ATOM     13  H   UNL     1       2.203  11.039 -11.929  0.00  0.00    +0.000 HD
ATOM     14  H   UNL     1       3.441  14.043  -9.136  0.00  0.00    +0.000 HD
ATOM     15  H   UNL     1       1.976  12.135  -9.739  0.00  0.00    +0.000 HD
ATOM     16  H   UNL     1       6.424  13.507 -15.162  0.00  0.00    +0.000 HD
ATOM     17  H   UNL     1       4.878  11.598 -15.625  0.00  0.00    +0.000 HD
ENDROOT
TORSDOF 0
ENDMDL
MODEL 10
REMARK VINA RESULT:    -4.447     26.952     28.929
REMARK INTER + INTRA:          -4.447
REMARK INTER:                  -4.447
REMARK INTRA:                   0.000
REMARK UNBOUND:                 0.000
REMARK  Name = 7047
REMARK  0 active torsions:
REMARK  status: ('A' for Active; 'I' for Inactive)
REMARK                            x       y       z     vdW  Elec       q    Type
REMARK                         _______ _______ _______ _____ _____    ______ ____
ROOT
ATOM      1  N   UNL     1       5.382  13.794 -12.784  0.00  0.00    +0.000 NA
ATOM      2  C   UNL     1       3.924  13.099 -10.996  0.00  0.00    +0.000 A 
ATOM      3  C   UNL     1       4.872  13.984 -11.552  0.00  0.00    +0.000 A 
ATOM      4  C   UNL     1       3.413  13.328  -9.707  0.00  0.00    +0.000 A 
ATOM      5  C   UNL     1       3.517  12.000 -11.762  0.00  0.00    +0.000 A 
ATOM      6  C   UNL     1       5.277  15.076 -10.790  0.00  0.00    +0.000 A 
ATOM      7  C   UNL     1       3.835  14.428  -8.965  0.00  0.00    +0.000 A 
ATOM      8  C   UNL     1       4.768  15.303  -9.508  0.00  0.00    +0.000 A 
ATOM      9  C   UNL     1       4.041  11.802 -13.032  0.00  0.00    +0.000 A 
ATOM     10  C   UNL     1       4.962  12.720 -13.492  0.00  0.00    +0.000 A 
ATOM     11  H   UNL     1       2.682  12.649  -9.273  0.00  0.00    +0.000 HD
ATOM     12  H   UNL     1       2.788  11.291 -11.375  0.00  0.00    +0.000 HD
ATOM     13  H   UNL     1       6.006  15.776 -11.192  0.00  0.00    +0.000 HD
ATOM     14  H   UNL     1       3.437  14.601  -7.970  0.00  0.00    +0.000 HD
ATOM     15  H   UNL     1       5.103  16.164  -8.937  0.00  0.00    +0.000 HD
ATOM     16  H   UNL     1       3.737  10.958 -13.639  0.00  0.00    +0.000 HD
ATOM     17  H   UNL     1       5.406  12.618 -14.477  0.00  0.00    +0.000 HD
ENDROOT
TORSDOF 0
ENDMDL
