MODEL 1
REMARK VINA RESULT:    -6.001      0.000      0.000
REMARK INTER + INTRA:          -6.900
REMARK INTER:                  -6.728
REMARK INTRA:                  -0.171
REMARK UNBOUND:                -0.197
REMARK  Name = 5144
REMARK  2 active torsions:
REMARK  status: ('A' for Active; 'I' for Inactive)
REMARK    1  A    between atoms: C_3  and  C_7
REMARK    2  A    between atoms: C_7  and  C_11
REMARK                            x       y       z     vdW  Elec       q    Type
REMARK                         _______ _______ _______ _____ _____    ______ ____
ROOT
ATOM      1  O   UNL     1       5.090   1.016  -3.970  0.00  0.00    +0.000 OA
ATOM      2  O   UNL     1       6.727  -0.406  -5.020  0.00  0.00    +0.000 OA
ATOM      3  C   UNL     1       7.616   1.110  -1.311  0.00  0.00    +0.000 A 
ATOM      4  C   UNL     1       6.197   0.847  -3.199  0.00  0.00    +0.000 A 
ATOM      5  C   UNL     1       7.133   0.035  -3.799  0.00  0.00    +0.000 A 
ATOM      6  C   UNL     1       6.410   1.401  -1.953  0.00  0.00    +0.000 A 
ATOM      7  C   UNL     1       8.571   0.281  -1.924  0.00  0.00    +0.000 A 
ATOM      8  C   UNL     1       8.331  -0.268  -3.185  0.00  0.00    +0.000 A 
ATOM      9  C   UNL     1       5.431   0.220  -5.122  0.00  0.00    +0.000 C 
ATOM     10  H   UNL     1       5.661   2.038  -1.494  0.00  0.00    +0.000 HD
ATOM     11  H   UNL     1       9.508   0.056  -1.419  0.00  0.00    +0.000 HD
ATOM     12  H   UNL     1       9.066  -0.908  -3.661  0.00  0.00    +0.000 HD
ATOM     13  H   UNL     1       5.422   0.865  -6.010  0.00  0.00    +0.000 HD
ATOM     14  H   UNL     1       4.673  -0.562  -5.247  0.00  0.00    +0.000 HD
ENDROOT
BRANCH   3  15
ATOM     15  C   UNL     1       7.894   1.685   0.038  0.00  0.00    +0.000 C 
ATOM     16  H   UNL     1       6.981   1.666   0.647  0.00  0.00    +0.000 HD
ATOM     17  H   UNL     1       8.604   1.040   0.571  0.00  0.00    +0.000 HD
BRANCH  15  18
ATOM     18  C   UNL     1       8.399   3.103  -0.018  0.00  0.00    +0.000 C 
ATOM     19  C   UNL     1       7.775   4.146   0.541  0.00  0.00    +0.000 C 
ATOM     20  H   UNL     1       9.321   3.283  -0.565  0.00  0.00    +0.000 HD
ATOM     21  H   UNL     1       8.189   5.144   0.456  0.00  0.00    +0.000 HD
ATOM     22  H   UNL     1       6.848   4.024   1.091  0.00  0.00    +0.000 HD
ENDBRANCH  15  18
ENDBRANCH   3  15
TORSDOF 2
ENDMDL
MODEL 2
REMARK VINA RESULT:    -5.999      7.763      8.750
REMARK INTER + INTRA:          -6.897
REMARK INTER:                  -6.679
REMARK INTRA:                  -0.218
REMARK UNBOUND:                -0.197
REMARK  Name = 5144
REMARK  2 active torsions:
REMARK  status: ('A' for Active; 'I' for Inactive)
REMARK    1  A    between atoms: C_3  and  C_7
REMARK    2  A    between atoms: C_7  and  C_11
REMARK                            x       y       z     vdW  Elec       q    Type
REMARK                         _______ _______ _______ _____ _____    ______ ____
ROOT
ATOM      1  O   UNL     1      15.065   6.398  -5.565  0.00  0.00    +0.000 OA
ATOM      2  O   UNL     1      14.838   4.372  -4.281  0.00  0.00    +0.000 OA
ATOM      3  C   UNL     1      11.734   7.056  -4.175  0.00  0.00    +0.000 A 
ATOM      4  C   UNL     1      13.879   6.338  -4.901  0.00  0.00    +0.000 A 
ATOM      5  C   UNL     1      13.750   5.181  -4.166  0.00  0.00    +0.000 A 
ATOM      6  C   UNL     1      12.887   7.297  -4.925  0.00  0.00    +0.000 A 
ATOM      7  C   UNL     1      11.602   5.874  -3.425  0.00  0.00    +0.000 A 
ATOM      8  C   UNL     1      12.621   4.919  -3.417  0.00  0.00    +0.000 A 
ATOM      9  C   UNL     1      15.668   5.150  -5.168  0.00  0.00    +0.000 C 
ATOM     10  H   UNL     1      13.005   8.202  -5.510  0.00  0.00    +0.000 HD
ATOM     11  H   UNL     1      10.701   5.690  -2.844  0.00  0.00    +0.000 HD
ATOM     12  H   UNL     1      12.522   4.006  -2.841  0.00  0.00    +0.000 HD
ATOM     13  H   UNL     1      16.617   5.363  -4.663  0.00  0.00    +0.000 HD
ATOM     14  H   UNL     1      15.872   4.556  -6.067  0.00  0.00    +0.000 HD
ENDROOT
BRANCH   3  15
ATOM     15  C   UNL     1      10.631   8.061  -4.168  0.00  0.00    +0.000 C 
ATOM     16  H   UNL     1       9.936   7.846  -3.346  0.00  0.00    +0.000 HD
ATOM     17  H   UNL     1      11.041   9.053  -3.941  0.00  0.00    +0.000 HD
BRANCH  15  18
ATOM     18  C   UNL     1       9.851   8.088  -5.457  0.00  0.00    +0.000 C 
ATOM     19  C   UNL     1       8.893   7.210  -5.774  0.00  0.00    +0.000 C 
ATOM     20  H   UNL     1      10.102   8.864  -6.176  0.00  0.00    +0.000 HD
ATOM     21  H   UNL     1       8.375   7.281  -6.724  0.00  0.00    +0.000 HD
ATOM     22  H   UNL     1       8.609   6.411  -5.097  0.00  0.00    +0.000 HD
ENDBRANCH  15  18
ENDBRANCH   3  15
TORSDOF 2
ENDMDL
MODEL 3
REMARK VINA RESULT:    -5.580      3.129      4.869
REMARK INTER + INTRA:          -6.429
REMARK INTER:                  -6.265
REMARK INTRA:                  -0.164
REMARK UNBOUND:                -0.197
REMARK  Name = 5144
REMARK  2 active torsions:
REMARK  status: ('A' for Active; 'I' for Inactive)
REMARK    1  A    between atoms: C_3  and  C_7
REMARK    2  A    between atoms: C_7  and  C_11
REMARK                            x       y       z     vdW  Elec       q    Type
REMARK                         _______ _______ _______ _____ _____    ______ ____
ROOT
ATOM      1  O   UNL     1       7.467  -0.272   1.314  0.00  0.00    +0.000 OA
ATOM      2  O   UNL     1       9.306  -1.675   0.638  0.00  0.00    +0.000 OA
ATOM      3  C   UNL     1       7.055   0.076  -2.315  0.00  0.00    +0.000 A 
ATOM      4  C   UNL     1       7.586  -0.351  -0.039  0.00  0.00    +0.000 A 
ATOM      5  C   UNL     1       8.636  -1.154  -0.425  0.00  0.00    +0.000 A 
ATOM      6  C   UNL     1       6.776   0.278  -0.962  0.00  0.00    +0.000 A 
ATOM      7  C   UNL     1       8.128  -0.744  -2.710  0.00  0.00    +0.000 A 
ATOM      8  C   UNL     1       8.933  -1.369  -1.755  0.00  0.00    +0.000 A 
ATOM      9  C   UNL     1       8.560  -1.112   1.737  0.00  0.00    +0.000 C 
ATOM     10  H   UNL     1       5.953   0.907  -0.640  0.00  0.00    +0.000 HD
ATOM     11  H   UNL     1       8.343  -0.897  -3.765  0.00  0.00    +0.000 HD
ATOM     12  H   UNL     1       9.762  -2.001  -2.056  0.00  0.00    +0.000 HD
ATOM     13  H   UNL     1       8.157  -1.932   2.344  0.00  0.00    +0.000 HD
ATOM     14  H   UNL     1       9.242  -0.518   2.356  0.00  0.00    +0.000 HD
ENDROOT
BRANCH   3  15
ATOM     15  C   UNL     1       6.210   0.734  -3.353  0.00  0.00    +0.000 C 
ATOM     16  H   UNL     1       5.228   0.985  -2.930  0.00  0.00    +0.000 HD
ATOM     17  H   UNL     1       6.654   1.698  -3.631  0.00  0.00    +0.000 HD
BRANCH  15  18
ATOM     18  C   UNL     1       5.997  -0.126  -4.572  0.00  0.00    +0.000 C 
ATOM     19  C   UNL     1       5.317   0.262  -5.657  0.00  0.00    +0.000 C 
ATOM     20  H   UNL     1       6.411  -1.131  -4.552  0.00  0.00    +0.000 HD
ATOM     21  H   UNL     1       5.194  -0.411  -6.498  0.00  0.00    +0.000 HD
ATOM     22  H   UNL     1       4.876   1.251  -5.726  0.00  0.00    +0.000 HD
ENDBRANCH  15  18
ENDBRANCH   3  15
TORSDOF 2
ENDMDL
MODEL 4
REMARK VINA RESULT:    -5.497      2.015      2.210
REMARK INTER + INTRA:          -6.336
REMARK INTER:                  -6.184
REMARK INTRA:                  -0.153
REMARK UNBOUND:                -0.197
REMARK  Name = 5144
REMARK  2 active torsions:
REMARK  status: ('A' for Active; 'I' for Inactive)
REMARK    1  A    between atoms: C_3  and  C_7
REMARK    2  A    between atoms: C_7  and  C_11
REMARK                            x       y       z     vdW  Elec       q    Type
REMARK                         _______ _______ _______ _____ _____    ______ ____
ROOT
ATOM      1  O   UNL     1       5.611  -0.597  -2.193  0.00  0.00    +0.000 OA
ATOM      2  O   UNL     1       7.091  -2.496  -2.094  0.00  0.00    +0.000 OA
ATOM      3  C   UNL     1       8.319   0.979  -0.285  0.00  0.00    +0.000 A 
ATOM      4  C   UNL     1       6.759  -0.322  -1.519  0.00  0.00    +0.000 A 
ATOM      5  C   UNL     1       7.606  -1.405  -1.463  0.00  0.00    +0.000 A 
ATOM      6  C   UNL     1       7.089   0.887  -0.939  0.00  0.00    +0.000 A 
ATOM      7  C   UNL     1       9.183  -0.129  -0.228  0.00  0.00    +0.000 A 
ATOM      8  C   UNL     1       8.827  -1.341  -0.823  0.00  0.00    +0.000 A 
ATOM      9  C   UNL     1       5.827  -1.976  -2.555  0.00  0.00    +0.000 C 
ATOM     10  H   UNL     1       6.410   1.731  -0.992  0.00  0.00    +0.000 HD
ATOM     11  H   UNL     1      10.141  -0.053   0.284  0.00  0.00    +0.000 HD
ATOM     12  H   UNL     1       9.490  -2.197  -0.780  0.00  0.00    +0.000 HD
ATOM     13  H   UNL     1       5.790  -2.062  -3.647  0.00  0.00    +0.000 HD
ATOM     14  H   UNL     1       5.022  -2.583  -2.125  0.00  0.00    +0.000 HD
ENDROOT
BRANCH   3  15
ATOM     15  C   UNL     1       8.723   2.263   0.358  0.00  0.00    +0.000 C 
ATOM     16  H   UNL     1       8.900   2.104   1.430  0.00  0.00    +0.000 HD
ATOM     17  H   UNL     1       9.691   2.587  -0.045  0.00  0.00    +0.000 HD
BRANCH  15  18
ATOM     18  C   UNL     1       7.690   3.349   0.203  0.00  0.00    +0.000 C 
ATOM     19  C   UNL     1       7.888   4.629   0.541  0.00  0.00    +0.000 C 
ATOM     20  H   UNL     1       6.719   3.062  -0.192  0.00  0.00    +0.000 HD
ATOM     21  H   UNL     1       7.098   5.360   0.411  0.00  0.00    +0.000 HD
ATOM     22  H   UNL     1       8.835   4.968   0.948  0.00  0.00    +0.000 HD
ENDBRANCH  15  18
ENDBRANCH   3  15
TORSDOF 2
ENDMDL
MODEL 5
REMARK VINA RESULT:    -4.919     24.295     26.168
REMARK INTER + INTRA:          -5.691
REMARK INTER:                  -5.538
REMARK INTRA:                  -0.154
REMARK UNBOUND:                -0.197
REMARK  Name = 5144
REMARK  2 active torsions:
REMARK  status: ('A' for Active; 'I' for Inactive)
REMARK    1  A    between atoms: C_3  and  C_7
REMARK    2  A    between atoms: C_7  and  C_11
REMARK                            x       y       z     vdW  Elec       q    Type
REMARK                         _______ _______ _______ _____ _____    ______ ____
ROOT
ATOM      1  O   UNL     1       4.968  -8.811 -24.573  0.00  0.00    +0.000 OA
ATOM      2  O   UNL     1       3.420 -10.551 -23.953  0.00  0.00    +0.000 OA
ATOM      3  C   UNL     1       6.929 -11.674 -25.764  0.00  0.00    +0.000 A 
ATOM      4  C   UNL     1       5.426 -10.050 -24.897  0.00  0.00    +0.000 A 
ATOM      5  C   UNL     1       4.542 -11.044 -24.545  0.00  0.00    +0.000 A 
ATOM      6  C   UNL     1       6.630 -10.333 -25.510  0.00  0.00    +0.000 A 
ATOM      7  C   UNL     1       6.025 -12.689 -25.403  0.00  0.00    +0.000 A 
ATOM      8  C   UNL     1       4.814 -12.375 -24.784  0.00  0.00    +0.000 A 
ATOM      9  C   UNL     1       3.696  -9.135 -23.975  0.00  0.00    +0.000 C 
ATOM     10  H   UNL     1       7.315  -9.538 -25.781  0.00  0.00    +0.000 HD
ATOM     11  H   UNL     1       6.263 -13.732 -25.601  0.00  0.00    +0.000 HD
ATOM     12  H   UNL     1       4.115 -13.156 -24.503  0.00  0.00    +0.000 HD
ATOM     13  H   UNL     1       2.903  -8.632 -24.541  0.00  0.00    +0.000 HD
ATOM     14  H   UNL     1       3.686  -8.761 -22.945  0.00  0.00    +0.000 HD
ENDROOT
BRANCH   3  15
ATOM     15  C   UNL     1       8.218 -12.033 -26.424  0.00  0.00    +0.000 C 
ATOM     16  H   UNL     1       8.877 -12.536 -25.705  0.00  0.00    +0.000 HD
ATOM     17  H   UNL     1       8.032 -12.779 -27.208  0.00  0.00    +0.000 HD
BRANCH  15  18
ATOM     18  C   UNL     1       8.945 -10.840 -26.985  0.00  0.00    +0.000 C 
ATOM     19  C   UNL     1      10.220 -10.859 -27.393  0.00  0.00    +0.000 C 
ATOM     20  H   UNL     1       8.397  -9.902 -27.042  0.00  0.00    +0.000 HD
ATOM     21  H   UNL     1      10.687  -9.960 -27.779  0.00  0.00    +0.000 HD
ATOM     22  H   UNL     1      10.815 -11.765 -27.350  0.00  0.00    +0.000 HD
ENDBRANCH  15  18
ENDBRANCH   3  15
TORSDOF 2
ENDMDL
MODEL 6
REMARK VINA RESULT:    -4.815     14.722     15.480
REMARK INTER + INTRA:          -5.574
REMARK INTER:                  -5.405
REMARK INTRA:                  -0.169
REMARK UNBOUND:                -0.197
REMARK  Name = 5144
REMARK  2 active torsions:
REMARK  status: ('A' for Active; 'I' for Inactive)
REMARK    1  A    between atoms: C_3  and  C_7
REMARK    2  A    between atoms: C_7  and  C_11
REMARK                            x       y       z     vdW  Elec       q    Type
REMARK                         _______ _______ _______ _____ _____    ______ ____
ROOT
ATOM      1  O   UNL     1       5.361  13.525 -13.625  0.00  0.00    +0.000 OA
ATOM      2  O   UNL     1       4.110  11.470 -13.762  0.00  0.00    +0.000 OA
ATOM      3  C   UNL     1       3.712  13.723 -10.353  0.00  0.00    +0.000 A 
ATOM      4  C   UNL     1       4.612  13.301 -12.512  0.00  0.00    +0.000 A 
ATOM      5  C   UNL     1       3.898  12.127 -12.589  0.00  0.00    +0.000 A 
ATOM      6  C   UNL     1       4.541  14.122 -11.404  0.00  0.00    +0.000 A 
ATOM      7  C   UNL     1       2.983  12.524 -10.433  0.00  0.00    +0.000 A 
ATOM      8  C   UNL     1       3.073  11.710 -11.565  0.00  0.00    +0.000 A 
ATOM      9  C   UNL     1       5.038  12.361 -14.413  0.00  0.00    +0.000 C 
ATOM     10  H   UNL     1       5.110  15.044 -11.361  0.00  0.00    +0.000 HD
ATOM     11  H   UNL     1       2.338  12.218  -9.612  0.00  0.00    +0.000 HD
ATOM     12  H   UNL     1       2.511  10.785 -11.630  0.00  0.00    +0.000 HD
ATOM     13  H   UNL     1       5.963  11.812 -14.623  0.00  0.00    +0.000 HD
ATOM     14  H   UNL     1       4.600  12.690 -15.363  0.00  0.00    +0.000 HD
ENDROOT
BRANCH   3  15
ATOM     15  C   UNL     1       3.599  14.576  -9.134  0.00  0.00    +0.000 C 
ATOM     16  H   UNL     1       3.470  15.626  -9.425  0.00  0.00    +0.000 HD
ATOM     17  H   UNL     1       2.682  14.316  -8.589  0.00  0.00    +0.000 HD
BRANCH  15  18
ATOM     18  C   UNL     1       4.802  14.476  -8.233  0.00  0.00    +0.000 C 
ATOM     19  C   UNL     1       5.565  15.517  -7.879  0.00  0.00    +0.000 C 
ATOM     20  H   UNL     1       5.071  13.489  -7.865  0.00  0.00    +0.000 HD
ATOM     21  H   UNL     1       6.423  15.375  -7.232  0.00  0.00    +0.000 HD
ATOM     22  H   UNL     1       5.347  16.522  -8.223  0.00  0.00    +0.000 HD
ENDBRANCH  15  18
ENDBRANCH   3  15
TORSDOF 2
ENDMDL
MODEL 7
REMARK VINA RESULT:    -4.714     25.284     26.152
REMARK INTER + INTRA:          -5.461
REMARK INTER:                  -5.253
REMARK INTRA:                  -0.208
REMARK UNBOUND:                -0.197
REMARK  Name = 5144
REMARK  2 active torsions:
REMARK  status: ('A' for Active; 'I' for Inactive)
REMARK    1  A    between atoms: C_3  and  C_7
REMARK    2  A    between atoms: C_7  and  C_11
REMARK                            x       y       z     vdW  Elec       q    Type
REMARK                         _______ _______ _______ _____ _____    ______ ____
ROOT
ATOM      1  O   UNL     1     -17.396 -10.353  -2.900  0.00  0.00    +0.000 OA
ATOM      2  O   UNL     1     -15.464 -11.792  -2.831  0.00  0.00    +0.000 OA
ATOM      3  C   UNL     1     -16.176  -9.395   0.425  0.00  0.00    +0.000 A 
ATOM      4  C   UNL     1     -16.699 -10.226  -1.739  0.00  0.00    +0.000 A 
ATOM      5  C   UNL     1     -15.594 -11.047  -1.700  0.00  0.00    +0.000 A 
ATOM      6  C   UNL     1     -17.016  -9.386  -0.691  0.00  0.00    +0.000 A 
ATOM      7  C   UNL     1     -15.049 -10.234   0.465  0.00  0.00    +0.000 A 
ATOM      8  C   UNL     1     -14.749 -11.074  -0.609  0.00  0.00    +0.000 A 
ATOM      9  C   UNL     1     -16.609 -11.347  -3.587  0.00  0.00    +0.000 C 
ATOM     10  H   UNL     1     -17.891  -8.746  -0.739  0.00  0.00    +0.000 HD
ATOM     11  H   UNL     1     -14.398 -10.238   1.337  0.00  0.00    +0.000 HD
ATOM     12  H   UNL     1     -13.881 -11.723  -0.581  0.00  0.00    +0.000 HD
ATOM     13  H   UNL     1     -16.259 -10.923  -4.536  0.00  0.00    +0.000 HD
ATOM     14  H   UNL     1     -17.245 -12.214  -3.802  0.00  0.00    +0.000 HD
ENDROOT
BRANCH   3  15
ATOM     15  C   UNL     1     -16.476  -8.506   1.585  0.00  0.00    +0.000 C 
ATOM     16  H   UNL     1     -15.632  -7.827   1.762  0.00  0.00    +0.000 HD
ATOM     17  H   UNL     1     -17.320  -7.850   1.335  0.00  0.00    +0.000 HD
BRANCH  15  18
ATOM     18  C   UNL     1     -16.750  -9.268   2.855  0.00  0.00    +0.000 C 
ATOM     19  C   UNL     1     -17.974  -9.585   3.292  0.00  0.00    +0.000 C 
ATOM     20  H   UNL     1     -15.893  -9.559   3.457  0.00  0.00    +0.000 HD
ATOM     21  H   UNL     1     -18.102 -10.129   4.221  0.00  0.00    +0.000 HD
ATOM     22  H   UNL     1     -18.864  -9.312   2.735  0.00  0.00    +0.000 HD
ENDBRANCH  15  18
ENDBRANCH   3  15
TORSDOF 2
ENDMDL
MODEL 8
REMARK VINA RESULT:    -4.545     26.553     28.023
REMARK INTER + INTRA:          -5.273
REMARK INTER:                  -5.083
REMARK INTRA:                  -0.190
REMARK UNBOUND:                -0.197
REMARK  Name = 5144
REMARK  2 active torsions:
REMARK  status: ('A' for Active; 'I' for Inactive)
REMARK    1  A    between atoms: C_3  and  C_7
REMARK    2  A    between atoms: C_7  and  C_11
REMARK                            x       y       z     vdW  Elec       q    Type
REMARK                         _______ _______ _______ _____ _____    ______ ____
ROOT
ATOM      1  O   UNL     1     -18.191 -12.714   3.237  0.00  0.00    +0.000 OA
ATOM      2  O   UNL     1     -18.551 -11.056   4.948  0.00  0.00    +0.000 OA
ATOM      3  C   UNL     1     -16.885  -9.814   1.408  0.00  0.00    +0.000 A 
ATOM      4  C   UNL     1     -17.790 -11.474   2.847  0.00  0.00    +0.000 A 
ATOM      5  C   UNL     1     -17.994 -10.527   3.825  0.00  0.00    +0.000 A 
ATOM      6  C   UNL     1     -17.235 -11.149   1.626  0.00  0.00    +0.000 A 
ATOM      7  C   UNL     1     -17.095  -8.847   2.406  0.00  0.00    +0.000 A 
ATOM      8  C   UNL     1     -17.658  -9.203   3.634  0.00  0.00    +0.000 A 
ATOM      9  C   UNL     1     -18.672 -12.442   4.569  0.00  0.00    +0.000 C 
ATOM     10  H   UNL     1     -17.082 -11.908   0.867  0.00  0.00    +0.000 HD
ATOM     11  H   UNL     1     -16.822  -7.809   2.231  0.00  0.00    +0.000 HD
ATOM     12  H   UNL     1     -17.821  -8.459   4.406  0.00  0.00    +0.000 HD
ATOM     13  H   UNL     1     -18.101 -13.052   5.280  0.00  0.00    +0.000 HD
ATOM     14  H   UNL     1     -19.728 -12.730   4.627  0.00  0.00    +0.000 HD
ENDROOT
BRANCH   3  15
ATOM     15  C   UNL     1     -16.283  -9.410   0.104  0.00  0.00    +0.000 C 
ATOM     16  H   UNL     1     -16.252  -8.315   0.031  0.00  0.00    +0.000 HD
ATOM     17  H   UNL     1     -15.233  -9.727   0.071  0.00  0.00    +0.000 HD
BRANCH  15  18
ATOM     18  C   UNL     1     -17.039  -9.945  -1.085  0.00  0.00    +0.000 C 
ATOM     19  C   UNL     1     -17.909  -9.229  -1.806  0.00  0.00    +0.000 C 
ATOM     20  H   UNL     1     -16.873 -10.984  -1.356  0.00  0.00    +0.000 HD
ATOM     21  H   UNL     1     -18.427  -9.678  -2.646  0.00  0.00    +0.000 HD
ATOM     22  H   UNL     1     -18.118  -8.190  -1.575  0.00  0.00    +0.000 HD
ENDBRANCH  15  18
ENDBRANCH   3  15
TORSDOF 2
ENDMDL
MODEL 9
REMARK VINA RESULT:    -4.514     24.511     25.791
REMARK INTER + INTRA:          -5.239
REMARK INTER:                  -5.042
REMARK INTRA:                  -0.197
REMARK UNBOUND:                -0.197
REMARK  Name = 5144
REMARK  2 active torsions:
REMARK  status: ('A' for Active; 'I' for Inactive)
REMARK    1  A    between atoms: C_3  and  C_7
REMARK    2  A    between atoms: C_7  and  C_11
REMARK                            x       y       z     vdW  Elec       q    Type
REMARK                         _______ _______ _______ _____ _____    ______ ____
ROOT
ATOM      1  O   UNL     1      -1.493 -10.533  19.758  0.00  0.00    +0.000 OA
ATOM      2  O   UNL     1      -3.261  -8.916  20.018  0.00  0.00    +0.000 OA
ATOM      3  C   UNL     1       0.592  -7.650  20.653  0.00  0.00    +0.000 A 
ATOM      4  C   UNL     1      -1.023  -9.305  20.105  0.00  0.00    +0.000 A 
ATOM      5  C   UNL     1      -2.032  -8.381  20.255  0.00  0.00    +0.000 A 
ATOM      6  C   UNL     1       0.302  -8.969  20.298  0.00  0.00    +0.000 A 
ATOM      7  C   UNL     1      -0.439  -6.707  20.805  0.00  0.00    +0.000 A 
ATOM      8  C   UNL     1      -1.772  -7.072  20.604  0.00  0.00    +0.000 A 
ATOM      9  C   UNL     1      -2.912 -10.279  19.704  0.00  0.00    +0.000 C 
ATOM     10  H   UNL     1       1.085  -9.710  20.176  0.00  0.00    +0.000 HD
ATOM     11  H   UNL     1      -0.208  -5.680  21.080  0.00  0.00    +0.000 HD
ATOM     12  H   UNL     1      -2.570  -6.346  20.720  0.00  0.00    +0.000 HD
ATOM     13  H   UNL     1      -3.415 -10.943  20.418  0.00  0.00    +0.000 HD
ATOM     14  H   UNL     1      -3.273 -10.510  18.695  0.00  0.00    +0.000 HD
ENDROOT
BRANCH   3  15
ATOM     15  C   UNL     1       2.009  -7.237  20.873  0.00  0.00    +0.000 C 
ATOM     16  H   UNL     1       2.410  -7.739  21.763  0.00  0.00    +0.000 HD
ATOM     17  H   UNL     1       2.629  -7.596  20.041  0.00  0.00    +0.000 HD
BRANCH  15  18
ATOM     18  C   UNL     1       2.167  -5.749  21.053  0.00  0.00    +0.000 C 
ATOM     19  C   UNL     1       2.944  -4.977  20.285  0.00  0.00    +0.000 C 
ATOM     20  H   UNL     1       1.624  -5.285  21.873  0.00  0.00    +0.000 HD
ATOM     21  H   UNL     1       3.020  -3.913  20.475  0.00  0.00    +0.000 HD
ATOM     22  H   UNL     1       3.514  -5.390  19.459  0.00  0.00    +0.000 HD
ENDBRANCH  15  18
ENDBRANCH   3  15
TORSDOF 2
ENDMDL
MODEL 10
REMARK VINA RESULT:    -4.456     15.194     16.367
REMARK INTER + INTRA:          -5.174
REMARK INTER:                  -5.044
REMARK INTRA:                  -0.129
REMARK UNBOUND:                -0.197
REMARK  Name = 5144
REMARK  2 active torsions:
REMARK  status: ('A' for Active; 'I' for Inactive)
REMARK    1  A    between atoms: C_3  and  C_7
REMARK    2  A    between atoms: C_7  and  C_11
REMARK                            x       y       z     vdW  Elec       q    Type
REMARK                         _______ _______ _______ _____ _____    ______ ____
ROOT
ATOM      1  O   UNL     1       6.622  16.067 -11.567  0.00  0.00    +0.000 OA
ATOM      2  O   UNL     1       7.465  16.591  -9.371  0.00  0.00    +0.000 OA
ATOM      3  C   UNL     1       4.143  14.192  -9.617  0.00  0.00    +0.000 A 
ATOM      4  C   UNL     1       5.883  15.493 -10.579  0.00  0.00    +0.000 A 
ATOM      5  C   UNL     1       6.364  15.792  -9.325  0.00  0.00    +0.000 A 
ATOM      6  C   UNL     1       4.772  14.694 -10.758  0.00  0.00    +0.000 A 
ATOM      7  C   UNL     1       4.635  14.498  -8.336  0.00  0.00    +0.000 A 
ATOM      8  C   UNL     1       5.762  15.308  -8.182  0.00  0.00    +0.000 A 
ATOM      9  C   UNL     1       7.623  16.761 -10.794  0.00  0.00    +0.000 C 
ATOM     10  H   UNL     1       4.407  14.468 -11.754  0.00  0.00    +0.000 HD
ATOM     11  H   UNL     1       4.143  14.103  -7.450  0.00  0.00    +0.000 HD
ATOM     12  H   UNL     1       6.144  15.546  -7.195  0.00  0.00    +0.000 HD
ATOM     13  H   UNL     1       7.566  17.831 -11.028  0.00  0.00    +0.000 HD
ATOM     14  H   UNL     1       8.612  16.389 -11.085  0.00  0.00    +0.000 HD
ENDROOT
BRANCH   3  15
ATOM     15  C   UNL     1       2.938  13.323  -9.757  0.00  0.00    +0.000 C 
ATOM     16  H   UNL     1       2.961  12.529  -8.999  0.00  0.00    +0.000 HD
ATOM     17  H   UNL     1       2.037  13.907  -9.528  0.00  0.00    +0.000 HD
BRANCH  15  18
ATOM     18  C   UNL     1       2.829  12.682 -11.115  0.00  0.00    +0.000 C 
ATOM     19  C   UNL     1       3.351  11.490 -11.428  0.00  0.00    +0.000 C 
ATOM     20  H   UNL     1       2.306  13.238 -11.889  0.00  0.00    +0.000 HD
ATOM     21  H   UNL     1       3.243  11.089 -12.429  0.00  0.00    +0.000 HD
ATOM     22  H   UNL     1       3.889  10.897 -10.696  0.00  0.00    +0.000 HD
ENDBRANCH  15  18
ENDBRANCH   3  15
TORSDOF 2
ENDMDL
