MODEL 1
REMARK VINA RESULT:    -2.683      0.000      0.000
REMARK INTER + INTRA:          -2.683
REMARK INTER:                  -2.683
REMARK INTRA:                   0.000
REMARK UNBOUND:                 0.000
REMARK  Name = 9256
REMARK  0 active torsions:
REMARK  status: ('A' for Active; 'I' for Inactive)
REMARK                            x       y       z     vdW  Elec       q    Type
REMARK                         _______ _______ _______ _____ _____    ______ ____
ROOT
ATOM      1  S   UNL     1      15.317   4.401  -5.532  0.00  0.00    +0.000 S 
ATOM      2  N   UNL     1      16.335   3.859  -3.219  0.00  0.00    +0.000 NA
ATOM      3  C   UNL     1      16.859   5.054  -5.161  0.00  0.00    +0.000 A 
ATOM      4  C   UNL     1      17.236   4.660  -3.894  0.00  0.00    +0.000 A 
ATOM      5  C   UNL     1      15.288   3.658  -3.986  0.00  0.00    +0.000 A 
ATOM      6  H   UNL     1      17.398   5.674  -5.863  0.00  0.00    +0.000 HD
ATOM      7  H   UNL     1      18.165   4.932  -3.413  0.00  0.00    +0.000 HD
ATOM      8  H   UNL     1      14.447   3.056  -3.664  0.00  0.00    +0.000 HD
ENDROOT
TORSDOF 0
ENDMDL
MODEL 2
REMARK VINA RESULT:    -2.597      7.263      7.625
REMARK INTER + INTRA:          -2.597
REMARK INTER:                  -2.597
REMARK INTRA:                   0.000
REMARK UNBOUND:                 0.000
REMARK  Name = 9256
REMARK  0 active torsions:
REMARK  status: ('A' for Active; 'I' for Inactive)
REMARK                            x       y       z     vdW  Elec       q    Type
REMARK                         _______ _______ _______ _____ _____    ______ ____
ROOT
ATOM      1  S   UNL     1      11.320   7.770  -2.504  0.00  0.00    +0.000 S 
ATOM      2  N   UNL     1       8.959   7.575  -1.471  0.00  0.00    +0.000 NA
ATOM      3  C   UNL     1      11.197   7.664  -0.796  0.00  0.00    +0.000 A 
ATOM      4  C   UNL     1       9.870   7.568  -0.433  0.00  0.00    +0.000 A 
ATOM      5  C   UNL     1       9.610   7.678  -2.608  0.00  0.00    +0.000 A 
ATOM      6  H   UNL     1      12.071   7.679  -0.161  0.00  0.00    +0.000 HD
ATOM      7  H   UNL     1       9.511   7.487   0.584  0.00  0.00    +0.000 HD
ATOM      8  H   UNL     1       9.100   7.704  -3.562  0.00  0.00    +0.000 HD
ENDROOT
TORSDOF 0
ENDMDL
MODEL 3
REMARK VINA RESULT:    -2.482     12.372     12.891
REMARK INTER + INTRA:          -2.482
REMARK INTER:                  -2.482
REMARK INTRA:                   0.000
REMARK UNBOUND:                 0.000
REMARK  Name = 9256
REMARK  0 active torsions:
REMARK  status: ('A' for Active; 'I' for Inactive)
REMARK                            x       y       z     vdW  Elec       q    Type
REMARK                         _______ _______ _______ _____ _____    ______ ____
ROOT
ATOM      1  S   UNL     1      19.395  15.772 -11.365  0.00  0.00    +0.000 S 
ATOM      2  N   UNL     1      19.183  13.377 -12.316  0.00  0.00    +0.000 NA
ATOM      3  C   UNL     1      18.236  14.725 -10.654  0.00  0.00    +0.000 A 
ATOM      4  C   UNL     1      18.268  13.501 -11.288  0.00  0.00    +0.000 A 
ATOM      5  C   UNL     1      19.832  14.512 -12.445  0.00  0.00    +0.000 A 
ATOM      6  H   UNL     1      17.608  15.045  -9.835  0.00  0.00    +0.000 HD
ATOM      7  H   UNL     1      17.640  12.657 -11.036  0.00  0.00    +0.000 HD
ATOM      8  H   UNL     1      20.603  14.651 -13.192  0.00  0.00    +0.000 HD
ENDROOT
TORSDOF 0
ENDMDL
MODEL 4
REMARK VINA RESULT:    -2.453     11.163     11.490
REMARK INTER + INTRA:          -2.453
REMARK INTER:                  -2.453
REMARK INTRA:                   0.000
REMARK UNBOUND:                 0.000
REMARK  Name = 9256
REMARK  0 active torsions:
REMARK  status: ('A' for Active; 'I' for Inactive)
REMARK                            x       y       z     vdW  Elec       q    Type
REMARK                         _______ _______ _______ _____ _____    ______ ____
ROOT
ATOM      1  S   UNL     1       6.232  -2.352  -2.639  0.00  0.00    +0.000 S 
ATOM      2  N   UNL     1       7.496  -0.736  -1.066  0.00  0.00    +0.000 NA
ATOM      3  C   UNL     1       5.451  -0.892  -2.191  0.00  0.00    +0.000 A 
ATOM      4  C   UNL     1       6.271  -0.165  -1.355  0.00  0.00    +0.000 A 
ATOM      5  C   UNL     1       7.584  -1.890  -1.688  0.00  0.00    +0.000 A 
ATOM      6  H   UNL     1       4.461  -0.645  -2.547  0.00  0.00    +0.000 HD
ATOM      7  H   UNL     1       6.023   0.796  -0.926  0.00  0.00    +0.000 HD
ATOM      8  H   UNL     1       8.460  -2.521  -1.609  0.00  0.00    +0.000 HD
ENDROOT
TORSDOF 0
ENDMDL
MODEL 5
REMARK VINA RESULT:    -2.452     19.696     20.081
REMARK INTER + INTRA:          -2.452
REMARK INTER:                  -2.452
REMARK INTRA:                   0.000
REMARK UNBOUND:                 0.000
REMARK  Name = 9256
REMARK  0 active torsions:
REMARK  status: ('A' for Active; 'I' for Inactive)
REMARK                            x       y       z     vdW  Elec       q    Type
REMARK                         _______ _______ _______ _____ _____    ______ ____
ROOT
ATOM      1  S   UNL     1      -4.552   8.100  -4.871  0.00  0.00    +0.000 S 
ATOM      2  N   UNL     1      -3.165   6.468  -3.424  0.00  0.00    +0.000 NA
ATOM      3  C   UNL     1      -3.617   6.908  -5.676  0.00  0.00    +0.000 A 
ATOM      4  C   UNL     1      -2.951   6.137  -4.748  0.00  0.00    +0.000 A 
ATOM      5  C   UNL     1      -3.991   7.488  -3.369  0.00  0.00    +0.000 A 
ATOM      6  H   UNL     1      -3.600   6.833  -6.754  0.00  0.00    +0.000 HD
ATOM      7  H   UNL     1      -2.293   5.312  -4.986  0.00  0.00    +0.000 HD
ATOM      8  H   UNL     1      -4.306   7.923  -2.429  0.00  0.00    +0.000 HD
ENDROOT
TORSDOF 0
ENDMDL
MODEL 6
REMARK VINA RESULT:    -2.383     11.327     11.695
REMARK INTER + INTRA:          -2.383
REMARK INTER:                  -2.383
REMARK INTRA:                   0.000
REMARK UNBOUND:                 0.000
REMARK  Name = 9256
REMARK  0 active torsions:
REMARK  status: ('A' for Active; 'I' for Inactive)
REMARK                            x       y       z     vdW  Elec       q    Type
REMARK                         _______ _______ _______ _____ _____    ______ ____
ROOT
ATOM      1  S   UNL     1       6.841  -1.242  -4.435  0.00  0.00    +0.000 S 
ATOM      2  N   UNL     1       5.143   0.181  -3.103  0.00  0.00    +0.000 NA
ATOM      3  C   UNL     1       6.285  -1.853  -2.932  0.00  0.00    +0.000 A 
ATOM      4  C   UNL     1       5.392  -0.964  -2.372  0.00  0.00    +0.000 A 
ATOM      5  C   UNL     1       5.851   0.142  -4.209  0.00  0.00    +0.000 A 
ATOM      6  H   UNL     1       6.627  -2.802  -2.542  0.00  0.00    +0.000 HD
ATOM      7  H   UNL     1       4.890  -1.104  -1.424  0.00  0.00    +0.000 HD
ATOM      8  H   UNL     1       5.818   0.937  -4.942  0.00  0.00    +0.000 HD
ENDROOT
TORSDOF 0
ENDMDL
MODEL 7
REMARK VINA RESULT:    -2.376      4.326      4.726
REMARK INTER + INTRA:          -2.376
REMARK INTER:                  -2.376
REMARK INTRA:                   0.000
REMARK UNBOUND:                 0.000
REMARK  Name = 9256
REMARK  0 active torsions:
REMARK  status: ('A' for Active; 'I' for Inactive)
REMARK                            x       y       z     vdW  Elec       q    Type
REMARK                         _______ _______ _______ _____ _____    ______ ____
ROOT
ATOM      1  S   UNL     1      13.065   5.478  -4.043  0.00  0.00    +0.000 S 
ATOM      2  N   UNL     1      13.401   8.036  -4.210  0.00  0.00    +0.000 NA
ATOM      3  C   UNL     1      12.058   6.485  -3.086  0.00  0.00    +0.000 A 
ATOM      4  C   UNL     1      12.381   7.807  -3.306  0.00  0.00    +0.000 A 
ATOM      5  C   UNL     1      13.836   6.881  -4.662  0.00  0.00    +0.000 A 
ATOM      6  H   UNL     1      11.305   6.074  -2.429  0.00  0.00    +0.000 HD
ATOM      7  H   UNL     1      11.899   8.650  -2.830  0.00  0.00    +0.000 HD
ATOM      8  H   UNL     1      14.637   6.812  -5.386  0.00  0.00    +0.000 HD
ENDROOT
TORSDOF 0
ENDMDL
MODEL 8
REMARK VINA RESULT:    -2.371     10.643     11.144
REMARK INTER + INTRA:          -2.371
REMARK INTER:                  -2.371
REMARK INTRA:                   0.000
REMARK UNBOUND:                 0.000
REMARK  Name = 9256
REMARK  0 active torsions:
REMARK  status: ('A' for Active; 'I' for Inactive)
REMARK                            x       y       z     vdW  Elec       q    Type
REMARK                         _______ _______ _______ _____ _____    ______ ____
ROOT
ATOM      1  S   UNL     1       6.869   0.638  -2.503  0.00  0.00    +0.000 S 
ATOM      2  N   UNL     1       5.882  -1.742  -2.706  0.00  0.00    +0.000 NA
ATOM      3  C   UNL     1       7.143  -0.223  -3.961  0.00  0.00    +0.000 A 
ATOM      4  C   UNL     1       6.546  -1.463  -3.885  0.00  0.00    +0.000 A 
ATOM      5  C   UNL     1       5.986  -0.706  -1.904  0.00  0.00    +0.000 A 
ATOM      6  H   UNL     1       7.710   0.204  -4.776  0.00  0.00    +0.000 HD
ATOM      7  H   UNL     1       6.564  -2.208  -4.669  0.00  0.00    +0.000 HD
ATOM      8  H   UNL     1       5.541  -0.695  -0.918  0.00  0.00    +0.000 HD
ENDROOT
TORSDOF 0
ENDMDL
MODEL 9
REMARK VINA RESULT:    -2.324      6.414      6.725
REMARK INTER + INTRA:          -2.324
REMARK INTER:                  -2.324
REMARK INTRA:                   0.000
REMARK UNBOUND:                 0.000
REMARK  Name = 9256
REMARK  0 active torsions:
REMARK  status: ('A' for Active; 'I' for Inactive)
REMARK                            x       y       z     vdW  Elec       q    Type
REMARK                         _______ _______ _______ _____ _____    ______ ____
ROOT
ATOM      1  S   UNL     1      12.278   7.715  -4.050  0.00  0.00    +0.000 S 
ATOM      2  N   UNL     1       9.694   7.750  -4.121  0.00  0.00    +0.000 NA
ATOM      3  C   UNL     1      11.434   7.806  -2.559  0.00  0.00    +0.000 A 
ATOM      4  C   UNL     1      10.076   7.814  -2.795  0.00  0.00    +0.000 A 
ATOM      5  C   UNL     1      10.771   7.694  -4.871  0.00  0.00    +0.000 A 
ATOM      6  H   UNL     1      11.956   7.849  -1.613  0.00  0.00    +0.000 HD
ATOM      7  H   UNL     1       9.315   7.865  -2.028  0.00  0.00    +0.000 HD
ATOM      8  H   UNL     1      10.717   7.638  -5.951  0.00  0.00    +0.000 HD
ENDROOT
TORSDOF 0
ENDMDL
MODEL 10
REMARK VINA RESULT:    -2.190     45.972     46.321
REMARK INTER + INTRA:          -2.190
REMARK INTER:                  -2.190
REMARK INTRA:                   0.000
REMARK UNBOUND:                 0.000
REMARK  Name = 9256
REMARK  0 active torsions:
REMARK  status: ('A' for Active; 'I' for Inactive)
REMARK                            x       y       z     vdW  Elec       q    Type
REMARK                         _______ _______ _______ _____ _____    ______ ____
ROOT
ATOM      1  S   UNL     1     -26.942  -4.187  13.850  0.00  0.00    +0.000 S 
ATOM      2  N   UNL     1     -24.907  -3.186  12.609  0.00  0.00    +0.000 NA
ATOM      3  C   UNL     1     -26.988  -4.145  12.136  0.00  0.00    +0.000 A 
ATOM      4  C   UNL     1     -25.825  -3.581  11.655  0.00  0.00    +0.000 A 
ATOM      5  C   UNL     1     -25.389  -3.457  13.801  0.00  0.00    +0.000 A 
ATOM      6  H   UNL     1     -27.836  -4.520  11.581  0.00  0.00    +0.000 HD
ATOM      7  H   UNL     1     -25.595  -3.436  10.608  0.00  0.00    +0.000 HD
ATOM      8  H   UNL     1     -24.841  -3.233  14.707  0.00  0.00    +0.000 HD
ENDROOT
TORSDOF 0
ENDMDL
