MODEL 1
REMARK VINA RESULT:    -5.471      0.000      0.000
REMARK INTER + INTRA:          -6.605
REMARK INTER:                  -6.438
REMARK INTRA:                  -0.167
REMARK UNBOUND:                -0.174
REMARK  Name = 637563
REMARK  4 active torsions:
REMARK  status: ('A' for Active; 'I' for Inactive)
REMARK    1  A    between atoms: O_1  and  C_5
REMARK    2  A    between atoms: O_1  and  C_11
REMARK    3  A    between atoms: C_2  and  C_8
REMARK    4  A    between atoms: C_9  and  C_10
REMARK                            x       y       z     vdW  Elec       q    Type
REMARK                         _______ _______ _______ _____ _____    ______ ____
ROOT
ATOM      1  C   UNL     1      -0.865 -13.276  -9.814  0.00  0.00    +0.000 A 
ATOM      2  C   UNL     1      -0.372 -12.194  -9.083  0.00  0.00    +0.000 A 
ATOM      3  C   UNL     1      -1.511 -14.324  -9.157  0.00  0.00    +0.000 A 
ATOM      4  C   UNL     1      -1.171 -13.208  -7.041  0.00  0.00    +0.000 A 
ATOM      5  C   UNL     1      -0.525 -12.160  -7.698  0.00  0.00    +0.000 A 
ATOM      6  C   UNL     1      -1.664 -14.289  -7.771  0.00  0.00    +0.000 A 
ATOM      7  H   UNL     1       0.155 -11.367  -9.548  0.00  0.00    +0.000 HD
ATOM      8  H   UNL     1      -1.902 -15.174  -9.710  0.00  0.00    +0.000 HD
ATOM      9  H   UNL     1      -0.136 -11.317  -7.134  0.00  0.00    +0.000 HD
ATOM     10  H   UNL     1      -2.175 -15.136  -7.325  0.00  0.00    +0.000 HD
ENDROOT
BRANCH   1  11
ATOM     11  C   UNL     1      -0.705 -13.312 -11.258  0.00  0.00    +0.000 C 
ATOM     12  C   UNL     1       0.392 -12.919 -11.944  0.00  0.00    +0.000 C 
ATOM     13  H   UNL     1      -1.559 -13.682 -11.821  0.00  0.00    +0.000 HD
ATOM     14  H   UNL     1       1.262 -12.518 -11.432  0.00  0.00    +0.000 HD
BRANCH  12  15
ATOM     15  C   UNL     1       0.510 -12.966 -13.433  0.00  0.00    +0.000 C 
ATOM     16  H   UNL     1      -0.487 -12.987 -13.885  0.00  0.00    +0.000 HD
ATOM     17  H   UNL     1       1.033 -12.074 -13.793  0.00  0.00    +0.000 HD
ATOM     18  H   UNL     1       1.059 -13.847 -13.777  0.00  0.00    +0.000 HD
ENDBRANCH  12  15
ENDBRANCH   1  11
BRANCH   4  19
ATOM     19  O   UNL     1      -1.320 -13.175  -5.689  0.00  0.00    +0.000 OA
BRANCH  19  20
ATOM     20  C   UNL     1      -0.159 -12.877  -4.915  0.00  0.00    +0.000 C 
ATOM     21  H   UNL     1       0.463 -13.766  -4.764  0.00  0.00    +0.000 HD
ATOM     22  H   UNL     1      -0.419 -12.388  -3.971  0.00  0.00    +0.000 HD
ATOM     23  H   UNL     1       0.438 -12.163  -5.491  0.00  0.00    +0.000 HD
ENDBRANCH  19  20
ENDBRANCH   4  19
TORSDOF 4
ENDMDL
MODEL 2
REMARK VINA RESULT:    -5.394     17.097     19.091
REMARK INTER + INTRA:          -6.515
REMARK INTER:                  -6.348
REMARK INTRA:                  -0.167
REMARK UNBOUND:                -0.174
REMARK  Name = 637563
REMARK  4 active torsions:
REMARK  status: ('A' for Active; 'I' for Inactive)
REMARK    1  A    between atoms: O_1  and  C_5
REMARK    2  A    between atoms: O_1  and  C_11
REMARK    3  A    between atoms: C_2  and  C_8
REMARK    4  A    between atoms: C_9  and  C_10
REMARK                            x       y       z     vdW  Elec       q    Type
REMARK                         _______ _______ _______ _____ _____    ______ ____
ROOT
ATOM      1  C   UNL     1       8.029   1.865  -0.769  0.00  0.00    +0.000 A 
ATOM      2  C   UNL     1       9.116   1.105  -1.203  0.00  0.00    +0.000 A 
ATOM      3  C   UNL     1       6.793   1.740  -1.405  0.00  0.00    +0.000 A 
ATOM      4  C   UNL     1       7.732   0.095  -2.906  0.00  0.00    +0.000 A 
ATOM      5  C   UNL     1       8.968   0.220  -2.271  0.00  0.00    +0.000 A 
ATOM      6  C   UNL     1       6.645   0.855  -2.472  0.00  0.00    +0.000 A 
ATOM      7  H   UNL     1      10.101   1.184  -0.752  0.00  0.00    +0.000 HD
ATOM      8  H   UNL     1       5.936   2.323  -1.079  0.00  0.00    +0.000 HD
ATOM      9  H   UNL     1       9.818  -0.365  -2.607  0.00  0.00    +0.000 HD
ATOM     10  H   UNL     1       5.658   0.807  -2.920  0.00  0.00    +0.000 HD
ENDROOT
BRANCH   1  11
ATOM     11  C   UNL     1       8.184   2.788   0.343  0.00  0.00    +0.000 C 
ATOM     12  C   UNL     1       7.839   4.096   0.342  0.00  0.00    +0.000 C 
ATOM     13  H   UNL     1       8.629   2.373   1.245  0.00  0.00    +0.000 HD
ATOM     14  H   UNL     1       7.416   4.565  -0.541  0.00  0.00    +0.000 HD
BRANCH  12  15
ATOM     15  C   UNL     1       8.025   5.011   1.508  0.00  0.00    +0.000 C 
ATOM     16  H   UNL     1       7.116   5.598   1.670  0.00  0.00    +0.000 HD
ATOM     17  H   UNL     1       8.223   4.426   2.412  0.00  0.00    +0.000 HD
ATOM     18  H   UNL     1       8.858   5.705   1.361  0.00  0.00    +0.000 HD
ENDBRANCH  12  15
ENDBRANCH   1  11
BRANCH   4  19
ATOM     19  O   UNL     1       7.587  -0.768  -3.948  0.00  0.00    +0.000 OA
BRANCH  19  20
ATOM     20  C   UNL     1       8.674  -0.864  -4.867  0.00  0.00    +0.000 C 
ATOM     21  H   UNL     1       9.330  -1.708  -4.628  0.00  0.00    +0.000 HD
ATOM     22  H   UNL     1       9.223   0.080  -4.942  0.00  0.00    +0.000 HD
ATOM     23  H   UNL     1       8.245  -1.062  -5.855  0.00  0.00    +0.000 HD
ENDBRANCH  19  20
ENDBRANCH   4  19
TORSDOF 4
ENDMDL
MODEL 3
REMARK VINA RESULT:    -5.161      2.355      5.122
REMARK INTER + INTRA:          -6.240
REMARK INTER:                  -6.063
REMARK INTRA:                  -0.178
REMARK UNBOUND:                -0.174
REMARK  Name = 637563
REMARK  4 active torsions:
REMARK  status: ('A' for Active; 'I' for Inactive)
REMARK    1  A    between atoms: O_1  and  C_5
REMARK    2  A    between atoms: O_1  and  C_11
REMARK    3  A    between atoms: C_2  and  C_8
REMARK    4  A    between atoms: C_9  and  C_10
REMARK                            x       y       z     vdW  Elec       q    Type
REMARK                         _______ _______ _______ _____ _____    ______ ____
ROOT
ATOM      1  C   UNL     1      -1.010 -13.377  -8.884  0.00  0.00    +0.000 A 
ATOM      2  C   UNL     1      -0.221 -12.450  -9.564  0.00  0.00    +0.000 A 
ATOM      3  C   UNL     1      -1.623 -14.418  -9.583  0.00  0.00    +0.000 A 
ATOM      4  C   UNL     1      -0.655 -13.603 -11.642  0.00  0.00    +0.000 A 
ATOM      5  C   UNL     1      -0.043 -12.562 -10.942  0.00  0.00    +0.000 A 
ATOM      6  C   UNL     1      -1.445 -14.530 -10.962  0.00  0.00    +0.000 A 
ATOM      7  H   UNL     1       0.259 -11.613  -9.065  0.00  0.00    +0.000 HD
ATOM      8  H   UNL     1      -2.241 -15.150  -9.070  0.00  0.00    +0.000 HD
ATOM      9  H   UNL     1       0.569 -11.835 -11.467  0.00  0.00    +0.000 HD
ATOM     10  H   UNL     1      -1.949 -15.361 -11.443  0.00  0.00    +0.000 HD
ENDROOT
BRANCH   1  11
ATOM     11  C   UNL     1      -1.197 -13.260  -7.446  0.00  0.00    +0.000 C 
ATOM     12  C   UNL     1      -0.430 -12.530  -6.605  0.00  0.00    +0.000 C 
ATOM     13  H   UNL     1      -2.025 -13.827  -7.028  0.00  0.00    +0.000 HD
ATOM     14  H   UNL     1       0.425 -11.967  -6.968  0.00  0.00    +0.000 HD
BRANCH  12  15
ATOM     15  C   UNL     1      -0.653 -12.446  -5.130  0.00  0.00    +0.000 C 
ATOM     16  H   UNL     1       0.290 -12.607  -4.600  0.00  0.00    +0.000 HD
ATOM     17  H   UNL     1      -1.031 -11.452  -4.867  0.00  0.00    +0.000 HD
ATOM     18  H   UNL     1      -1.375 -13.189  -4.778  0.00  0.00    +0.000 HD
ENDBRANCH  12  15
ENDBRANCH   1  11
BRANCH   4  19
ATOM     19  O   UNL     1      -0.483 -13.712 -12.988  0.00  0.00    +0.000 OA
BRANCH  19  20
ATOM     20  C   UNL     1       0.569 -12.945 -13.572  0.00  0.00    +0.000 C 
ATOM     21  H   UNL     1       0.444 -11.875 -13.375  0.00  0.00    +0.000 HD
ATOM     22  H   UNL     1       0.679 -13.161 -14.639  0.00  0.00    +0.000 HD
ATOM     23  H   UNL     1       1.501 -13.253 -13.086  0.00  0.00    +0.000 HD
ENDBRANCH  19  20
ENDBRANCH   4  19
TORSDOF 4
ENDMDL
MODEL 4
REMARK VINA RESULT:    -4.890      2.364      5.350
REMARK INTER + INTRA:          -5.922
REMARK INTER:                  -5.749
REMARK INTRA:                  -0.172
REMARK UNBOUND:                -0.174
REMARK  Name = 637563
REMARK  4 active torsions:
REMARK  status: ('A' for Active; 'I' for Inactive)
REMARK    1  A    between atoms: O_1  and  C_5
REMARK    2  A    between atoms: O_1  and  C_11
REMARK    3  A    between atoms: C_2  and  C_8
REMARK    4  A    between atoms: C_9  and  C_10
REMARK                            x       y       z     vdW  Elec       q    Type
REMARK                         _______ _______ _______ _____ _____    ______ ____
ROOT
ATOM      1  C   UNL     1      -1.535 -13.713  -7.867  0.00  0.00    +0.000 A 
ATOM      2  C   UNL     1      -1.743 -14.605  -8.919  0.00  0.00    +0.000 A 
ATOM      3  C   UNL     1      -0.822 -12.533  -8.084  0.00  0.00    +0.000 A 
ATOM      4  C   UNL     1      -0.528 -13.138 -10.405  0.00  0.00    +0.000 A 
ATOM      5  C   UNL     1      -1.240 -14.318 -10.188  0.00  0.00    +0.000 A 
ATOM      6  C   UNL     1      -0.319 -12.246  -9.353  0.00  0.00    +0.000 A 
ATOM      7  H   UNL     1      -2.273 -15.544  -8.793  0.00  0.00    +0.000 HD
ATOM      8  H   UNL     1      -0.652 -11.826  -7.277  0.00  0.00    +0.000 HD
ATOM      9  H   UNL     1      -1.401 -15.018 -11.002  0.00  0.00    +0.000 HD
ATOM     10  H   UNL     1       0.225 -11.313  -9.452  0.00  0.00    +0.000 HD
ENDROOT
BRANCH   1  11
ATOM     11  C   UNL     1      -2.059 -14.012  -6.544  0.00  0.00    +0.000 C 
ATOM     12  C   UNL     1      -3.301 -14.470  -6.269  0.00  0.00    +0.000 C 
ATOM     13  H   UNL     1      -1.379 -13.834  -5.714  0.00  0.00    +0.000 HD
ATOM     14  H   UNL     1      -4.026 -14.640  -7.059  0.00  0.00    +0.000 HD
BRANCH  12  15
ATOM     15  C   UNL     1      -3.800 -14.756  -4.890  0.00  0.00    +0.000 C 
ATOM     16  H   UNL     1      -3.214 -14.194  -4.157  0.00  0.00    +0.000 HD
ATOM     17  H   UNL     1      -4.847 -14.449  -4.802  0.00  0.00    +0.000 HD
ATOM     18  H   UNL     1      -3.734 -15.819  -4.638  0.00  0.00    +0.000 HD
ENDBRANCH  12  15
ENDBRANCH   1  11
BRANCH   4  19
ATOM     19  O   UNL     1      -0.036 -12.858 -11.643  0.00  0.00    +0.000 OA
BRANCH  19  20
ATOM     20  C   UNL     1      -0.429 -13.721 -12.708  0.00  0.00    +0.000 C 
ATOM     21  H   UNL     1      -1.510 -13.678 -12.883  0.00  0.00    +0.000 HD
ATOM     22  H   UNL     1      -0.076 -14.745 -12.549  0.00  0.00    +0.000 HD
ATOM     23  H   UNL     1       0.057 -13.354 -13.618  0.00  0.00    +0.000 HD
ENDBRANCH  19  20
ENDBRANCH   4  19
TORSDOF 4
ENDMDL
MODEL 5
REMARK VINA RESULT:    -4.682      2.436      2.939
REMARK INTER + INTRA:          -5.678
REMARK INTER:                  -5.499
REMARK INTRA:                  -0.179
REMARK UNBOUND:                -0.174
REMARK  Name = 637563
REMARK  4 active torsions:
REMARK  status: ('A' for Active; 'I' for Inactive)
REMARK    1  A    between atoms: O_1  and  C_5
REMARK    2  A    between atoms: O_1  and  C_11
REMARK    3  A    between atoms: C_2  and  C_8
REMARK    4  A    between atoms: C_9  and  C_10
REMARK                            x       y       z     vdW  Elec       q    Type
REMARK                         _______ _______ _______ _____ _____    ______ ____
ROOT
ATOM      1  C   UNL     1      -1.184 -15.006 -11.232  0.00  0.00    +0.000 A 
ATOM      2  C   UNL     1      -0.751 -13.682 -11.316  0.00  0.00    +0.000 A 
ATOM      3  C   UNL     1      -1.546 -15.544  -9.996  0.00  0.00    +0.000 A 
ATOM      4  C   UNL     1      -1.041 -13.435  -8.930  0.00  0.00    +0.000 A 
ATOM      5  C   UNL     1      -0.680 -12.897 -10.166  0.00  0.00    +0.000 A 
ATOM      6  C   UNL     1      -1.474 -14.758  -8.846  0.00  0.00    +0.000 A 
ATOM      7  H   UNL     1      -0.441 -13.227 -12.252  0.00  0.00    +0.000 HD
ATOM      8  H   UNL     1      -1.886 -16.573  -9.912  0.00  0.00    +0.000 HD
ATOM      9  H   UNL     1      -0.338 -11.868 -10.236  0.00  0.00    +0.000 HD
ATOM     10  H   UNL     1      -1.769 -15.239  -7.919  0.00  0.00    +0.000 HD
ENDROOT
BRANCH   1  11
ATOM     11  C   UNL     1      -1.258 -15.825 -12.431  0.00  0.00    +0.000 C 
ATOM     12  C   UNL     1      -1.643 -17.120 -12.482  0.00  0.00    +0.000 C 
ATOM     13  H   UNL     1      -0.964 -15.337 -13.357  0.00  0.00    +0.000 HD
ATOM     14  H   UNL     1      -1.922 -17.661 -11.583  0.00  0.00    +0.000 HD
BRANCH  12  15
ATOM     15  C   UNL     1      -1.696 -17.928 -13.738  0.00  0.00    +0.000 C 
ATOM     16  H   UNL     1      -1.964 -17.286 -14.583  0.00  0.00    +0.000 HD
ATOM     17  H   UNL     1      -0.714 -18.368 -13.939  0.00  0.00    +0.000 HD
ATOM     18  H   UNL     1      -2.427 -18.739 -13.679  0.00  0.00    +0.000 HD
ENDBRANCH  12  15
ENDBRANCH   1  11
BRANCH   4  19
ATOM     19  O   UNL     1      -0.970 -12.669  -7.807  0.00  0.00    +0.000 OA
BRANCH  19  20
ATOM     20  C   UNL     1      -1.279 -13.303  -6.568  0.00  0.00    +0.000 C 
ATOM     21  H   UNL     1      -1.026 -12.664  -5.715  0.00  0.00    +0.000 HD
ATOM     22  H   UNL     1      -0.818 -14.294  -6.496  0.00  0.00    +0.000 HD
ATOM     23  H   UNL     1      -2.364 -13.453  -6.544  0.00  0.00    +0.000 HD
ENDBRANCH  19  20
ENDBRANCH   4  19
TORSDOF 4
ENDMDL
MODEL 6
REMARK VINA RESULT:    -4.546      3.726      5.669
REMARK INTER + INTRA:          -5.518
REMARK INTER:                  -5.342
REMARK INTRA:                  -0.176
REMARK UNBOUND:                -0.174
REMARK  Name = 637563
REMARK  4 active torsions:
REMARK  status: ('A' for Active; 'I' for Inactive)
REMARK    1  A    between atoms: O_1  and  C_5
REMARK    2  A    between atoms: O_1  and  C_11
REMARK    3  A    between atoms: C_2  and  C_8
REMARK    4  A    between atoms: C_9  and  C_10
REMARK                            x       y       z     vdW  Elec       q    Type
REMARK                         _______ _______ _______ _____ _____    ______ ____
ROOT
ATOM      1  C   UNL     1      -1.321 -14.677 -10.646  0.00  0.00    +0.000 A 
ATOM      2  C   UNL     1      -1.231 -14.718 -12.037  0.00  0.00    +0.000 A 
ATOM      3  C   UNL     1      -1.526 -15.855  -9.926  0.00  0.00    +0.000 A 
ATOM      4  C   UNL     1      -1.551 -17.112 -11.989  0.00  0.00    +0.000 A 
ATOM      5  C   UNL     1      -1.346 -15.934 -12.709  0.00  0.00    +0.000 A 
ATOM      6  C   UNL     1      -1.641 -17.072 -10.598  0.00  0.00    +0.000 A 
ATOM      7  H   UNL     1      -1.092 -13.825 -12.640  0.00  0.00    +0.000 HD
ATOM      8  H   UNL     1      -1.598 -15.842  -8.841  0.00  0.00    +0.000 HD
ATOM      9  H   UNL     1      -1.280 -15.959 -13.793  0.00  0.00    +0.000 HD
ATOM     10  H   UNL     1      -1.799 -17.947  -9.978  0.00  0.00    +0.000 HD
ENDROOT
BRANCH   1  11
ATOM     11  C   UNL     1      -1.202 -13.409  -9.945  0.00  0.00    +0.000 C 
ATOM     12  C   UNL     1      -0.775 -13.244  -8.673  0.00  0.00    +0.000 C 
ATOM     13  H   UNL     1      -1.499 -12.527 -10.508  0.00  0.00    +0.000 HD
ATOM     14  H   UNL     1      -0.493 -14.094  -8.059  0.00  0.00    +0.000 HD
BRANCH  12  15
ATOM     15  C   UNL     1      -0.678 -11.919  -7.988  0.00  0.00    +0.000 C 
ATOM     16  H   UNL     1      -1.353 -11.893  -7.128  0.00  0.00    +0.000 HD
ATOM     17  H   UNL     1       0.344 -11.760  -7.630  0.00  0.00    +0.000 HD
ATOM     18  H   UNL     1      -0.939 -11.090  -8.653  0.00  0.00    +0.000 HD
ENDBRANCH  12  15
ENDBRANCH   1  11
BRANCH   4  19
ATOM     19  O   UNL     1      -1.664 -18.299 -12.645  0.00  0.00    +0.000 OA
BRANCH  19  20
ATOM     20  C   UNL     1      -1.791 -18.247 -14.065  0.00  0.00    +0.000 C 
ATOM     21  H   UNL     1      -0.917 -17.778 -14.530  0.00  0.00    +0.000 HD
ATOM     22  H   UNL     1      -2.729 -17.771 -14.368  0.00  0.00    +0.000 HD
ATOM     23  H   UNL     1      -1.827 -19.281 -14.424  0.00  0.00    +0.000 HD
ENDBRANCH  19  20
ENDBRANCH   4  19
TORSDOF 4
ENDMDL
MODEL 7
REMARK VINA RESULT:    -4.543     14.733     17.930
REMARK INTER + INTRA:          -5.514
REMARK INTER:                  -5.346
REMARK INTRA:                  -0.167
REMARK UNBOUND:                -0.174
REMARK  Name = 637563
REMARK  4 active torsions:
REMARK  status: ('A' for Active; 'I' for Inactive)
REMARK    1  A    between atoms: O_1  and  C_5
REMARK    2  A    between atoms: O_1  and  C_11
REMARK    3  A    between atoms: C_2  and  C_8
REMARK    4  A    between atoms: C_9  and  C_10
REMARK                            x       y       z     vdW  Elec       q    Type
REMARK                         _______ _______ _______ _____ _____    ______ ____
ROOT
ATOM      1  C   UNL     1       6.800 -11.212 -25.604  0.00  0.00    +0.000 A 
ATOM      2  C   UNL     1       6.548  -9.873 -25.303  0.00  0.00    +0.000 A 
ATOM      3  C   UNL     1       5.846 -12.185 -25.305  0.00  0.00    +0.000 A 
ATOM      4  C   UNL     1       4.389 -10.481 -24.405  0.00  0.00    +0.000 A 
ATOM      5  C   UNL     1       5.343  -9.507 -24.704  0.00  0.00    +0.000 A 
ATOM      6  C   UNL     1       4.641 -11.819 -24.706  0.00  0.00    +0.000 A 
ATOM      7  H   UNL     1       7.268  -9.085 -25.499  0.00  0.00    +0.000 HD
ATOM      8  H   UNL     1       6.025 -13.233 -25.534  0.00  0.00    +0.000 HD
ATOM      9  H   UNL     1       5.154  -8.464 -24.468  0.00  0.00    +0.000 HD
ATOM     10  H   UNL     1       3.944 -12.625 -24.501  0.00  0.00    +0.000 HD
ENDROOT
BRANCH   1  11
ATOM     11  C   UNL     1       8.057 -11.594 -26.228  0.00  0.00    +0.000 C 
ATOM     12  C   UNL     1       8.862 -10.781 -26.949  0.00  0.00    +0.000 C 
ATOM     13  H   UNL     1       8.353 -12.632 -26.101  0.00  0.00    +0.000 HD
ATOM     14  H   UNL     1       8.600  -9.743 -27.128  0.00  0.00    +0.000 HD
BRANCH  12  15
ATOM     15  C   UNL     1      10.143 -11.220 -27.581  0.00  0.00    +0.000 C 
ATOM     16  H   UNL     1      10.308 -12.284 -27.388  0.00  0.00    +0.000 HD
ATOM     17  H   UNL     1      10.094 -11.070 -28.665  0.00  0.00    +0.000 HD
ATOM     18  H   UNL     1      11.004 -10.666 -27.198  0.00  0.00    +0.000 HD
ENDBRANCH  12  15
ENDBRANCH   1  11
BRANCH   4  19
ATOM     19  O   UNL     1       3.213 -10.124 -23.820  0.00  0.00    +0.000 OA
BRANCH  19  20
ATOM     20  C   UNL     1       2.932 -10.679 -22.536  0.00  0.00    +0.000 C 
ATOM     21  H   UNL     1       3.083 -11.764 -22.526  0.00  0.00    +0.000 HD
ATOM     22  H   UNL     1       1.935 -10.396 -22.185  0.00  0.00    +0.000 HD
ATOM     23  H   UNL     1       3.653 -10.249 -21.834  0.00  0.00    +0.000 HD
ENDBRANCH  19  20
ENDBRANCH   4  19
TORSDOF 4
ENDMDL
MODEL 8
REMARK VINA RESULT:    -4.534     15.784     18.010
REMARK INTER + INTRA:          -5.503
REMARK INTER:                  -5.326
REMARK INTRA:                  -0.178
REMARK UNBOUND:                -0.174
REMARK  Name = 637563
REMARK  4 active torsions:
REMARK  status: ('A' for Active; 'I' for Inactive)
REMARK    1  A    between atoms: O_1  and  C_5
REMARK    2  A    between atoms: O_1  and  C_11
REMARK    3  A    between atoms: C_2  and  C_8
REMARK    4  A    between atoms: C_9  and  C_10
REMARK                            x       y       z     vdW  Elec       q    Type
REMARK                         _______ _______ _______ _____ _____    ______ ____
ROOT
ATOM      1  C   UNL     1       8.367  -0.026  -0.414  0.00  0.00    +0.000 A 
ATOM      2  C   UNL     1       7.980  -1.305  -0.814  0.00  0.00    +0.000 A 
ATOM      3  C   UNL     1       7.897   1.092  -1.102  0.00  0.00    +0.000 A 
ATOM      4  C   UNL     1       6.652  -0.347  -2.591  0.00  0.00    +0.000 A 
ATOM      5  C   UNL     1       7.122  -1.466  -1.902  0.00  0.00    +0.000 A 
ATOM      6  C   UNL     1       7.039   0.932  -2.190  0.00  0.00    +0.000 A 
ATOM      7  H   UNL     1       8.336  -2.205  -0.322  0.00  0.00    +0.000 HD
ATOM      8  H   UNL     1       8.187   2.096  -0.803  0.00  0.00    +0.000 HD
ATOM      9  H   UNL     1       6.827  -2.464  -2.213  0.00  0.00    +0.000 HD
ATOM     10  H   UNL     1       6.711   1.842  -2.679  0.00  0.00    +0.000 HD
ENDROOT
BRANCH   1  11
ATOM     11  C   UNL     1       9.262   0.141   0.720  0.00  0.00    +0.000 C 
ATOM     12  C   UNL     1       9.709  -0.846   1.529  0.00  0.00    +0.000 C 
ATOM     13  H   UNL     1       9.580   1.161   0.926  0.00  0.00    +0.000 HD
ATOM     14  H   UNL     1       9.401  -1.877   1.383  0.00  0.00    +0.000 HD
BRANCH  12  15
ATOM     15  C   UNL     1      10.622  -0.625   2.691  0.00  0.00    +0.000 C 
ATOM     16  H   UNL     1      10.660   0.440   2.939  0.00  0.00    +0.000 HD
ATOM     17  H   UNL     1      10.251  -1.170   3.565  0.00  0.00    +0.000 HD
ATOM     18  H   UNL     1      11.642  -0.964   2.486  0.00  0.00    +0.000 HD
ENDBRANCH  12  15
ENDBRANCH   1  11
BRANCH   4  19
ATOM     19  O   UNL     1       5.815  -0.504  -3.653  0.00  0.00    +0.000 OA
BRANCH  19  20
ATOM     20  C   UNL     1       5.121   0.656  -4.109  0.00  0.00    +0.000 C 
ATOM     21  H   UNL     1       4.802   1.288  -3.274  0.00  0.00    +0.000 HD
ATOM     22  H   UNL     1       4.290   0.393  -4.772  0.00  0.00    +0.000 HD
ATOM     23  H   UNL     1       5.830   1.244  -4.702  0.00  0.00    +0.000 HD
ENDBRANCH  19  20
ENDBRANCH   4  19
TORSDOF 4
ENDMDL
MODEL 9
REMARK VINA RESULT:    -4.420     19.361     21.328
REMARK INTER + INTRA:          -5.370
REMARK INTER:                  -5.197
REMARK INTRA:                  -0.173
REMARK UNBOUND:                -0.174
REMARK  Name = 637563
REMARK  4 active torsions:
REMARK  status: ('A' for Active; 'I' for Inactive)
REMARK    1  A    between atoms: O_1  and  C_5
REMARK    2  A    between atoms: O_1  and  C_11
REMARK    3  A    between atoms: C_2  and  C_8
REMARK    4  A    between atoms: C_9  and  C_10
REMARK                            x       y       z     vdW  Elec       q    Type
REMARK                         _______ _______ _______ _____ _____    ______ ____
ROOT
ATOM      1  C   UNL     1     -17.986 -10.452   3.299  0.00  0.00    +0.000 A 
ATOM      2  C   UNL     1     -17.092  -9.391   3.160  0.00  0.00    +0.000 A 
ATOM      3  C   UNL     1     -18.470 -11.109   2.167  0.00  0.00    +0.000 A 
ATOM      4  C   UNL     1     -17.165  -9.642   0.758  0.00  0.00    +0.000 A 
ATOM      5  C   UNL     1     -16.681  -8.985   1.890  0.00  0.00    +0.000 A 
ATOM      6  C   UNL     1     -18.059 -10.704   0.898  0.00  0.00    +0.000 A 
ATOM      7  H   UNL     1     -16.705  -8.837   4.011  0.00  0.00    +0.000 HD
ATOM      8  H   UNL     1     -19.166 -11.939   2.257  0.00  0.00    +0.000 HD
ATOM      9  H   UNL     1     -15.989  -8.155   1.788  0.00  0.00    +0.000 HD
ATOM     10  H   UNL     1     -18.474 -11.257   0.062  0.00  0.00    +0.000 HD
ENDROOT
BRANCH   1  11
ATOM     11  C   UNL     1     -18.414 -10.875   4.623  0.00  0.00    +0.000 C 
ATOM     12  C   UNL     1     -18.773 -12.130   4.977  0.00  0.00    +0.000 C 
ATOM     13  H   UNL     1     -18.453 -10.094   5.380  0.00  0.00    +0.000 HD
ATOM     14  H   UNL     1     -18.777 -12.939   4.253  0.00  0.00    +0.000 HD
BRANCH  12  15
ATOM     15  C   UNL     1     -19.217 -12.517   6.350  0.00  0.00    +0.000 C 
ATOM     16  H   UNL     1     -19.266 -11.631   6.990  0.00  0.00    +0.000 HD
ATOM     17  H   UNL     1     -20.214 -12.966   6.306  0.00  0.00    +0.000 HD
ATOM     18  H   UNL     1     -18.538 -13.237   6.816  0.00  0.00    +0.000 HD
ENDBRANCH  12  15
ENDBRANCH   1  11
BRANCH   4  19
ATOM     19  O   UNL     1     -16.766  -9.246  -0.481  0.00  0.00    +0.000 OA
BRANCH  19  20
ATOM     20  C   UNL     1     -17.685  -9.446  -1.554  0.00  0.00    +0.000 C 
ATOM     21  H   UNL     1     -18.635  -8.933  -1.370  0.00  0.00    +0.000 HD
ATOM     22  H   UNL     1     -17.823 -10.509  -1.773  0.00  0.00    +0.000 HD
ATOM     23  H   UNL     1     -17.243  -8.990  -2.446  0.00  0.00    +0.000 HD
ENDBRANCH  19  20
ENDBRANCH   4  19
TORSDOF 4
ENDMDL
MODEL 10
REMARK VINA RESULT:    -4.400     26.330     27.476
REMARK INTER + INTRA:          -5.346
REMARK INTER:                  -5.172
REMARK INTRA:                  -0.174
REMARK UNBOUND:                -0.174
REMARK  Name = 637563
REMARK  4 active torsions:
REMARK  status: ('A' for Active; 'I' for Inactive)
REMARK    1  A    between atoms: O_1  and  C_5
REMARK    2  A    between atoms: O_1  and  C_11
REMARK    3  A    between atoms: C_2  and  C_8
REMARK    4  A    between atoms: C_9  and  C_10
REMARK                            x       y       z     vdW  Elec       q    Type
REMARK                         _______ _______ _______ _____ _____    ______ ____
ROOT
ATOM      1  C   UNL     1       4.092  13.597 -10.515  0.00  0.00    +0.000 A 
ATOM      2  C   UNL     1       4.802  14.066 -11.619  0.00  0.00    +0.000 A 
ATOM      3  C   UNL     1       3.362  12.411 -10.608  0.00  0.00    +0.000 A 
ATOM      4  C   UNL     1       4.055  12.165 -12.910  0.00  0.00    +0.000 A 
ATOM      5  C   UNL     1       4.785  13.351 -12.817  0.00  0.00    +0.000 A 
ATOM      6  C   UNL     1       3.344  11.695 -11.805  0.00  0.00    +0.000 A 
ATOM      7  H   UNL     1       5.367  14.993 -11.600  0.00  0.00    +0.000 HD
ATOM      8  H   UNL     1       2.803  12.029  -9.757  0.00  0.00    +0.000 HD
ATOM      9  H   UNL     1       5.336  13.724 -13.675  0.00  0.00    +0.000 HD
ATOM     10  H   UNL     1       2.758  10.783 -11.808  0.00  0.00    +0.000 HD
ENDROOT
BRANCH   1  11
ATOM     11  C   UNL     1       4.109  14.342  -9.267  0.00  0.00    +0.000 C 
ATOM     12  C   UNL     1       5.082  15.191  -8.865  0.00  0.00    +0.000 C 
ATOM     13  H   UNL     1       3.260  14.181  -8.606  0.00  0.00    +0.000 HD
ATOM     14  H   UNL     1       5.963  15.367  -9.475  0.00  0.00    +0.000 HD
BRANCH  12  15
ATOM     15  C   UNL     1       5.063  15.931  -7.567  0.00  0.00    +0.000 C 
ATOM     16  H   UNL     1       4.072  16.362  -7.398  0.00  0.00    +0.000 HD
ATOM     17  H   UNL     1       5.285  15.244  -6.744  0.00  0.00    +0.000 HD
ATOM     18  H   UNL     1       5.797  16.742  -7.542  0.00  0.00    +0.000 HD
ENDBRANCH  12  15
ENDBRANCH   1  11
BRANCH   4  19
ATOM     19  O   UNL     1       4.037  11.467 -14.078  0.00  0.00    +0.000 OA
BRANCH  19  20
ATOM     20  C   UNL     1       4.222  12.211 -15.281  0.00  0.00    +0.000 C 
ATOM     21  H   UNL     1       4.611  11.580 -16.088  0.00  0.00    +0.000 HD
ATOM     22  H   UNL     1       4.839  13.100 -15.115  0.00  0.00    +0.000 HD
ATOM     23  H   UNL     1       3.234  12.562 -15.598  0.00  0.00    +0.000 HD
ENDBRANCH  19  20
ENDBRANCH   4  19
TORSDOF 4
ENDMDL
