MODEL 1
REMARK VINA RESULT:    -6.111      0.000      0.000
REMARK INTER + INTRA:          -7.153
REMARK INTER:                  -6.984
REMARK INTRA:                  -0.169
REMARK UNBOUND:                -0.149
REMARK  Name = 444539
REMARK  3 active torsions:
REMARK  status: ('A' for Active; 'I' for Inactive)
REMARK    1  A    between atoms: O_1  and  C_11
REMARK    2  A    between atoms: C_3  and  C_6
REMARK    3  A    between atoms: C_10  and  C_11
REMARK                            x       y       z     vdW  Elec       q    Type
REMARK                         _______ _______ _______ _____ _____    ______ ____
ROOT
ATOM      1  C   UNL     1      -0.488 -12.971 -10.331  0.00  0.00    +0.000 A 
ATOM      2  C   UNL     1       0.471 -12.598 -11.274  0.00  0.00    +0.000 A 
ATOM      3  C   UNL     1      -1.554 -13.788 -10.705  0.00  0.00    +0.000 A 
ATOM      4  C   UNL     1       0.361 -13.043 -12.591  0.00  0.00    +0.000 A 
ATOM      5  C   UNL     1      -1.663 -14.232 -12.023  0.00  0.00    +0.000 A 
ATOM      6  C   UNL     1      -0.705 -13.860 -12.966  0.00  0.00    +0.000 A 
ATOM      7  H   UNL     1       1.305 -11.944 -11.041  0.00  0.00    +0.000 HD
ATOM      8  H   UNL     1      -2.310 -14.089  -9.983  0.00  0.00    +0.000 HD
ATOM      9  H   UNL     1       1.103 -12.749 -13.328  0.00  0.00    +0.000 HD
ATOM     10  H   UNL     1      -2.494 -14.869 -12.314  0.00  0.00    +0.000 HD
ATOM     11  H   UNL     1      -0.791 -14.205 -13.993  0.00  0.00    +0.000 HD
ENDROOT
BRANCH   1  12
ATOM     12  C   UNL     1      -0.374 -12.510  -8.956  0.00  0.00    +0.000 C 
ATOM     13  C   UNL     1      -0.893 -13.172  -7.927  0.00  0.00    +0.000 C 
ATOM     14  H   UNL     1       0.157 -11.572  -8.807  0.00  0.00    +0.000 HD
ATOM     15  H   UNL     1      -1.457 -14.093  -8.010  0.00  0.00    +0.000 HD
BRANCH  13  17
ATOM     16  O   UNL     1      -1.245 -13.027  -5.546  0.00  0.00    +0.000 OA
ATOM     17  C   UNL     1      -0.734 -12.607  -6.570  0.00  0.00    +0.000 C 
BRANCH  17  18
ATOM     18  O   UNL     1       0.085 -11.532  -6.642  0.00  0.00    +0.000 OA
ATOM     19  H   UNL     1       0.378 -11.354  -7.562  0.00  0.00    +0.000 HD
ENDBRANCH  17  18
ENDBRANCH  13  17
ENDBRANCH   1  12
TORSDOF 3
ENDMDL
MODEL 2
REMARK VINA RESULT:    -5.687      3.111      5.348
REMARK INTER + INTRA:          -6.667
REMARK INTER:                  -6.510
REMARK INTRA:                  -0.157
REMARK UNBOUND:                -0.149
REMARK  Name = 444539
REMARK  3 active torsions:
REMARK  status: ('A' for Active; 'I' for Inactive)
REMARK    1  A    between atoms: O_1  and  C_11
REMARK    2  A    between atoms: C_3  and  C_6
REMARK    3  A    between atoms: C_10  and  C_11
REMARK                            x       y       z     vdW  Elec       q    Type
REMARK                         _______ _______ _______ _____ _____    ______ ____
ROOT
ATOM      1  C   UNL     1      -0.853 -13.136  -8.690  0.00  0.00    +0.000 A 
ATOM      2  C   UNL     1      -1.540 -14.226  -8.155  0.00  0.00    +0.000 A 
ATOM      3  C   UNL     1      -0.337 -12.154  -7.845  0.00  0.00    +0.000 A 
ATOM      4  C   UNL     1      -1.710 -14.333  -6.775  0.00  0.00    +0.000 A 
ATOM      5  C   UNL     1      -0.508 -12.262  -6.465  0.00  0.00    +0.000 A 
ATOM      6  C   UNL     1      -1.194 -13.351  -5.930  0.00  0.00    +0.000 A 
ATOM      7  H   UNL     1      -1.984 -15.004  -8.769  0.00  0.00    +0.000 HD
ATOM      8  H   UNL     1       0.202 -11.298  -8.244  0.00  0.00    +0.000 HD
ATOM      9  H   UNL     1      -2.250 -15.178  -6.357  0.00  0.00    +0.000 HD
ATOM     10  H   UNL     1      -0.106 -11.497  -5.807  0.00  0.00    +0.000 HD
ATOM     11  H   UNL     1      -1.328 -13.434  -4.855  0.00  0.00    +0.000 HD
ENDROOT
BRANCH   1  12
ATOM     12  C   UNL     1      -0.673 -13.024 -10.129  0.00  0.00    +0.000 C 
ATOM     13  C   UNL     1      -1.088 -13.955 -10.983  0.00  0.00    +0.000 C 
ATOM     14  H   UNL     1      -0.161 -12.131 -10.480  0.00  0.00    +0.000 HD
ATOM     15  H   UNL     1      -1.576 -14.878 -10.697  0.00  0.00    +0.000 HD
BRANCH  13  17
ATOM     16  O   UNL     1       0.113 -13.176 -12.923  0.00  0.00    +0.000 OA
ATOM     17  C   UNL     1      -0.840 -13.751 -12.426  0.00  0.00    +0.000 C 
BRANCH  17  18
ATOM     18  O   UNL     1      -1.854 -14.315 -13.123  0.00  0.00    +0.000 OA
ATOM     19  H   UNL     1      -2.731 -14.074 -12.754  0.00  0.00    +0.000 HD
ENDBRANCH  17  18
ENDBRANCH  13  17
ENDBRANCH   1  12
TORSDOF 3
ENDMDL
MODEL 3
REMARK VINA RESULT:    -5.145     26.545     27.293
REMARK INTER + INTRA:          -6.046
REMARK INTER:                  -5.889
REMARK INTRA:                  -0.157
REMARK UNBOUND:                -0.149
REMARK  Name = 444539
REMARK  3 active torsions:
REMARK  status: ('A' for Active; 'I' for Inactive)
REMARK    1  A    between atoms: O_1  and  C_11
REMARK    2  A    between atoms: C_3  and  C_6
REMARK    3  A    between atoms: C_10  and  C_11
REMARK                            x       y       z     vdW  Elec       q    Type
REMARK                         _______ _______ _______ _____ _____    ______ ____
ROOT
ATOM      1  C   UNL     1       2.899  13.485  -9.744  0.00  0.00    +0.000 A 
ATOM      2  C   UNL     1       3.655  12.638 -10.555  0.00  0.00    +0.000 A 
ATOM      3  C   UNL     1       1.506  13.423  -9.778  0.00  0.00    +0.000 A 
ATOM      4  C   UNL     1       3.017  11.731 -11.401  0.00  0.00    +0.000 A 
ATOM      5  C   UNL     1       0.869  12.515 -10.624  0.00  0.00    +0.000 A 
ATOM      6  C   UNL     1       1.625  11.668 -11.435  0.00  0.00    +0.000 A 
ATOM      7  H   UNL     1       4.740  12.663 -10.586  0.00  0.00    +0.000 HD
ATOM      8  H   UNL     1       0.901  14.074  -9.153  0.00  0.00    +0.000 HD
ATOM      9  H   UNL     1       3.605  11.075 -12.037  0.00  0.00    +0.000 HD
ATOM     10  H   UNL     1      -0.216  12.467 -10.651  0.00  0.00    +0.000 HD
ATOM     11  H   UNL     1       1.128  10.962 -12.095  0.00  0.00    +0.000 HD
ENDROOT
BRANCH   1  12
ATOM     12  C   UNL     1       3.563  14.430  -8.860  0.00  0.00    +0.000 C 
ATOM     13  C   UNL     1       4.862  14.702  -8.939  0.00  0.00    +0.000 C 
ATOM     14  H   UNL     1       2.936  14.905  -8.109  0.00  0.00    +0.000 HD
ATOM     15  H   UNL     1       5.544  14.243  -9.643  0.00  0.00    +0.000 HD
BRANCH  13  17
ATOM     16  O   UNL     1       4.862  16.602  -7.454  0.00  0.00    +0.000 OA
ATOM     17  C   UNL     1       5.441  15.667  -7.981  0.00  0.00    +0.000 C 
BRANCH  17  18
ATOM     18  O   UNL     1       6.739  15.345  -7.774  0.00  0.00    +0.000 OA
ATOM     19  H   UNL     1       7.104  14.803  -8.505  0.00  0.00    +0.000 HD
ENDBRANCH  17  18
ENDBRANCH  13  17
ENDBRANCH   1  12
TORSDOF 3
ENDMDL
MODEL 4
REMARK VINA RESULT:    -5.119     34.253     37.296
REMARK INTER + INTRA:          -6.017
REMARK INTER:                  -5.865
REMARK INTRA:                  -0.152
REMARK UNBOUND:                -0.149
REMARK  Name = 444539
REMARK  3 active torsions:
REMARK  status: ('A' for Active; 'I' for Inactive)
REMARK    1  A    between atoms: O_1  and  C_11
REMARK    2  A    between atoms: C_3  and  C_6
REMARK    3  A    between atoms: C_10  and  C_11
REMARK                            x       y       z     vdW  Elec       q    Type
REMARK                         _______ _______ _______ _____ _____    ______ ____
ROOT
ATOM      1  C   UNL     1     -16.262   2.204  21.101  0.00  0.00    +0.000 A 
ATOM      2  C   UNL     1     -17.467   2.798  21.476  0.00  0.00    +0.000 A 
ATOM      3  C   UNL     1     -15.210   2.123  22.012  0.00  0.00    +0.000 A 
ATOM      4  C   UNL     1     -17.618   3.313  22.763  0.00  0.00    +0.000 A 
ATOM      5  C   UNL     1     -15.362   2.638  23.300  0.00  0.00    +0.000 A 
ATOM      6  C   UNL     1     -16.566   3.233  23.676  0.00  0.00    +0.000 A 
ATOM      7  H   UNL     1     -18.308   2.910  20.798  0.00  0.00    +0.000 HD
ATOM      8  H   UNL     1     -14.264   1.662  21.738  0.00  0.00    +0.000 HD
ATOM      9  H   UNL     1     -18.554   3.782  23.055  0.00  0.00    +0.000 HD
ATOM     10  H   UNL     1     -14.543   2.575  24.010  0.00  0.00    +0.000 HD
ATOM     11  H   UNL     1     -16.684   3.635  24.678  0.00  0.00    +0.000 HD
ENDROOT
BRANCH   1  12
ATOM     12  C   UNL     1     -16.104   1.664  19.759  0.00  0.00    +0.000 C 
ATOM     13  C   UNL     1     -14.961   1.731  19.084  0.00  0.00    +0.000 C 
ATOM     14  H   UNL     1     -16.987   1.203  19.321  0.00  0.00    +0.000 HD
ATOM     15  H   UNL     1     -14.057   2.202  19.451  0.00  0.00    +0.000 HD
BRANCH  13  17
ATOM     16  O   UNL     1     -15.304   0.064  17.377  0.00  0.00    +0.000 OA
ATOM     17  C   UNL     1     -14.912   1.166  17.719  0.00  0.00    +0.000 C 
BRANCH  17  18
ATOM     18  O   UNL     1     -14.353   2.080  16.892  0.00  0.00    +0.000 OA
ATOM     19  H   UNL     1     -13.451   1.817  16.610  0.00  0.00    +0.000 HD
ENDBRANCH  17  18
ENDBRANCH  13  17
ENDBRANCH   1  12
TORSDOF 3
ENDMDL
MODEL 5
REMARK VINA RESULT:    -4.999     30.900     31.252
REMARK INTER + INTRA:          -5.879
REMARK INTER:                  -5.723
REMARK INTRA:                  -0.155
REMARK UNBOUND:                -0.149
REMARK  Name = 444539
REMARK  3 active torsions:
REMARK  status: ('A' for Active; 'I' for Inactive)
REMARK    1  A    between atoms: O_1  and  C_11
REMARK    2  A    between atoms: C_3  and  C_6
REMARK    3  A    between atoms: C_10  and  C_11
REMARK                            x       y       z     vdW  Elec       q    Type
REMARK                         _______ _______ _______ _____ _____    ______ ____
ROOT
ATOM      1  C   UNL     1       0.352  -7.054  20.509  0.00  0.00    +0.000 A 
ATOM      2  C   UNL     1      -0.955  -6.568  20.461  0.00  0.00    +0.000 A 
ATOM      3  C   UNL     1       0.585  -8.410  20.733  0.00  0.00    +0.000 A 
ATOM      4  C   UNL     1      -2.028  -7.440  20.638  0.00  0.00    +0.000 A 
ATOM      5  C   UNL     1      -0.490  -9.282  20.909  0.00  0.00    +0.000 A 
ATOM      6  C   UNL     1      -1.796  -8.798  20.861  0.00  0.00    +0.000 A 
ATOM      7  H   UNL     1      -1.190  -5.518  20.316  0.00  0.00    +0.000 HD
ATOM      8  H   UNL     1       1.597  -8.806  20.772  0.00  0.00    +0.000 HD
ATOM      9  H   UNL     1      -3.047  -7.063  20.607  0.00  0.00    +0.000 HD
ATOM     10  H   UNL     1      -0.308 -10.339  21.083  0.00  0.00    +0.000 HD
ATOM     11  H   UNL     1      -2.633  -9.476  21.000  0.00  0.00    +0.000 HD
ENDROOT
BRANCH   1  12
ATOM     12  C   UNL     1       1.473  -6.145  20.323  0.00  0.00    +0.000 C 
ATOM     13  C   UNL     1       2.328  -5.845  21.295  0.00  0.00    +0.000 C 
ATOM     14  H   UNL     1       1.574  -5.705  19.333  0.00  0.00    +0.000 HD
ATOM     15  H   UNL     1       2.266  -6.224  22.308  0.00  0.00    +0.000 HD
BRANCH  13  17
ATOM     16  O   UNL     1       4.539  -4.904  21.497  0.00  0.00    +0.000 OA
ATOM     17  C   UNL     1       3.424  -4.897  21.005  0.00  0.00    +0.000 C 
BRANCH  17  18
ATOM     18  O   UNL     1       2.990  -4.001  20.087  0.00  0.00    +0.000 OA
ATOM     19  H   UNL     1       2.266  -4.365  19.533  0.00  0.00    +0.000 HD
ENDBRANCH  17  18
ENDBRANCH  13  17
ENDBRANCH   1  12
TORSDOF 3
ENDMDL
MODEL 6
REMARK VINA RESULT:    -4.764     31.119     31.756
REMARK INTER + INTRA:          -5.609
REMARK INTER:                  -5.452
REMARK INTRA:                  -0.157
REMARK UNBOUND:                -0.149
REMARK  Name = 444539
REMARK  3 active torsions:
REMARK  status: ('A' for Active; 'I' for Inactive)
REMARK    1  A    between atoms: O_1  and  C_11
REMARK    2  A    between atoms: C_3  and  C_6
REMARK    3  A    between atoms: C_10  and  C_11
REMARK                            x       y       z     vdW  Elec       q    Type
REMARK                         _______ _______ _______ _____ _____    ______ ____
ROOT
ATOM      1  C   UNL     1     -14.741 -12.137  18.795  0.00  0.00    +0.000 A 
ATOM      2  C   UNL     1     -13.892 -12.565  19.816  0.00  0.00    +0.000 A 
ATOM      3  C   UNL     1     -15.230 -13.053  17.865  0.00  0.00    +0.000 A 
ATOM      4  C   UNL     1     -13.532 -13.910  19.905  0.00  0.00    +0.000 A 
ATOM      5  C   UNL     1     -14.870 -14.398  17.955  0.00  0.00    +0.000 A 
ATOM      6  C   UNL     1     -14.021 -14.827  18.975  0.00  0.00    +0.000 A 
ATOM      7  H   UNL     1     -13.463 -11.890  20.550  0.00  0.00    +0.000 HD
ATOM      8  H   UNL     1     -15.894 -12.738  17.063  0.00  0.00    +0.000 HD
ATOM      9  H   UNL     1     -12.866 -14.243  20.696  0.00  0.00    +0.000 HD
ATOM     10  H   UNL     1     -15.251 -15.112  17.230  0.00  0.00    +0.000 HD
ATOM     11  H   UNL     1     -13.739 -15.873  19.044  0.00  0.00    +0.000 HD
ENDROOT
BRANCH   1  12
ATOM     12  C   UNL     1     -15.120 -10.736  18.703  0.00  0.00    +0.000 C 
ATOM     13  C   UNL     1     -15.730 -10.221  17.640  0.00  0.00    +0.000 C 
ATOM     14  H   UNL     1     -14.864 -10.113  19.558  0.00  0.00    +0.000 HD
ATOM     15  H   UNL     1     -15.983 -10.779  16.747  0.00  0.00    +0.000 HD
BRANCH  13  17
ATOM     16  O   UNL     1     -16.007  -8.027  18.598  0.00  0.00    +0.000 OA
ATOM     17  C   UNL     1     -16.056  -8.779  17.641  0.00  0.00    +0.000 C 
BRANCH  17  18
ATOM     18  O   UNL     1     -16.423  -8.418  16.390  0.00  0.00    +0.000 OA
ATOM     19  H   UNL     1     -16.563  -7.449  16.314  0.00  0.00    +0.000 HD
ENDBRANCH  17  18
ENDBRANCH  13  17
ENDBRANCH   1  12
TORSDOF 3
ENDMDL
MODEL 7
REMARK VINA RESULT:    -4.734     31.186     32.923
REMARK INTER + INTRA:          -5.576
REMARK INTER:                  -5.426
REMARK INTRA:                  -0.150
REMARK UNBOUND:                -0.149
REMARK  Name = 444539
REMARK  3 active torsions:
REMARK  status: ('A' for Active; 'I' for Inactive)
REMARK    1  A    between atoms: O_1  and  C_11
REMARK    2  A    between atoms: C_3  and  C_6
REMARK    3  A    between atoms: C_10  and  C_11
REMARK                            x       y       z     vdW  Elec       q    Type
REMARK                         _______ _______ _______ _____ _____    ______ ____
ROOT
ATOM      1  C   UNL     1     -14.716 -13.178  20.266  0.00  0.00    +0.000 A 
ATOM      2  C   UNL     1     -13.410 -13.644  20.109  0.00  0.00    +0.000 A 
ATOM      3  C   UNL     1     -15.439 -13.503  21.412  0.00  0.00    +0.000 A 
ATOM      4  C   UNL     1     -12.830 -14.436  21.099  0.00  0.00    +0.000 A 
ATOM      5  C   UNL     1     -14.858 -14.294  22.403  0.00  0.00    +0.000 A 
ATOM      6  C   UNL     1     -13.553 -14.761  22.247  0.00  0.00    +0.000 A 
ATOM      7  H   UNL     1     -12.813 -13.443  19.225  0.00  0.00    +0.000 HD
ATOM      8  H   UNL     1     -16.457 -13.147  21.552  0.00  0.00    +0.000 HD
ATOM      9  H   UNL     1     -11.815 -14.805  20.976  0.00  0.00    +0.000 HD
ATOM     10  H   UNL     1     -15.422 -14.548  23.296  0.00  0.00    +0.000 HD
ATOM     11  H   UNL     1     -13.101 -15.379  23.017  0.00  0.00    +0.000 HD
ENDROOT
BRANCH   1  12
ATOM     12  C   UNL     1     -15.321 -12.350  19.234  0.00  0.00    +0.000 C 
ATOM     13  C   UNL     1     -14.771 -11.221  18.800  0.00  0.00    +0.000 C 
ATOM     14  H   UNL     1     -16.271 -12.700  18.835  0.00  0.00    +0.000 HD
ATOM     15  H   UNL     1     -13.846 -10.803  19.176  0.00  0.00    +0.000 HD
BRANCH  13  17
ATOM     16  O   UNL     1     -16.016  -9.361  17.903  0.00  0.00    +0.000 OA
ATOM     17  C   UNL     1     -15.478 -10.445  17.759  0.00  0.00    +0.000 C 
BRANCH  17  18
ATOM     18  O   UNL     1     -15.434 -11.138  16.597  0.00  0.00    +0.000 OA
ATOM     19  H   UNL     1     -15.205 -12.081  16.742  0.00  0.00    +0.000 HD
ENDBRANCH  17  18
ENDBRANCH  13  17
ENDBRANCH   1  12
TORSDOF 3
ENDMDL
MODEL 8
REMARK VINA RESULT:    -4.695     34.783     35.834
REMARK INTER + INTRA:          -5.530
REMARK INTER:                  -5.376
REMARK INTRA:                  -0.154
REMARK UNBOUND:                -0.149
REMARK  Name = 444539
REMARK  3 active torsions:
REMARK  status: ('A' for Active; 'I' for Inactive)
REMARK    1  A    between atoms: O_1  and  C_11
REMARK    2  A    between atoms: C_3  and  C_6
REMARK    3  A    between atoms: C_10  and  C_11
REMARK                            x       y       z     vdW  Elec       q    Type
REMARK                         _______ _______ _______ _____ _____    ______ ____
ROOT
ATOM      1  C   UNL     1       2.394   7.232  19.458  0.00  0.00    +0.000 A 
ATOM      2  C   UNL     1       1.211   6.899  18.797  0.00  0.00    +0.000 A 
ATOM      3  C   UNL     1       2.355   8.045  20.590  0.00  0.00    +0.000 A 
ATOM      4  C   UNL     1      -0.010   7.382  19.268  0.00  0.00    +0.000 A 
ATOM      5  C   UNL     1       1.133   8.527  21.061  0.00  0.00    +0.000 A 
ATOM      6  C   UNL     1      -0.049   8.195  20.400  0.00  0.00    +0.000 A 
ATOM      7  H   UNL     1       1.188   6.292  17.897  0.00  0.00    +0.000 HD
ATOM      8  H   UNL     1       3.266   8.314  21.119  0.00  0.00    +0.000 HD
ATOM      9  H   UNL     1      -0.931   7.128  18.751  0.00  0.00    +0.000 HD
ATOM     10  H   UNL     1       1.103   9.161  21.943  0.00  0.00    +0.000 HD
ATOM     11  H   UNL     1      -1.000   8.572  20.766  0.00  0.00    +0.000 HD
ENDROOT
BRANCH   1  12
ATOM     12  C   UNL     1       3.668   6.728  18.969  0.00  0.00    +0.000 C 
ATOM     13  C   UNL     1       4.710   6.508  19.764  0.00  0.00    +0.000 C 
ATOM     14  H   UNL     1       3.732   6.546  17.899  0.00  0.00    +0.000 HD
ATOM     15  H   UNL     1       4.720   6.696  20.831  0.00  0.00    +0.000 HD
BRANCH  13  17
ATOM     16  O   UNL     1       6.868   6.687  18.706  0.00  0.00    +0.000 OA
ATOM     17  C   UNL     1       5.965   6.009  19.163  0.00  0.00    +0.000 C 
BRANCH  17  18
ATOM     18  O   UNL     1       5.955   4.656  19.200  0.00  0.00    +0.000 OA
ATOM     19  H   UNL     1       6.703   4.270  18.697  0.00  0.00    +0.000 HD
ENDBRANCH  17  18
ENDBRANCH  13  17
ENDBRANCH   1  12
TORSDOF 3
ENDMDL
MODEL 9
REMARK VINA RESULT:    -4.679     26.933     27.692
REMARK INTER + INTRA:          -5.512
REMARK INTER:                  -5.356
REMARK INTRA:                  -0.156
REMARK UNBOUND:                -0.149
REMARK  Name = 444539
REMARK  3 active torsions:
REMARK  status: ('A' for Active; 'I' for Inactive)
REMARK    1  A    between atoms: O_1  and  C_11
REMARK    2  A    between atoms: C_3  and  C_6
REMARK    3  A    between atoms: C_10  and  C_11
REMARK                            x       y       z     vdW  Elec       q    Type
REMARK                         _______ _______ _______ _____ _____    ______ ____
ROOT
ATOM      1  C   UNL     1       4.462  13.852 -10.889  0.00  0.00    +0.000 A 
ATOM      2  C   UNL     1       4.905  13.831 -12.212  0.00  0.00    +0.000 A 
ATOM      3  C   UNL     1       3.583  12.872 -10.432  0.00  0.00    +0.000 A 
ATOM      4  C   UNL     1       4.465  12.829 -13.077  0.00  0.00    +0.000 A 
ATOM      5  C   UNL     1       3.144  11.870 -11.298  0.00  0.00    +0.000 A 
ATOM      6  C   UNL     1       3.586  11.848 -12.621  0.00  0.00    +0.000 A 
ATOM      7  H   UNL     1       5.568  14.584 -12.626  0.00  0.00    +0.000 HD
ATOM      8  H   UNL     1       3.228  12.872  -9.404  0.00  0.00    +0.000 HD
ATOM      9  H   UNL     1       4.804  12.815 -14.110  0.00  0.00    +0.000 HD
ATOM     10  H   UNL     1       2.459  11.106 -10.942  0.00  0.00    +0.000 HD
ATOM     11  H   UNL     1       3.243  11.069 -13.295  0.00  0.00    +0.000 HD
ENDROOT
BRANCH   1  12
ATOM     12  C   UNL     1       4.921  14.895  -9.985  0.00  0.00    +0.000 C 
ATOM     13  C   UNL     1       4.900  14.764  -8.662  0.00  0.00    +0.000 C 
ATOM     14  H   UNL     1       5.279  15.810 -10.452  0.00  0.00    +0.000 HD
ATOM     15  H   UNL     1       4.530  13.894  -8.136  0.00  0.00    +0.000 HD
BRANCH  13  17
ATOM     16  O   UNL     1       4.690  16.783  -7.361  0.00  0.00    +0.000 OA
ATOM     17  C   UNL     1       5.375  15.892  -7.833  0.00  0.00    +0.000 C 
BRANCH  17  18
ATOM     18  O   UNL     1       6.715  15.780  -7.676  0.00  0.00    +0.000 OA
ATOM     19  H   UNL     1       7.075  16.479  -7.089  0.00  0.00    +0.000 HD
ENDBRANCH  17  18
ENDBRANCH  13  17
ENDBRANCH   1  12
TORSDOF 3
ENDMDL
MODEL 10
REMARK VINA RESULT:    -4.475     26.971     28.903
REMARK INTER + INTRA:          -5.278
REMARK INTER:                  -5.129
REMARK INTRA:                  -0.149
REMARK UNBOUND:                -0.149
REMARK  Name = 444539
REMARK  3 active torsions:
REMARK  status: ('A' for Active; 'I' for Inactive)
REMARK    1  A    between atoms: O_1  and  C_11
REMARK    2  A    between atoms: C_3  and  C_6
REMARK    3  A    between atoms: C_10  and  C_11
REMARK                            x       y       z     vdW  Elec       q    Type
REMARK                         _______ _______ _______ _____ _____    ______ ____
ROOT
ATOM      1  C   UNL     1       3.158  -5.049  17.386  0.00  0.00    +0.000 A 
ATOM      2  C   UNL     1       2.909  -3.902  16.630  0.00  0.00    +0.000 A 
ATOM      3  C   UNL     1       3.651  -6.197  16.769  0.00  0.00    +0.000 A 
ATOM      4  C   UNL     1       3.154  -3.907  15.258  0.00  0.00    +0.000 A 
ATOM      5  C   UNL     1       3.896  -6.201  15.396  0.00  0.00    +0.000 A 
ATOM      6  C   UNL     1       3.648  -5.055  14.640  0.00  0.00    +0.000 A 
ATOM      7  H   UNL     1       2.501  -2.991  17.056  0.00  0.00    +0.000 HD
ATOM      8  H   UNL     1       3.851  -7.100  17.342  0.00  0.00    +0.000 HD
ATOM      9  H   UNL     1       2.956  -3.017  14.667  0.00  0.00    +0.000 HD
ATOM     10  H   UNL     1       4.281  -7.096  14.915  0.00  0.00    +0.000 HD
ATOM     11  H   UNL     1       3.838  -5.059  13.570  0.00  0.00    +0.000 HD
ENDROOT
BRANCH   1  12
ATOM     12  C   UNL     1       2.905  -5.045  18.819  0.00  0.00    +0.000 C 
ATOM     13  C   UNL     1       2.256  -6.025  19.440  0.00  0.00    +0.000 C 
ATOM     14  H   UNL     1       3.269  -4.179  19.367  0.00  0.00    +0.000 HD
ATOM     15  H   UNL     1       1.843  -6.897  18.949  0.00  0.00    +0.000 HD
BRANCH  13  17
ATOM     16  O   UNL     1       2.869  -5.605  21.733  0.00  0.00    +0.000 OA
ATOM     17  C   UNL     1       2.038  -5.914  20.897  0.00  0.00    +0.000 C 
BRANCH  17  18
ATOM     18  O   UNL     1       0.745  -6.216  21.166  0.00  0.00    +0.000 OA
ATOM     19  H   UNL     1       0.643  -6.645  22.042  0.00  0.00    +0.000 HD
ENDBRANCH  17  18
ENDBRANCH  13  17
ENDBRANCH   1  12
TORSDOF 3
ENDMDL
