MODEL 1
REMARK VINA RESULT:    -4.681      0.000      0.000
REMARK INTER + INTRA:          -7.945
REMARK INTER:                  -7.204
REMARK INTRA:                  -0.741
REMARK UNBOUND:                -0.664
REMARK  Name = 8186
REMARK  10 active torsions:
REMARK  status: ('A' for Active; 'I' for Inactive)
REMARK    1  A    between atoms: C_2  and  C_3
REMARK    2  A    between atoms: C_2  and  C_4
REMARK    3  A    between atoms: C_3  and  C_5
REMARK    4  A    between atoms: C_4  and  C_6
REMARK    5  A    between atoms: C_5  and  C_7
REMARK    6  A    between atoms: C_6  and  C_8
REMARK    7  A    between atoms: C_7  and  C_9
REMARK    8  A    between atoms: C_8  and  C_10
REMARK    9  A    between atoms: C_9  and  C_11
REMARK   10  A    between atoms: C_10  and  C_12
REMARK                            x       y       z     vdW  Elec       q    Type
REMARK                         _______ _______ _______ _____ _____    ______ ____
ROOT
ATOM      1  C   UNL     1      13.671   7.023  -5.173  0.00  0.00    +0.000 C 
ATOM      2  H   UNL     1      14.133   7.592  -5.988  0.00  0.00    +0.000 HD
ATOM      3  H   UNL     1      12.853   6.441  -5.617  0.00  0.00    +0.000 HD
ENDROOT
BRANCH   1   4
ATOM      4  C   UNL     1      13.091   7.995  -4.143  0.00  0.00    +0.000 C 
ATOM      5  H   UNL     1      13.867   8.260  -3.415  0.00  0.00    +0.000 HD
ATOM      6  H   UNL     1      12.805   8.925  -4.652  0.00  0.00    +0.000 HD
BRANCH   4   7
ATOM      7  C   UNL     1      11.874   7.436  -3.399  0.00  0.00    +0.000 C 
ATOM      8  H   UNL     1      12.211   6.678  -2.682  0.00  0.00    +0.000 HD
ATOM      9  H   UNL     1      11.412   8.242  -2.814  0.00  0.00    +0.000 HD
BRANCH   7  10
ATOM     10  C   UNL     1      10.826   6.817  -4.326  0.00  0.00    +0.000 C 
ATOM     11  H   UNL     1      11.318   6.149  -5.044  0.00  0.00    +0.000 HD
ATOM     12  H   UNL     1      10.134   6.204  -3.735  0.00  0.00    +0.000 HD
BRANCH  10  13
ATOM     13  C   UNL     1      10.045   7.895  -5.078  0.00  0.00    +0.000 C 
ATOM     14  H   UNL     1      10.674   8.331  -5.864  0.00  0.00    +0.000 HD
ATOM     15  H   UNL     1       9.775   8.707  -4.392  0.00  0.00    +0.000 HD
BRANCH  13  16
ATOM     16  C   UNL     1       8.779   7.333  -5.705  0.00  0.00    +0.000 C 
ATOM     17  H   UNL     1       8.606   6.302  -5.381  0.00  0.00    +0.000 HD
ATOM     18  H   UNL     1       7.912   7.932  -5.411  0.00  0.00    +0.000 HD
ATOM     19  H   UNL     1       8.846   7.343  -6.798  0.00  0.00    +0.000 HD
ENDBRANCH  13  16
ENDBRANCH  10  13
ENDBRANCH   7  10
ENDBRANCH   4   7
ENDBRANCH   1   4
BRANCH   1  20
ATOM     20  C   UNL     1      14.707   6.061  -4.581  0.00  0.00    +0.000 C 
ATOM     21  H   UNL     1      15.682   6.562  -4.549  0.00  0.00    +0.000 HD
ATOM     22  H   UNL     1      14.432   5.836  -3.543  0.00  0.00    +0.000 HD
BRANCH  20  23
ATOM     23  C   UNL     1      14.836   4.752  -5.364  0.00  0.00    +0.000 C 
ATOM     24  H   UNL     1      15.055   4.973  -6.415  0.00  0.00    +0.000 HD
ATOM     25  H   UNL     1      15.682   4.175  -4.970  0.00  0.00    +0.000 HD
BRANCH  23  26
ATOM     26  C   UNL     1      13.555   3.922  -5.268  0.00  0.00    +0.000 C 
ATOM     27  H   UNL     1      12.700   4.528  -5.593  0.00  0.00    +0.000 HD
ATOM     28  H   UNL     1      13.620   3.071  -5.958  0.00  0.00    +0.000 HD
BRANCH  26  29
ATOM     29  C   UNL     1      13.322   3.424  -3.846  0.00  0.00    +0.000 C 
ATOM     30  H   UNL     1      12.357   2.913  -3.763  0.00  0.00    +0.000 HD
ATOM     31  H   UNL     1      13.340   4.255  -3.134  0.00  0.00    +0.000 HD
BRANCH  29  33
ATOM     32  O   UNL     1      14.426   1.878  -2.367  0.00  0.00    +0.000 OA
ATOM     33  C   UNL     1      14.401   2.452  -3.452  0.00  0.00    +0.000 C 
ATOM     34  H   UNL     1      15.189   2.281  -4.204  0.00  0.00    +0.000 HD
ENDBRANCH  29  33
ENDBRANCH  26  29
ENDBRANCH  23  26
ENDBRANCH  20  23
ENDBRANCH   1  20
TORSDOF 10
ENDMDL
MODEL 2
REMARK VINA RESULT:    -4.626      1.744      2.271
REMARK INTER + INTRA:          -7.859
REMARK INTER:                  -7.416
REMARK INTRA:                  -0.443
REMARK UNBOUND:                -0.664
REMARK  Name = 8186
REMARK  10 active torsions:
REMARK  status: ('A' for Active; 'I' for Inactive)
REMARK    1  A    between atoms: C_2  and  C_3
REMARK    2  A    between atoms: C_2  and  C_4
REMARK    3  A    between atoms: C_3  and  C_5
REMARK    4  A    between atoms: C_4  and  C_6
REMARK    5  A    between atoms: C_5  and  C_7
REMARK    6  A    between atoms: C_6  and  C_8
REMARK    7  A    between atoms: C_7  and  C_9
REMARK    8  A    between atoms: C_8  and  C_10
REMARK    9  A    between atoms: C_9  and  C_11
REMARK   10  A    between atoms: C_10  and  C_12
REMARK                            x       y       z     vdW  Elec       q    Type
REMARK                         _______ _______ _______ _____ _____    ______ ____
ROOT
ATOM      1  C   UNL     1      12.574   6.396  -4.376  0.00  0.00    +0.000 C 
ATOM      2  H   UNL     1      13.236   6.506  -5.244  0.00  0.00    +0.000 HD
ATOM      3  H   UNL     1      11.562   6.234  -4.768  0.00  0.00    +0.000 HD
ENDROOT
BRANCH   1   4
ATOM      4  C   UNL     1      12.594   7.690  -3.560  0.00  0.00    +0.000 C 
ATOM      5  H   UNL     1      13.418   7.652  -2.837  0.00  0.00    +0.000 HD
ATOM      6  H   UNL     1      12.801   8.533  -4.232  0.00  0.00    +0.000 HD
BRANCH   4   7
ATOM      7  C   UNL     1      11.283   7.955  -2.813  0.00  0.00    +0.000 C 
ATOM      8  H   UNL     1      11.360   7.544  -1.799  0.00  0.00    +0.000 HD
ATOM      9  H   UNL     1      11.147   9.040  -2.704  0.00  0.00    +0.000 HD
BRANCH   7  10
ATOM     10  C   UNL     1      10.056   7.357  -3.505  0.00  0.00    +0.000 C 
ATOM     11  H   UNL     1      10.280   6.332  -3.828  0.00  0.00    +0.000 HD
ATOM     12  H   UNL     1       9.228   7.296  -2.789  0.00  0.00    +0.000 HD
BRANCH  10  13
ATOM     13  C   UNL     1       9.636   8.197  -4.711  0.00  0.00    +0.000 C 
ATOM     14  H   UNL     1      10.514   8.688  -5.148  0.00  0.00    +0.000 HD
ATOM     15  H   UNL     1       8.947   8.988  -4.392  0.00  0.00    +0.000 HD
BRANCH  13  16
ATOM     16  C   UNL     1       8.958   7.347  -5.774  0.00  0.00    +0.000 C 
ATOM     17  H   UNL     1       8.782   6.330  -5.409  0.00  0.00    +0.000 HD
ATOM     18  H   UNL     1       7.992   7.782  -6.047  0.00  0.00    +0.000 HD
ATOM     19  H   UNL     1       9.572   7.286  -6.677  0.00  0.00    +0.000 HD
ENDBRANCH  13  16
ENDBRANCH  10  13
ENDBRANCH   7  10
ENDBRANCH   4   7
ENDBRANCH   1   4
BRANCH   1  20
ATOM     20  C   UNL     1      13.003   5.165  -3.570  0.00  0.00    +0.000 C 
ATOM     21  H   UNL     1      13.917   5.404  -3.012  0.00  0.00    +0.000 HD
ATOM     22  H   UNL     1      12.229   4.938  -2.827  0.00  0.00    +0.000 HD
BRANCH  20  23
ATOM     23  C   UNL     1      13.248   3.927  -4.437  0.00  0.00    +0.000 C 
ATOM     24  H   UNL     1      12.765   3.057  -3.977  0.00  0.00    +0.000 HD
ATOM     25  H   UNL     1      12.785   4.073  -5.419  0.00  0.00    +0.000 HD
BRANCH  23  26
ATOM     26  C   UNL     1      14.744   3.657  -4.605  0.00  0.00    +0.000 C 
ATOM     27  H   UNL     1      15.274   3.948  -3.689  0.00  0.00    +0.000 HD
ATOM     28  H   UNL     1      14.907   2.581  -4.737  0.00  0.00    +0.000 HD
BRANCH  26  29
ATOM     29  C   UNL     1      15.315   4.422  -5.794  0.00  0.00    +0.000 C 
ATOM     30  H   UNL     1      14.687   5.284  -6.044  0.00  0.00    +0.000 HD
ATOM     31  H   UNL     1      15.388   3.775  -6.675  0.00  0.00    +0.000 HD
BRANCH  29  33
ATOM     32  O   UNL     1      17.124   5.033  -4.328  0.00  0.00    +0.000 OA
ATOM     33  C   UNL     1      16.696   4.926  -5.473  0.00  0.00    +0.000 C 
ATOM     34  H   UNL     1      17.316   5.205  -6.341  0.00  0.00    +0.000 HD
ENDBRANCH  29  33
ENDBRANCH  26  29
ENDBRANCH  23  26
ENDBRANCH  20  23
ENDBRANCH   1  20
TORSDOF 10
ENDMDL
MODEL 3
REMARK VINA RESULT:    -4.111     36.271     38.346
REMARK INTER + INTRA:          -7.058
REMARK INTER:                  -6.817
REMARK INTRA:                  -0.241
REMARK UNBOUND:                -0.664
REMARK  Name = 8186
REMARK  10 active torsions:
REMARK  status: ('A' for Active; 'I' for Inactive)
REMARK    1  A    between atoms: C_2  and  C_3
REMARK    2  A    between atoms: C_2  and  C_4
REMARK    3  A    between atoms: C_3  and  C_5
REMARK    4  A    between atoms: C_4  and  C_6
REMARK    5  A    between atoms: C_5  and  C_7
REMARK    6  A    between atoms: C_6  and  C_8
REMARK    7  A    between atoms: C_7  and  C_9
REMARK    8  A    between atoms: C_8  and  C_10
REMARK    9  A    between atoms: C_9  and  C_11
REMARK   10  A    between atoms: C_10  and  C_12
REMARK                            x       y       z     vdW  Elec       q    Type
REMARK                         _______ _______ _______ _____ _____    ______ ____
ROOT
ATOM      1  C   UNL     1     -19.049 -12.333   4.987  0.00  0.00    +0.000 C 
ATOM      2  H   UNL     1     -18.638 -13.142   4.371  0.00  0.00    +0.000 HD
ATOM      3  H   UNL     1     -20.082 -12.174   4.653  0.00  0.00    +0.000 HD
ENDROOT
BRANCH   1   4
ATOM      4  C   UNL     1     -18.243 -11.054   4.745  0.00  0.00    +0.000 C 
ATOM      5  H   UNL     1     -18.556 -10.285   5.461  0.00  0.00    +0.000 HD
ATOM      6  H   UNL     1     -17.182 -11.258   4.943  0.00  0.00    +0.000 HD
BRANCH   4   7
ATOM      7  C   UNL     1     -18.391 -10.505   3.322  0.00  0.00    +0.000 C 
ATOM      8  H   UNL     1     -18.026 -11.255   2.610  0.00  0.00    +0.000 HD
ATOM      9  H   UNL     1     -19.457 -10.356   3.106  0.00  0.00    +0.000 HD
BRANCH   7  10
ATOM     10  C   UNL     1     -17.639  -9.192   3.096  0.00  0.00    +0.000 C 
ATOM     11  H   UNL     1     -18.309  -8.460   2.628  0.00  0.00    +0.000 HD
ATOM     12  H   UNL     1     -17.332  -8.777   4.064  0.00  0.00    +0.000 HD
BRANCH  10  13
ATOM     13  C   UNL     1     -16.409  -9.403   2.213  0.00  0.00    +0.000 C 
ATOM     14  H   UNL     1     -16.445 -10.398   1.754  0.00  0.00    +0.000 HD
ATOM     15  H   UNL     1     -15.499  -9.360   2.823  0.00  0.00    +0.000 HD
BRANCH  13  16
ATOM     16  C   UNL     1     -16.321  -8.350   1.118  0.00  0.00    +0.000 C 
ATOM     17  H   UNL     1     -15.445  -7.710   1.260  0.00  0.00    +0.000 HD
ATOM     18  H   UNL     1     -16.238  -8.830   0.138  0.00  0.00    +0.000 HD
ATOM     19  H   UNL     1     -17.213  -7.716   1.113  0.00  0.00    +0.000 HD
ENDBRANCH  13  16
ENDBRANCH  10  13
ENDBRANCH   7  10
ENDBRANCH   4   7
ENDBRANCH   1   4
BRANCH   1  20
ATOM     20  C   UNL     1     -19.058 -12.774   6.455  0.00  0.00    +0.000 C 
ATOM     21  H   UNL     1     -18.913 -13.860   6.502  0.00  0.00    +0.000 HD
ATOM     22  H   UNL     1     -18.203 -12.318   6.969  0.00  0.00    +0.000 HD
BRANCH  20  23
ATOM     23  C   UNL     1     -20.347 -12.402   7.192  0.00  0.00    +0.000 C 
ATOM     24  H   UNL     1     -20.262 -12.691   8.246  0.00  0.00    +0.000 HD
ATOM     25  H   UNL     1     -20.481 -11.314   7.165  0.00  0.00    +0.000 HD
BRANCH  23  26
ATOM     26  C   UNL     1     -21.560 -13.088   6.565  0.00  0.00    +0.000 C 
ATOM     27  H   UNL     1     -21.628 -12.817   5.504  0.00  0.00    +0.000 HD
ATOM     28  H   UNL     1     -21.425 -14.176   6.605  0.00  0.00    +0.000 HD
BRANCH  26  29
ATOM     29  C   UNL     1     -22.850 -12.696   7.278  0.00  0.00    +0.000 C 
ATOM     30  H   UNL     1     -22.939 -11.608   7.356  0.00  0.00    +0.000 HD
ATOM     31  H   UNL     1     -22.883 -13.124   8.285  0.00  0.00    +0.000 HD
BRANCH  29  33
ATOM     32  O   UNL     1     -24.771 -12.490   5.841  0.00  0.00    +0.000 OA
ATOM     33  C   UNL     1     -24.042 -13.210   6.516  0.00  0.00    +0.000 C 
ATOM     34  H   UNL     1     -24.233 -14.293   6.601  0.00  0.00    +0.000 HD
ENDBRANCH  29  33
ENDBRANCH  26  29
ENDBRANCH  23  26
ENDBRANCH  20  23
ENDBRANCH   1  20
TORSDOF 10
ENDMDL
MODEL 4
REMARK VINA RESULT:    -4.090     24.615     26.116
REMARK INTER + INTRA:          -7.026
REMARK INTER:                  -6.542
REMARK INTRA:                  -0.484
REMARK UNBOUND:                -0.664
REMARK  Name = 8186
REMARK  10 active torsions:
REMARK  status: ('A' for Active; 'I' for Inactive)
REMARK    1  A    between atoms: C_2  and  C_3
REMARK    2  A    between atoms: C_2  and  C_4
REMARK    3  A    between atoms: C_3  and  C_5
REMARK    4  A    between atoms: C_4  and  C_6
REMARK    5  A    between atoms: C_5  and  C_7
REMARK    6  A    between atoms: C_6  and  C_8
REMARK    7  A    between atoms: C_7  and  C_9
REMARK    8  A    between atoms: C_8  and  C_10
REMARK    9  A    between atoms: C_9  and  C_11
REMARK   10  A    between atoms: C_10  and  C_12
REMARK                            x       y       z     vdW  Elec       q    Type
REMARK                         _______ _______ _______ _____ _____    ______ ____
ROOT
ATOM      1  C   UNL     1      -1.193 -14.201 -11.442  0.00  0.00    +0.000 C 
ATOM      2  H   UNL     1      -1.874 -13.352 -11.576  0.00  0.00    +0.000 HD
ATOM      3  H   UNL     1      -0.178 -13.789 -11.385  0.00  0.00    +0.000 HD
ENDROOT
BRANCH   1   4
ATOM      4  C   UNL     1      -1.291 -15.123 -12.659  0.00  0.00    +0.000 C 
ATOM      5  H   UNL     1      -2.154 -14.831 -13.269  0.00  0.00    +0.000 HD
ATOM      6  H   UNL     1      -0.400 -14.983 -13.285  0.00  0.00    +0.000 HD
BRANCH   4   7
ATOM      7  C   UNL     1      -1.416 -16.605 -12.289  0.00  0.00    +0.000 C 
ATOM      8  H   UNL     1      -0.487 -16.932 -11.807  0.00  0.00    +0.000 HD
ATOM      9  H   UNL     1      -2.216 -16.721 -11.546  0.00  0.00    +0.000 HD
BRANCH   7  10
ATOM     10  C   UNL     1      -1.704 -17.509 -13.490  0.00  0.00    +0.000 C 
ATOM     11  H   UNL     1      -2.477 -17.051 -14.118  0.00  0.00    +0.000 HD
ATOM     12  H   UNL     1      -0.799 -17.598 -14.103  0.00  0.00    +0.000 HD
BRANCH  10  13
ATOM     13  C   UNL     1      -2.160 -18.897 -13.040  0.00  0.00    +0.000 C 
ATOM     14  H   UNL     1      -1.367 -19.631 -13.231  0.00  0.00    +0.000 HD
ATOM     15  H   UNL     1      -3.036 -19.209 -13.622  0.00  0.00    +0.000 HD
BRANCH  13  16
ATOM     16  C   UNL     1      -2.515 -18.916 -11.562  0.00  0.00    +0.000 C 
ATOM     17  H   UNL     1      -2.000 -18.114 -11.025  0.00  0.00    +0.000 HD
ATOM     18  H   UNL     1      -3.593 -18.778 -11.429  0.00  0.00    +0.000 HD
ATOM     19  H   UNL     1      -2.235 -19.871 -11.104  0.00  0.00    +0.000 HD
ENDBRANCH  13  16
ENDBRANCH  10  13
ENDBRANCH   7  10
ENDBRANCH   4   7
ENDBRANCH   1   4
BRANCH   1  20
ATOM     20  C   UNL     1      -1.523 -14.906 -10.121  0.00  0.00    +0.000 C 
ATOM     21  H   UNL     1      -2.510 -15.378 -10.205  0.00  0.00    +0.000 HD
ATOM     22  H   UNL     1      -0.799 -15.713  -9.957  0.00  0.00    +0.000 HD
BRANCH  20  23
ATOM     23  C   UNL     1      -1.513 -13.966  -8.913  0.00  0.00    +0.000 C 
ATOM     24  H   UNL     1      -2.542 -13.687  -8.657  0.00  0.00    +0.000 HD
ATOM     25  H   UNL     1      -1.094 -14.492  -8.047  0.00  0.00    +0.000 HD
BRANCH  23  26
ATOM     26  C   UNL     1      -0.693 -12.707  -9.199  0.00  0.00    +0.000 C 
ATOM     27  H   UNL     1       0.220 -12.979  -9.744  0.00  0.00    +0.000 HD
ATOM     28  H   UNL     1      -1.266 -12.041  -9.855  0.00  0.00    +0.000 HD
BRANCH  26  29
ATOM     29  C   UNL     1      -0.324 -11.981  -7.910  0.00  0.00    +0.000 C 
ATOM     30  H   UNL     1      -0.754 -10.973  -7.891  0.00  0.00    +0.000 HD
ATOM     31  H   UNL     1       0.762 -11.900  -7.805  0.00  0.00    +0.000 HD
BRANCH  29  33
ATOM     32  O   UNL     1      -0.513 -12.491  -5.564  0.00  0.00    +0.000 OA
ATOM     33  C   UNL     1      -0.851 -12.735  -6.719  0.00  0.00    +0.000 C 
ATOM     34  H   UNL     1      -1.570 -13.540  -6.943  0.00  0.00    +0.000 HD
ENDBRANCH  29  33
ENDBRANCH  26  29
ENDBRANCH  23  26
ENDBRANCH  20  23
ENDBRANCH   1  20
TORSDOF 10
ENDMDL
MODEL 5
REMARK VINA RESULT:    -4.039     33.022     35.143
REMARK INTER + INTRA:          -6.947
REMARK INTER:                  -6.135
REMARK INTRA:                  -0.811
REMARK UNBOUND:                -0.664
REMARK  Name = 8186
REMARK  10 active torsions:
REMARK  status: ('A' for Active; 'I' for Inactive)
REMARK    1  A    between atoms: C_2  and  C_3
REMARK    2  A    between atoms: C_2  and  C_4
REMARK    3  A    between atoms: C_3  and  C_5
REMARK    4  A    between atoms: C_4  and  C_6
REMARK    5  A    between atoms: C_5  and  C_7
REMARK    6  A    between atoms: C_6  and  C_8
REMARK    7  A    between atoms: C_7  and  C_9
REMARK    8  A    between atoms: C_8  and  C_10
REMARK    9  A    between atoms: C_9  and  C_11
REMARK   10  A    between atoms: C_10  and  C_12
REMARK                            x       y       z     vdW  Elec       q    Type
REMARK                         _______ _______ _______ _____ _____    ______ ____
ROOT
ATOM      1  C   UNL     1     -16.389  -8.668   1.499  0.00  0.00    +0.000 C 
ATOM      2  H   UNL     1     -17.375  -8.554   1.034  0.00  0.00    +0.000 HD
ATOM      3  H   UNL     1     -15.966  -7.661   1.598  0.00  0.00    +0.000 HD
ENDROOT
BRANCH   1   4
ATOM      4  C   UNL     1     -15.491  -9.500   0.580  0.00  0.00    +0.000 C 
ATOM      5  H   UNL     1     -14.790  -8.837   0.059  0.00  0.00    +0.000 HD
ATOM      6  H   UNL     1     -14.886 -10.181   1.193  0.00  0.00    +0.000 HD
BRANCH   4   7
ATOM      7  C   UNL     1     -16.273 -10.316  -0.454  0.00  0.00    +0.000 C 
ATOM      8  H   UNL     1     -15.595 -10.609  -1.265  0.00  0.00    +0.000 HD
ATOM      9  H   UNL     1     -16.623 -11.245   0.016  0.00  0.00    +0.000 HD
BRANCH   7  10
ATOM     10  C   UNL     1     -17.467  -9.565  -1.045  0.00  0.00    +0.000 C 
ATOM     11  H   UNL     1     -17.590  -8.605  -0.529  0.00  0.00    +0.000 HD
ATOM     12  H   UNL     1     -17.270  -9.341  -2.101  0.00  0.00    +0.000 HD
BRANCH  10  13
ATOM     13  C   UNL     1     -18.753 -10.383  -0.923  0.00  0.00    +0.000 C 
ATOM     14  H   UNL     1     -19.147 -10.307   0.097  0.00  0.00    +0.000 HD
ATOM     15  H   UNL     1     -18.540 -11.443  -1.110  0.00  0.00    +0.000 HD
BRANCH  13  16
ATOM     16  C   UNL     1     -19.811  -9.909  -1.906  0.00  0.00    +0.000 C 
ATOM     17  H   UNL     1     -19.546  -8.934  -2.328  0.00  0.00    +0.000 HD
ATOM     18  H   UNL     1     -19.910 -10.621  -2.731  0.00  0.00    +0.000 HD
ATOM     19  H   UNL     1     -20.787  -9.817  -1.417  0.00  0.00    +0.000 HD
ENDBRANCH  13  16
ENDBRANCH  10  13
ENDBRANCH   7  10
ENDBRANCH   4   7
ENDBRANCH   1   4
BRANCH   1  20
ATOM     20  C   UNL     1     -16.558  -9.280   2.894  0.00  0.00    +0.000 C 
ATOM     21  H   UNL     1     -16.094 -10.274   2.908  0.00  0.00    +0.000 HD
ATOM     22  H   UNL     1     -16.013  -8.666   3.622  0.00  0.00    +0.000 HD
BRANCH  20  23
ATOM     23  C   UNL     1     -18.021  -9.398   3.331  0.00  0.00    +0.000 C 
ATOM     24  H   UNL     1     -18.079  -9.381   4.426  0.00  0.00    +0.000 HD
ATOM     25  H   UNL     1     -18.582  -8.531   2.963  0.00  0.00    +0.000 HD
BRANCH  23  26
ATOM     26  C   UNL     1     -18.653 -10.686   2.802  0.00  0.00    +0.000 C 
ATOM     27  H   UNL     1     -19.744 -10.575   2.774  0.00  0.00    +0.000 HD
ATOM     28  H   UNL     1     -18.326 -10.854   1.768  0.00  0.00    +0.000 HD
BRANCH  26  29
ATOM     29  C   UNL     1     -18.281 -11.884   3.668  0.00  0.00    +0.000 C 
ATOM     30  H   UNL     1     -17.208 -12.094   3.607  0.00  0.00    +0.000 HD
ATOM     31  H   UNL     1     -18.831 -12.777   3.356  0.00  0.00    +0.000 HD
BRANCH  29  33
ATOM     32  O   UNL     1     -18.880 -12.494   5.920  0.00  0.00    +0.000 OA
ATOM     33  C   UNL     1     -18.622 -11.609   5.109  0.00  0.00    +0.000 C 
ATOM     34  H   UNL     1     -18.631 -10.547   5.403  0.00  0.00    +0.000 HD
ENDBRANCH  29  33
ENDBRANCH  26  29
ENDBRANCH  23  26
ENDBRANCH  20  23
ENDBRANCH   1  20
TORSDOF 10
ENDMDL
MODEL 6
REMARK VINA RESULT:    -3.974     24.167     25.504
REMARK INTER + INTRA:          -6.845
REMARK INTER:                  -6.006
REMARK INTRA:                  -0.840
REMARK UNBOUND:                -0.664
REMARK  Name = 8186
REMARK  10 active torsions:
REMARK  status: ('A' for Active; 'I' for Inactive)
REMARK    1  A    between atoms: C_2  and  C_3
REMARK    2  A    between atoms: C_2  and  C_4
REMARK    3  A    between atoms: C_3  and  C_5
REMARK    4  A    between atoms: C_4  and  C_6
REMARK    5  A    between atoms: C_5  and  C_7
REMARK    6  A    between atoms: C_6  and  C_8
REMARK    7  A    between atoms: C_7  and  C_9
REMARK    8  A    between atoms: C_8  and  C_10
REMARK    9  A    between atoms: C_9  and  C_11
REMARK   10  A    between atoms: C_10  and  C_12
REMARK                            x       y       z     vdW  Elec       q    Type
REMARK                         _______ _______ _______ _____ _____    ______ ____
ROOT
ATOM      1  C   UNL     1      -1.857 -13.354  -7.670  0.00  0.00    +0.000 C 
ATOM      2  H   UNL     1      -2.145 -13.917  -8.565  0.00  0.00    +0.000 HD
ATOM      3  H   UNL     1      -2.695 -12.686  -7.432  0.00  0.00    +0.000 HD
ENDROOT
BRANCH   1   4
ATOM      4  C   UNL     1      -0.618 -12.510  -7.980  0.00  0.00    +0.000 C 
ATOM      5  H   UNL     1      -0.746 -11.506  -7.557  0.00  0.00    +0.000 HD
ATOM      6  H   UNL     1       0.252 -12.956  -7.480  0.00  0.00    +0.000 HD
BRANCH   4   7
ATOM      7  C   UNL     1      -0.328 -12.389  -9.480  0.00  0.00    +0.000 C 
ATOM      8  H   UNL     1      -0.561 -11.369  -9.808  0.00  0.00    +0.000 HD
ATOM      9  H   UNL     1       0.747 -12.537  -9.648  0.00  0.00    +0.000 HD
BRANCH   7  10
ATOM     10  C   UNL     1      -1.117 -13.384 -10.334  0.00  0.00    +0.000 C 
ATOM     11  H   UNL     1      -1.141 -14.360  -9.835  0.00  0.00    +0.000 HD
ATOM     12  H   UNL     1      -2.155 -13.041 -10.425  0.00  0.00    +0.000 HD
BRANCH  10  13
ATOM     13  C   UNL     1      -0.499 -13.532 -11.725  0.00  0.00    +0.000 C 
ATOM     14  H   UNL     1       0.456 -14.067 -11.653  0.00  0.00    +0.000 HD
ATOM     15  H   UNL     1      -0.285 -12.542 -12.146  0.00  0.00    +0.000 HD
BRANCH  13  16
ATOM     16  C   UNL     1      -1.424 -14.284 -12.669  0.00  0.00    +0.000 C 
ATOM     17  H   UNL     1      -2.362 -13.738 -12.815  0.00  0.00    +0.000 HD
ATOM     18  H   UNL     1      -0.947 -14.410 -13.646  0.00  0.00    +0.000 HD
ATOM     19  H   UNL     1      -1.662 -15.277 -12.275  0.00  0.00    +0.000 HD
ENDBRANCH  13  16
ENDBRANCH  10  13
ENDBRANCH   7  10
ENDBRANCH   4   7
ENDBRANCH   1   4
BRANCH   1  20
ATOM     20  C   UNL     1      -1.648 -14.331  -6.507  0.00  0.00    +0.000 C 
ATOM     21  H   UNL     1      -0.595 -14.300  -6.200  0.00  0.00    +0.000 HD
ATOM     22  H   UNL     1      -2.239 -13.993  -5.647  0.00  0.00    +0.000 HD
BRANCH  20  23
ATOM     23  C   UNL     1      -2.034 -15.772  -6.849  0.00  0.00    +0.000 C 
ATOM     24  H   UNL     1      -1.817 -16.422  -5.994  0.00  0.00    +0.000 HD
ATOM     25  H   UNL     1      -3.114 -15.826  -7.032  0.00  0.00    +0.000 HD
BRANCH  23  26
ATOM     26  C   UNL     1      -1.276 -16.270  -8.080  0.00  0.00    +0.000 C 
ATOM     27  H   UNL     1      -0.616 -15.476  -8.451  0.00  0.00    +0.000 HD
ATOM     28  H   UNL     1      -0.630 -17.110  -7.795  0.00  0.00    +0.000 HD
BRANCH  26  29
ATOM     29  C   UNL     1      -2.234 -16.700  -9.185  0.00  0.00    +0.000 C 
ATOM     30  H   UNL     1      -2.771 -15.839  -9.596  0.00  0.00    +0.000 HD
ATOM     31  H   UNL     1      -2.966 -17.422  -8.808  0.00  0.00    +0.000 HD
BRANCH  29  33
ATOM     32  O   UNL     1      -1.902 -17.435 -11.455  0.00  0.00    +0.000 OA
ATOM     33  C   UNL     1      -1.473 -17.355 -10.307  0.00  0.00    +0.000 C 
ATOM     34  H   UNL     1      -0.489 -17.772 -10.037  0.00  0.00    +0.000 HD
ENDBRANCH  29  33
ENDBRANCH  26  29
ENDBRANCH  23  26
ENDBRANCH  20  23
ENDBRANCH   1  20
TORSDOF 10
ENDMDL
MODEL 7
REMARK VINA RESULT:    -3.943     33.974     36.085
REMARK INTER + INTRA:          -6.796
REMARK INTER:                  -6.168
REMARK INTRA:                  -0.628
REMARK UNBOUND:                -0.664
REMARK  Name = 8186
REMARK  10 active torsions:
REMARK  status: ('A' for Active; 'I' for Inactive)
REMARK    1  A    between atoms: C_2  and  C_3
REMARK    2  A    between atoms: C_2  and  C_4
REMARK    3  A    between atoms: C_3  and  C_5
REMARK    4  A    between atoms: C_4  and  C_6
REMARK    5  A    between atoms: C_5  and  C_7
REMARK    6  A    between atoms: C_6  and  C_8
REMARK    7  A    between atoms: C_7  and  C_9
REMARK    8  A    between atoms: C_8  and  C_10
REMARK    9  A    between atoms: C_9  and  C_11
REMARK   10  A    between atoms: C_10  and  C_12
REMARK                            x       y       z     vdW  Elec       q    Type
REMARK                         _______ _______ _______ _____ _____    ______ ____
ROOT
ATOM      1  C   UNL     1     -18.695 -10.957   2.807  0.00  0.00    +0.000 C 
ATOM      2  H   UNL     1     -19.674 -10.637   2.429  0.00  0.00    +0.000 HD
ATOM      3  H   UNL     1     -18.062 -11.143   1.930  0.00  0.00    +0.000 HD
ENDROOT
BRANCH   1   4
ATOM      4  C   UNL     1     -18.858 -12.261   3.592  0.00  0.00    +0.000 C 
ATOM      5  H   UNL     1     -19.859 -12.672   3.411  0.00  0.00    +0.000 HD
ATOM      6  H   UNL     1     -18.139 -12.999   3.212  0.00  0.00    +0.000 HD
BRANCH   4   7
ATOM      7  C   UNL     1     -18.652 -12.090   5.100  0.00  0.00    +0.000 C 
ATOM      8  H   UNL     1     -17.590 -11.898   5.296  0.00  0.00    +0.000 HD
ATOM      9  H   UNL     1     -19.201 -11.201   5.437  0.00  0.00    +0.000 HD
BRANCH   7  10
ATOM     10  C   UNL     1     -19.100 -13.304   5.917  0.00  0.00    +0.000 C 
ATOM     11  H   UNL     1     -19.878 -13.849   5.368  0.00  0.00    +0.000 HD
ATOM     12  H   UNL     1     -18.254 -13.989   6.045  0.00  0.00    +0.000 HD
BRANCH  10  13
ATOM     13  C   UNL     1     -19.635 -12.884   7.286  0.00  0.00    +0.000 C 
ATOM     14  H   UNL     1     -18.823 -12.465   7.891  0.00  0.00    +0.000 HD
ATOM     15  H   UNL     1     -20.020 -13.760   7.822  0.00  0.00    +0.000 HD
BRANCH  13  16
ATOM     16  C   UNL     1     -20.746 -11.853   7.158  0.00  0.00    +0.000 C 
ATOM     17  H   UNL     1     -21.475 -11.959   7.968  0.00  0.00    +0.000 HD
ATOM     18  H   UNL     1     -20.332 -10.841   7.203  0.00  0.00    +0.000 HD
ATOM     19  H   UNL     1     -21.274 -11.963   6.205  0.00  0.00    +0.000 HD
ENDBRANCH  13  16
ENDBRANCH  10  13
ENDBRANCH   7  10
ENDBRANCH   4   7
ENDBRANCH   1   4
BRANCH   1  20
ATOM     20  C   UNL     1     -18.082  -9.824   3.637  0.00  0.00    +0.000 C 
ATOM     21  H   UNL     1     -18.852  -9.066   3.829  0.00  0.00    +0.000 HD
ATOM     22  H   UNL     1     -17.778 -10.221   4.613  0.00  0.00    +0.000 HD
BRANCH  20  23
ATOM     23  C   UNL     1     -16.876  -9.162   2.964  0.00  0.00    +0.000 C 
ATOM     24  H   UNL     1     -17.224  -8.467   2.191  0.00  0.00    +0.000 HD
ATOM     25  H   UNL     1     -16.324  -8.573   3.706  0.00  0.00    +0.000 HD
BRANCH  23  26
ATOM     26  C   UNL     1     -15.951 -10.207   2.339  0.00  0.00    +0.000 C 
ATOM     27  H   UNL     1     -15.124 -10.423   3.028  0.00  0.00    +0.000 HD
ATOM     28  H   UNL     1     -16.502 -11.145   2.200  0.00  0.00    +0.000 HD
BRANCH  26  29
ATOM     29  C   UNL     1     -15.394  -9.726   1.004  0.00  0.00    +0.000 C 
ATOM     30  H   UNL     1     -15.081 -10.571   0.382  0.00  0.00    +0.000 HD
ATOM     31  H   UNL     1     -14.534  -9.065   1.155  0.00  0.00    +0.000 HD
BRANCH  29  33
ATOM     32  O   UNL     1     -17.174  -9.462  -0.597  0.00  0.00    +0.000 OA
ATOM     33  C   UNL     1     -16.444  -8.955   0.250  0.00  0.00    +0.000 C 
ATOM     34  H   UNL     1     -16.524  -7.884   0.502  0.00  0.00    +0.000 HD
ENDBRANCH  29  33
ENDBRANCH  26  29
ENDBRANCH  23  26
ENDBRANCH  20  23
ENDBRANCH   1  20
TORSDOF 10
ENDMDL
MODEL 8
REMARK VINA RESULT:    -3.859     32.773     34.381
REMARK INTER + INTRA:          -6.666
REMARK INTER:                  -5.699
REMARK INTRA:                  -0.966
REMARK UNBOUND:                -0.664
REMARK  Name = 8186
REMARK  10 active torsions:
REMARK  status: ('A' for Active; 'I' for Inactive)
REMARK    1  A    between atoms: C_2  and  C_3
REMARK    2  A    between atoms: C_2  and  C_4
REMARK    3  A    between atoms: C_3  and  C_5
REMARK    4  A    between atoms: C_4  and  C_6
REMARK    5  A    between atoms: C_5  and  C_7
REMARK    6  A    between atoms: C_6  and  C_8
REMARK    7  A    between atoms: C_7  and  C_9
REMARK    8  A    between atoms: C_8  and  C_10
REMARK    9  A    between atoms: C_9  and  C_11
REMARK   10  A    between atoms: C_10  and  C_12
REMARK                            x       y       z     vdW  Elec       q    Type
REMARK                         _______ _______ _______ _____ _____    ______ ____
ROOT
ATOM      1  C   UNL     1     -15.574 -10.452   0.438  0.00  0.00    +0.000 C 
ATOM      2  H   UNL     1     -14.600 -10.786   0.818  0.00  0.00    +0.000 HD
ATOM      3  H   UNL     1     -16.336 -11.058   0.944  0.00  0.00    +0.000 HD
ENDROOT
BRANCH   1   4
ATOM      4  C   UNL     1     -15.644 -10.714  -1.068  0.00  0.00    +0.000 C 
ATOM      5  H   UNL     1     -15.175  -9.880  -1.605  0.00  0.00    +0.000 HD
ATOM      6  H   UNL     1     -15.056 -11.611  -1.302  0.00  0.00    +0.000 HD
BRANCH   4   7
ATOM      7  C   UNL     1     -17.074 -10.902  -1.584  0.00  0.00    +0.000 C 
ATOM      8  H   UNL     1     -17.078 -11.689  -2.348  0.00  0.00    +0.000 HD
ATOM      9  H   UNL     1     -17.707 -11.259  -0.760  0.00  0.00    +0.000 HD
BRANCH   7  10
ATOM     10  C   UNL     1     -17.680  -9.627  -2.175  0.00  0.00    +0.000 C 
ATOM     11  H   UNL     1     -17.280  -8.752  -1.649  0.00  0.00    +0.000 HD
ATOM     12  H   UNL     1     -17.383  -9.537  -3.227  0.00  0.00    +0.000 HD
BRANCH  10  13
ATOM     13  C   UNL     1     -19.206  -9.639  -2.069  0.00  0.00    +0.000 C 
ATOM     14  H   UNL     1     -19.643  -9.946  -3.027  0.00  0.00    +0.000 HD
ATOM     15  H   UNL     1     -19.573  -8.628  -1.855  0.00  0.00    +0.000 HD
BRANCH  13  16
ATOM     16  C   UNL     1     -19.682 -10.582  -0.976  0.00  0.00    +0.000 C 
ATOM     17  H   UNL     1     -18.995 -10.572  -0.123  0.00  0.00    +0.000 HD
ATOM     18  H   UNL     1     -20.671 -10.279  -0.619  0.00  0.00    +0.000 HD
ATOM     19  H   UNL     1     -19.753 -11.609  -1.348  0.00  0.00    +0.000 HD
ENDBRANCH  13  16
ENDBRANCH  10  13
ENDBRANCH   7  10
ENDBRANCH   4   7
ENDBRANCH   1   4
BRANCH   1  20
ATOM     20  C   UNL     1     -15.779  -8.979   0.807  0.00  0.00    +0.000 C 
ATOM     21  H   UNL     1     -14.820  -8.555   1.130  0.00  0.00    +0.000 HD
ATOM     22  H   UNL     1     -16.083  -8.426  -0.091  0.00  0.00    +0.000 HD
BRANCH  20  23
ATOM     23  C   UNL     1     -16.823  -8.768   1.906  0.00  0.00    +0.000 C 
ATOM     24  H   UNL     1     -16.326  -8.425   2.822  0.00  0.00    +0.000 HD
ATOM     25  H   UNL     1     -17.519  -7.979   1.600  0.00  0.00    +0.000 HD
BRANCH  23  26
ATOM     26  C   UNL     1     -17.594 -10.057   2.190  0.00  0.00    +0.000 C 
ATOM     27  H   UNL     1     -18.582 -10.006   1.715  0.00  0.00    +0.000 HD
ATOM     28  H   UNL     1     -17.068 -10.904   1.735  0.00  0.00    +0.000 HD
BRANCH  26  29
ATOM     29  C   UNL     1     -17.756 -10.288   3.689  0.00  0.00    +0.000 C 
ATOM     30  H   UNL     1     -18.698 -10.802   3.907  0.00  0.00    +0.000 HD
ATOM     31  H   UNL     1     -17.742  -9.338   4.233  0.00  0.00    +0.000 HD
BRANCH  29  33
ATOM     32  O   UNL     1     -16.058 -11.987   3.531  0.00  0.00    +0.000 OA
ATOM     33  C   UNL     1     -16.628 -11.138   4.209  0.00  0.00    +0.000 C 
ATOM     34  H   UNL     1     -16.336 -10.955   5.256  0.00  0.00    +0.000 HD
ENDBRANCH  29  33
ENDBRANCH  26  29
ENDBRANCH  23  26
ENDBRANCH  20  23
ENDBRANCH   1  20
TORSDOF 10
ENDMDL
MODEL 9
REMARK VINA RESULT:    -3.828     23.695     25.063
REMARK INTER + INTRA:          -6.617
REMARK INTER:                  -6.217
REMARK INTRA:                  -0.401
REMARK UNBOUND:                -0.664
REMARK  Name = 8186
REMARK  10 active torsions:
REMARK  status: ('A' for Active; 'I' for Inactive)
REMARK    1  A    between atoms: C_2  and  C_3
REMARK    2  A    between atoms: C_2  and  C_4
REMARK    3  A    between atoms: C_3  and  C_5
REMARK    4  A    between atoms: C_4  and  C_6
REMARK    5  A    between atoms: C_5  and  C_7
REMARK    6  A    between atoms: C_6  and  C_8
REMARK    7  A    between atoms: C_7  and  C_9
REMARK    8  A    between atoms: C_8  and  C_10
REMARK    9  A    between atoms: C_9  and  C_11
REMARK   10  A    between atoms: C_10  and  C_12
REMARK                            x       y       z     vdW  Elec       q    Type
REMARK                         _______ _______ _______ _____ _____    ______ ____
ROOT
ATOM      1  C   UNL     1      -1.682 -12.982  -7.790  0.00  0.00    +0.000 C 
ATOM      2  H   UNL     1      -2.123 -13.387  -8.709  0.00  0.00    +0.000 HD
ATOM      3  H   UNL     1      -2.421 -12.294  -7.361  0.00  0.00    +0.000 HD
ENDROOT
BRANCH   1   4
ATOM      4  C   UNL     1      -0.414 -12.200  -8.141  0.00  0.00    +0.000 C 
ATOM      5  H   UNL     1      -0.524 -11.161  -7.808  0.00  0.00    +0.000 HD
ATOM      6  H   UNL     1       0.431 -12.623  -7.584  0.00  0.00    +0.000 HD
BRANCH   4   7
ATOM      7  C   UNL     1      -0.087 -12.215  -9.638  0.00  0.00    +0.000 C 
ATOM      8  H   UNL     1      -0.331 -11.236 -10.066  0.00  0.00    +0.000 HD
ATOM      9  H   UNL     1       0.994 -12.356  -9.765  0.00  0.00    +0.000 HD
BRANCH   7  10
ATOM     10  C   UNL     1      -0.836 -13.302 -10.413  0.00  0.00    +0.000 C 
ATOM     11  H   UNL     1      -0.717 -14.265  -9.902  0.00  0.00    +0.000 HD
ATOM     12  H   UNL     1      -1.908 -13.069 -10.421  0.00  0.00    +0.000 HD
BRANCH  10  13
ATOM     13  C   UNL     1      -0.321 -13.413 -11.848  0.00  0.00    +0.000 C 
ATOM     14  H   UNL     1       0.680 -13.860 -11.851  0.00  0.00    +0.000 HD
ATOM     15  H   UNL     1      -0.230 -12.414 -12.291  0.00  0.00    +0.000 HD
BRANCH  13  16
ATOM     16  C   UNL     1      -1.248 -14.255 -12.709  0.00  0.00    +0.000 C 
ATOM     17  H   UNL     1      -2.239 -13.797 -12.782  0.00  0.00    +0.000 HD
ATOM     18  H   UNL     1      -0.842 -14.351 -13.721  0.00  0.00    +0.000 HD
ATOM     19  H   UNL     1      -1.364 -15.260 -12.292  0.00  0.00    +0.000 HD
ENDBRANCH  13  16
ENDBRANCH  10  13
ENDBRANCH   7  10
ENDBRANCH   4   7
ENDBRANCH   1   4
BRANCH   1  20
ATOM     20  C   UNL     1      -1.433 -14.128  -6.804  0.00  0.00    +0.000 C 
ATOM     21  H   UNL     1      -0.426 -14.531  -6.971  0.00  0.00    +0.000 HD
ATOM     22  H   UNL     1      -1.449 -13.730  -5.782  0.00  0.00    +0.000 HD
BRANCH  20  23
ATOM     23  C   UNL     1      -2.457 -15.261  -6.919  0.00  0.00    +0.000 C 
ATOM     24  H   UNL     1      -2.611 -15.510  -7.976  0.00  0.00    +0.000 HD
ATOM     25  H   UNL     1      -2.063 -16.159  -6.428  0.00  0.00    +0.000 HD
BRANCH  23  26
ATOM     26  C   UNL     1      -3.791 -14.868  -6.283  0.00  0.00    +0.000 C 
ATOM     27  H   UNL     1      -4.224 -14.023  -6.832  0.00  0.00    +0.000 HD
ATOM     28  H   UNL     1      -4.497 -15.701  -6.374  0.00  0.00    +0.000 HD
BRANCH  26  29
ATOM     29  C   UNL     1      -3.615 -14.491  -4.816  0.00  0.00    +0.000 C 
ATOM     30  H   UNL     1      -3.085 -13.538  -4.716  0.00  0.00    +0.000 HD
ATOM     31  H   UNL     1      -3.054 -15.262  -4.279  0.00  0.00    +0.000 HD
BRANCH  29  33
ATOM     32  O   UNL     1      -5.167 -13.589  -3.210  0.00  0.00    +0.000 OA
ATOM     33  C   UNL     1      -4.959 -14.349  -4.151  0.00  0.00    +0.000 C 
ATOM     34  H   UNL     1      -5.763 -14.981  -4.562  0.00  0.00    +0.000 HD
ENDBRANCH  29  33
ENDBRANCH  26  29
ENDBRANCH  23  26
ENDBRANCH  20  23
ENDBRANCH   1  20
TORSDOF 10
ENDMDL
MODEL 10
REMARK VINA RESULT:    -3.800     12.976     13.937
REMARK INTER + INTRA:          -6.575
REMARK INTER:                  -5.911
REMARK INTRA:                  -0.664
REMARK UNBOUND:                -0.664
REMARK  Name = 8186
REMARK  10 active torsions:
REMARK  status: ('A' for Active; 'I' for Inactive)
REMARK    1  A    between atoms: C_2  and  C_3
REMARK    2  A    between atoms: C_2  and  C_4
REMARK    3  A    between atoms: C_3  and  C_5
REMARK    4  A    between atoms: C_4  and  C_6
REMARK    5  A    between atoms: C_5  and  C_7
REMARK    6  A    between atoms: C_6  and  C_8
REMARK    7  A    between atoms: C_7  and  C_9
REMARK    8  A    between atoms: C_8  and  C_10
REMARK    9  A    between atoms: C_9  and  C_11
REMARK   10  A    between atoms: C_10  and  C_12
REMARK                            x       y       z     vdW  Elec       q    Type
REMARK                         _______ _______ _______ _____ _____    ______ ____
ROOT
ATOM      1  C   UNL     1       2.929  14.026  -9.523  0.00  0.00    +0.000 C 
ATOM      2  H   UNL     1       2.451  13.927  -8.541  0.00  0.00    +0.000 HD
ATOM      3  H   UNL     1       2.599  14.984  -9.941  0.00  0.00    +0.000 HD
ENDROOT
BRANCH   1   4
ATOM      4  C   UNL     1       2.453  12.891 -10.433  0.00  0.00    +0.000 C 
ATOM      5  H   UNL     1       1.723  12.274  -9.895  0.00  0.00    +0.000 HD
ATOM      6  H   UNL     1       1.928  13.323 -11.295  0.00  0.00    +0.000 HD
BRANCH   4   7
ATOM      7  C   UNL     1       3.592  11.998 -10.935  0.00  0.00    +0.000 C 
ATOM      8  H   UNL     1       4.549  12.425 -10.613  0.00  0.00    +0.000 HD
ATOM      9  H   UNL     1       3.508  11.012 -10.458  0.00  0.00    +0.000 HD
BRANCH   7  10
ATOM     10  C   UNL     1       3.606  11.827 -12.456  0.00  0.00    +0.000 C 
ATOM     11  H   UNL     1       4.259  10.988 -12.725  0.00  0.00    +0.000 HD
ATOM     12  H   UNL     1       2.596  11.575 -12.802  0.00  0.00    +0.000 HD
BRANCH  10  13
ATOM     13  C   UNL     1       4.088  13.099 -13.152  0.00  0.00    +0.000 C 
ATOM     14  H   UNL     1       3.821  13.977 -12.551  0.00  0.00    +0.000 HD
ATOM     15  H   UNL     1       3.588  13.207 -14.122  0.00  0.00    +0.000 HD
BRANCH  13  16
ATOM     16  C   UNL     1       5.593  13.080 -13.369  0.00  0.00    +0.000 C 
ATOM     17  H   UNL     1       5.839  13.236 -14.424  0.00  0.00    +0.000 HD
ATOM     18  H   UNL     1       6.070  13.875 -12.787  0.00  0.00    +0.000 HD
ATOM     19  H   UNL     1       6.022  12.124 -13.054  0.00  0.00    +0.000 HD
ENDBRANCH  13  16
ENDBRANCH  10  13
ENDBRANCH   7  10
ENDBRANCH   4   7
ENDBRANCH   1   4
BRANCH   1  20
ATOM     20  C   UNL     1       4.451  14.056  -9.339  0.00  0.00    +0.000 C 
ATOM     21  H   UNL     1       4.827  13.026  -9.309  0.00  0.00    +0.000 HD
ATOM     22  H   UNL     1       4.906  14.534 -10.216  0.00  0.00    +0.000 HD
BRANCH  20  23
ATOM     23  C   UNL     1       4.895  14.795  -8.075  0.00  0.00    +0.000 C 
ATOM     24  H   UNL     1       4.142  15.546  -7.806  0.00  0.00    +0.000 HD
ATOM     25  H   UNL     1       4.957  14.086  -7.241  0.00  0.00    +0.000 HD
BRANCH  23  26
ATOM     26  C   UNL     1       6.250  15.474  -8.278  0.00  0.00    +0.000 C 
ATOM     27  H   UNL     1       6.209  16.499  -7.890  0.00  0.00    +0.000 HD
ATOM     28  H   UNL     1       7.013  14.945  -7.694  0.00  0.00    +0.000 HD
BRANCH  26  29
ATOM     29  C   UNL     1       6.643  15.497  -9.751  0.00  0.00    +0.000 C 
ATOM     30  H   UNL     1       5.758  15.457 -10.394  0.00  0.00    +0.000 HD
ATOM     31  H   UNL     1       7.292  14.649  -9.995  0.00  0.00    +0.000 HD
BRANCH  29  33
ATOM     32  O   UNL     1       8.286  16.822 -10.910  0.00  0.00    +0.000 OA
ATOM     33  C   UNL     1       7.395  16.762 -10.068  0.00  0.00    +0.000 C 
ATOM     34  H   UNL     1       7.098  17.652  -9.489  0.00  0.00    +0.000 HD
ENDBRANCH  29  33
ENDBRANCH  26  29
ENDBRANCH  23  26
ENDBRANCH  20  23
ENDBRANCH   1  20
TORSDOF 10
ENDMDL
