MODEL 1
REMARK VINA RESULT:    -4.489      0.000      0.000
REMARK INTER + INTRA:          -4.956
REMARK INTER:                  -4.860
REMARK INTRA:                  -0.096
REMARK UNBOUND:                -0.074
REMARK  Name = 12756
REMARK  2 active torsions:
REMARK  status: ('A' for Active; 'I' for Inactive)
REMARK    1  A    between atoms: C_3  and  C_6
REMARK    2  A    between atoms: C_6  and  C_8
REMARK                            x       y       z     vdW  Elec       q    Type
REMARK                         _______ _______ _______ _____ _____    ______ ____
ROOT
ATOM      1  O   UNL     1       7.934  -0.969  -3.911  0.00  0.00    +0.000 OA
ATOM      2  O   UNL     1       9.449  -1.741  -2.370  0.00  0.00    +0.000 OA
ATOM      3  C   UNL     1       6.547  -1.215  -4.185  0.00  0.00    +0.000 C 
ATOM      4  C   UNL     1       5.970  -1.640  -2.854  0.00  0.00    +0.000 C 
ATOM      5  C   UNL     1       7.120  -2.397  -2.234  0.00  0.00    +0.000 C 
ATOM      6  C   UNL     1       8.308  -1.680  -2.803  0.00  0.00    +0.000 C 
ATOM      7  H   UNL     1       6.491  -2.034  -4.913  0.00  0.00    +0.000 HD
ATOM      8  H   UNL     1       5.061  -2.240  -2.952  0.00  0.00    +0.000 HD
ATOM      9  H   UNL     1       5.734  -0.767  -2.233  0.00  0.00    +0.000 HD
ATOM     10  H   UNL     1       7.104  -2.331  -1.143  0.00  0.00    +0.000 HD
ATOM     11  H   UNL     1       7.143  -3.441  -2.558  0.00  0.00    +0.000 HD
ENDROOT
BRANCH   3  12
ATOM     12  C   UNL     1       5.903   0.038  -4.746  0.00  0.00    +0.000 C 
ATOM     13  H   UNL     1       6.650   0.631  -5.288  0.00  0.00    +0.000 HD
ATOM     14  H   UNL     1       5.110  -0.228  -5.457  0.00  0.00    +0.000 HD
BRANCH  12  15
ATOM     15  C   UNL     1       5.288   0.894  -3.651  0.00  0.00    +0.000 C 
ATOM     16  H   UNL     1       4.487   0.361  -3.130  0.00  0.00    +0.000 HD
ATOM     17  H   UNL     1       6.041   1.190  -2.914  0.00  0.00    +0.000 HD
ATOM     18  H   UNL     1       4.859   1.805  -4.081  0.00  0.00    +0.000 HD
ENDBRANCH  12  15
ENDBRANCH   3  12
TORSDOF 2
ENDMDL
MODEL 2
REMARK VINA RESULT:    -4.483      1.832      3.432
REMARK INTER + INTRA:          -4.950
REMARK INTER:                  -4.911
REMARK INTRA:                  -0.039
REMARK UNBOUND:                -0.074
REMARK  Name = 12756
REMARK  2 active torsions:
REMARK  status: ('A' for Active; 'I' for Inactive)
REMARK    1  A    between atoms: C_3  and  C_6
REMARK    2  A    between atoms: C_6  and  C_8
REMARK                            x       y       z     vdW  Elec       q    Type
REMARK                         _______ _______ _______ _____ _____    ______ ____
ROOT
ATOM      1  O   UNL     1       7.387   0.246  -3.149  0.00  0.00    +0.000 OA
ATOM      2  O   UNL     1       6.056   1.851  -2.191  0.00  0.00    +0.000 OA
ATOM      3  C   UNL     1       7.216  -0.729  -4.188  0.00  0.00    +0.000 C 
ATOM      4  C   UNL     1       6.149  -0.140  -5.084  0.00  0.00    +0.000 C 
ATOM      5  C   UNL     1       5.264   0.581  -4.096  0.00  0.00    +0.000 C 
ATOM      6  C   UNL     1       6.246   0.996  -3.042  0.00  0.00    +0.000 C 
ATOM      7  H   UNL     1       6.864  -1.657  -3.722  0.00  0.00    +0.000 HD
ATOM      8  H   UNL     1       5.617  -0.895  -5.671  0.00  0.00    +0.000 HD
ATOM      9  H   UNL     1       6.581   0.588  -5.781  0.00  0.00    +0.000 HD
ATOM     10  H   UNL     1       4.779   1.449  -4.548  0.00  0.00    +0.000 HD
ATOM     11  H   UNL     1       4.522  -0.088  -3.650  0.00  0.00    +0.000 HD
ENDROOT
BRANCH   3  12
ATOM     12  C   UNL     1       8.536  -0.959  -4.899  0.00  0.00    +0.000 C 
ATOM     13  H   UNL     1       8.401  -1.686  -5.710  0.00  0.00    +0.000 HD
ATOM     14  H   UNL     1       8.894  -0.024  -5.347  0.00  0.00    +0.000 HD
BRANCH  12  15
ATOM     15  C   UNL     1       9.606  -1.468  -3.948  0.00  0.00    +0.000 C 
ATOM     16  H   UNL     1       9.165  -1.938  -3.063  0.00  0.00    +0.000 HD
ATOM     17  H   UNL     1      10.254  -2.202  -4.439  0.00  0.00    +0.000 HD
ATOM     18  H   UNL     1      10.234  -0.638  -3.608  0.00  0.00    +0.000 HD
ENDBRANCH  12  15
ENDBRANCH   3  12
TORSDOF 2
ENDMDL
MODEL 3
REMARK VINA RESULT:    -4.334      9.220      9.723
REMARK INTER + INTRA:          -4.789
REMARK INTER:                  -4.741
REMARK INTRA:                  -0.047
REMARK UNBOUND:                -0.074
REMARK  Name = 12756
REMARK  2 active torsions:
REMARK  status: ('A' for Active; 'I' for Inactive)
REMARK    1  A    between atoms: C_3  and  C_6
REMARK    2  A    between atoms: C_6  and  C_8
REMARK                            x       y       z     vdW  Elec       q    Type
REMARK                         _______ _______ _______ _____ _____    ______ ____
ROOT
ATOM      1  O   UNL     1       9.509   8.038  -2.468  0.00  0.00    +0.000 OA
ATOM      2  O   UNL     1       8.954   8.285  -0.256  0.00  0.00    +0.000 OA
ATOM      3  C   UNL     1      10.731   7.847  -3.195  0.00  0.00    +0.000 C 
ATOM      4  C   UNL     1      11.653   7.169  -2.208  0.00  0.00    +0.000 C 
ATOM      5  C   UNL     1      11.238   7.796  -0.899  0.00  0.00    +0.000 C 
ATOM      6  C   UNL     1       9.779   8.057  -1.127  0.00  0.00    +0.000 C 
ATOM      7  H   UNL     1      11.115   8.838  -3.469  0.00  0.00    +0.000 HD
ATOM      8  H   UNL     1      12.712   7.313  -2.440  0.00  0.00    +0.000 HD
ATOM      9  H   UNL     1      11.460   6.089  -2.170  0.00  0.00    +0.000 HD
ATOM     10  H   UNL     1      11.391   7.114  -0.059  0.00  0.00    +0.000 HD
ATOM     11  H   UNL     1      11.749   8.747  -0.723  0.00  0.00    +0.000 HD
ENDROOT
BRANCH   3  12
ATOM     12  C   UNL     1      10.467   7.019  -4.438  0.00  0.00    +0.000 C 
ATOM     13  H   UNL     1      11.348   7.033  -5.090  0.00  0.00    +0.000 HD
ATOM     14  H   UNL     1      10.274   5.974  -4.163  0.00  0.00    +0.000 HD
BRANCH  12  15
ATOM     15  C   UNL     1       9.266   7.533  -5.213  0.00  0.00    +0.000 C 
ATOM     16  H   UNL     1       8.449   7.818  -4.543  0.00  0.00    +0.000 HD
ATOM     17  H   UNL     1       9.532   8.405  -5.820  0.00  0.00    +0.000 HD
ATOM     18  H   UNL     1       8.890   6.756  -5.886  0.00  0.00    +0.000 HD
ENDBRANCH  12  15
ENDBRANCH   3  12
TORSDOF 2
ENDMDL
MODEL 4
REMARK VINA RESULT:    -4.249      9.055      9.536
REMARK INTER + INTRA:          -4.696
REMARK INTER:                  -4.612
REMARK INTRA:                  -0.084
REMARK UNBOUND:                -0.074
REMARK  Name = 12756
REMARK  2 active torsions:
REMARK  status: ('A' for Active; 'I' for Inactive)
REMARK    1  A    between atoms: C_3  and  C_6
REMARK    2  A    between atoms: C_6  and  C_8
REMARK                            x       y       z     vdW  Elec       q    Type
REMARK                         _______ _______ _______ _____ _____    ______ ____
ROOT
ATOM      1  O   UNL     1      11.103   8.414  -3.164  0.00  0.00    +0.000 OA
ATOM      2  O   UNL     1      11.687   7.771  -1.040  0.00  0.00    +0.000 OA
ATOM      3  C   UNL     1      11.185   7.817  -4.466  0.00  0.00    +0.000 C 
ATOM      4  C   UNL     1      11.157   6.329  -4.199  0.00  0.00    +0.000 C 
ATOM      5  C   UNL     1      11.904   6.223  -2.891  0.00  0.00    +0.000 C 
ATOM      6  C   UNL     1      11.558   7.523  -2.229  0.00  0.00    +0.000 C 
ATOM      7  H   UNL     1      12.143   8.114  -4.910  0.00  0.00    +0.000 HD
ATOM      8  H   UNL     1      11.608   5.740  -5.003  0.00  0.00    +0.000 HD
ATOM      9  H   UNL     1      10.128   5.976  -4.058  0.00  0.00    +0.000 HD
ATOM     10  H   UNL     1      11.559   5.373  -2.298  0.00  0.00    +0.000 HD
ATOM     11  H   UNL     1      12.986   6.177  -3.043  0.00  0.00    +0.000 HD
ENDROOT
BRANCH   3  12
ATOM     12  C   UNL     1      10.031   8.295  -5.325  0.00  0.00    +0.000 C 
ATOM     13  H   UNL     1       9.498   9.107  -4.816  0.00  0.00    +0.000 HD
ATOM     14  H   UNL     1      10.405   8.690  -6.278  0.00  0.00    +0.000 HD
BRANCH  12  15
ATOM     15  C   UNL     1       9.053   7.173  -5.630  0.00  0.00    +0.000 C 
ATOM     16  H   UNL     1       8.239   7.142  -4.899  0.00  0.00    +0.000 HD
ATOM     17  H   UNL     1       8.616   7.290  -6.626  0.00  0.00    +0.000 HD
ATOM     18  H   UNL     1       9.566   6.206  -5.598  0.00  0.00    +0.000 HD
ENDBRANCH  12  15
ENDBRANCH   3  12
TORSDOF 2
ENDMDL
MODEL 5
REMARK VINA RESULT:    -4.160      2.721      3.509
REMARK INTER + INTRA:          -4.599
REMARK INTER:                  -4.573
REMARK INTRA:                  -0.026
REMARK UNBOUND:                -0.074
REMARK  Name = 12756
REMARK  2 active torsions:
REMARK  status: ('A' for Active; 'I' for Inactive)
REMARK    1  A    between atoms: C_3  and  C_6
REMARK    2  A    between atoms: C_6  and  C_8
REMARK                            x       y       z     vdW  Elec       q    Type
REMARK                         _______ _______ _______ _____ _____    ______ ____
ROOT
ATOM      1  O   UNL     1       6.622  -0.362  -1.480  0.00  0.00    +0.000 OA
ATOM      2  O   UNL     1       5.647  -2.216  -2.417  0.00  0.00    +0.000 OA
ATOM      3  C   UNL     1       6.921   0.967  -1.930  0.00  0.00    +0.000 C 
ATOM      4  C   UNL     1       5.896   1.239  -3.008  0.00  0.00    +0.000 C 
ATOM      5  C   UNL     1       5.724  -0.123  -3.637  0.00  0.00    +0.000 C 
ATOM      6  C   UNL     1       5.962  -1.037  -2.472  0.00  0.00    +0.000 C 
ATOM      7  H   UNL     1       7.935   0.957  -2.351  0.00  0.00    +0.000 HD
ATOM      8  H   UNL     1       6.214   2.006  -3.719  0.00  0.00    +0.000 HD
ATOM      9  H   UNL     1       4.942   1.558  -2.569  0.00  0.00    +0.000 HD
ATOM     10  H   UNL     1       4.718  -0.255  -4.042  0.00  0.00    +0.000 HD
ATOM     11  H   UNL     1       6.479  -0.317  -4.403  0.00  0.00    +0.000 HD
ENDROOT
BRANCH   3  12
ATOM     12  C   UNL     1       6.840   1.935  -0.766  0.00  0.00    +0.000 C 
ATOM     13  H   UNL     1       6.296   2.838  -1.069  0.00  0.00    +0.000 HD
ATOM     14  H   UNL     1       6.291   1.480   0.068  0.00  0.00    +0.000 HD
BRANCH  12  15
ATOM     15  C   UNL     1       8.219   2.331  -0.265  0.00  0.00    +0.000 C 
ATOM     16  H   UNL     1       8.192   2.628   0.788  0.00  0.00    +0.000 HD
ATOM     17  H   UNL     1       8.929   1.504  -0.371  0.00  0.00    +0.000 HD
ATOM     18  H   UNL     1       8.600   3.180  -0.842  0.00  0.00    +0.000 HD
ENDBRANCH  12  15
ENDBRANCH   3  12
TORSDOF 2
ENDMDL
MODEL 6
REMARK VINA RESULT:    -3.857     15.784     16.316
REMARK INTER + INTRA:          -4.269
REMARK INTER:                  -4.202
REMARK INTRA:                  -0.066
REMARK UNBOUND:                -0.074
REMARK  Name = 12756
REMARK  2 active torsions:
REMARK  status: ('A' for Active; 'I' for Inactive)
REMARK    1  A    between atoms: C_3  and  C_6
REMARK    2  A    between atoms: C_6  and  C_8
REMARK                            x       y       z     vdW  Elec       q    Type
REMARK                         _______ _______ _______ _____ _____    ______ ____
ROOT
ATOM      1  O   UNL     1      -1.565 -14.507  -9.398  0.00  0.00    +0.000 OA
ATOM      2  O   UNL     1      -1.496 -14.672  -7.111  0.00  0.00    +0.000 OA
ATOM      3  C   UNL     1      -1.379 -13.447 -10.347  0.00  0.00    +0.000 C 
ATOM      4  C   UNL     1      -0.459 -12.472  -9.647  0.00  0.00    +0.000 C 
ATOM      5  C   UNL     1      -0.899 -12.595  -8.207  0.00  0.00    +0.000 C 
ATOM      6  C   UNL     1      -1.336 -14.028  -8.136  0.00  0.00    +0.000 C 
ATOM      7  H   UNL     1      -2.358 -12.991 -10.536  0.00  0.00    +0.000 HD
ATOM      8  H   UNL     1      -0.536 -11.453 -10.036  0.00  0.00    +0.000 HD
ATOM      9  H   UNL     1       0.587 -12.790  -9.733  0.00  0.00    +0.000 HD
ATOM     10  H   UNL     1      -0.077 -12.398  -7.517  0.00  0.00    +0.000 HD
ATOM     11  H   UNL     1      -1.754 -11.950  -7.986  0.00  0.00    +0.000 HD
ENDROOT
BRANCH   3  12
ATOM     12  C   UNL     1      -0.796 -14.004 -11.632  0.00  0.00    +0.000 C 
ATOM     13  H   UNL     1      -0.373 -14.999 -11.450  0.00  0.00    +0.000 HD
ATOM     14  H   UNL     1      -1.582 -14.111 -12.390  0.00  0.00    +0.000 HD
BRANCH  12  15
ATOM     15  C   UNL     1       0.286 -13.099 -12.198  0.00  0.00    +0.000 C 
ATOM     16  H   UNL     1      -0.143 -12.217 -12.683  0.00  0.00    +0.000 HD
ATOM     17  H   UNL     1       0.968 -12.762 -11.412  0.00  0.00    +0.000 HD
ATOM     18  H   UNL     1       0.875 -13.639 -12.947  0.00  0.00    +0.000 HD
ENDBRANCH  12  15
ENDBRANCH   3  12
TORSDOF 2
ENDMDL
MODEL 7
REMARK VINA RESULT:    -3.750     22.938     23.807
REMARK INTER + INTRA:          -4.153
REMARK INTER:                  -4.109
REMARK INTRA:                  -0.045
REMARK UNBOUND:                -0.074
REMARK  Name = 12756
REMARK  2 active torsions:
REMARK  status: ('A' for Active; 'I' for Inactive)
REMARK    1  A    between atoms: C_3  and  C_6
REMARK    2  A    between atoms: C_6  and  C_8
REMARK                            x       y       z     vdW  Elec       q    Type
REMARK                         _______ _______ _______ _____ _____    ______ ____
ROOT
ATOM      1  O   UNL     1       5.791  -9.129 -24.833  0.00  0.00    +0.000 OA
ATOM      2  O   UNL     1       3.720  -8.416 -24.149  0.00  0.00    +0.000 OA
ATOM      3  C   UNL     1       6.429 -10.405 -24.983  0.00  0.00    +0.000 C 
ATOM      4  C   UNL     1       5.290 -11.368 -25.230  0.00  0.00    +0.000 C 
ATOM      5  C   UNL     1       4.186 -10.783 -24.381  0.00  0.00    +0.000 C 
ATOM      6  C   UNL     1       4.493  -9.316 -24.438  0.00  0.00    +0.000 C 
ATOM      7  H   UNL     1       6.938 -10.638 -24.040  0.00  0.00    +0.000 HD
ATOM      8  H   UNL     1       5.535 -12.401 -24.967  0.00  0.00    +0.000 HD
ATOM      9  H   UNL     1       4.983 -11.351 -26.283  0.00  0.00    +0.000 HD
ATOM     10  H   UNL     1       3.200 -10.997 -24.799  0.00  0.00    +0.000 HD
ATOM     11  H   UNL     1       4.249 -11.121 -23.343  0.00  0.00    +0.000 HD
ENDROOT
BRANCH   3  12
ATOM     12  C   UNL     1       7.426 -10.351 -26.125  0.00  0.00    +0.000 C 
ATOM     13  H   UNL     1       6.928 -10.008 -27.039  0.00  0.00    +0.000 HD
ATOM     14  H   UNL     1       8.227  -9.636 -25.895  0.00  0.00    +0.000 HD
BRANCH  12  15
ATOM     15  C   UNL     1       8.062 -11.706 -26.382  0.00  0.00    +0.000 C 
ATOM     16  H   UNL     1       8.198 -11.887 -27.453  0.00  0.00    +0.000 HD
ATOM     17  H   UNL     1       9.039 -11.783 -25.894  0.00  0.00    +0.000 HD
ATOM     18  H   UNL     1       7.424 -12.503 -25.987  0.00  0.00    +0.000 HD
ENDBRANCH  12  15
ENDBRANCH   3  12
TORSDOF 2
ENDMDL
MODEL 8
REMARK VINA RESULT:    -3.745     23.054     23.947
REMARK INTER + INTRA:          -4.147
REMARK INTER:                  -4.079
REMARK INTRA:                  -0.068
REMARK UNBOUND:                -0.074
REMARK  Name = 12756
REMARK  2 active torsions:
REMARK  status: ('A' for Active; 'I' for Inactive)
REMARK    1  A    between atoms: C_3  and  C_6
REMARK    2  A    between atoms: C_6  and  C_8
REMARK                            x       y       z     vdW  Elec       q    Type
REMARK                         _______ _______ _______ _____ _____    ______ ____
ROOT
ATOM      1  O   UNL     1       4.606 -11.451 -24.840  0.00  0.00    +0.000 OA
ATOM      2  O   UNL     1       3.057 -10.132 -23.779  0.00  0.00    +0.000 OA
ATOM      3  C   UNL     1       5.844 -11.215 -25.524  0.00  0.00    +0.000 C 
ATOM      4  C   UNL     1       6.379  -9.943 -24.906  0.00  0.00    +0.000 C 
ATOM      5  C   UNL     1       5.114  -9.169 -24.621  0.00  0.00    +0.000 C 
ATOM      6  C   UNL     1       4.133 -10.267 -24.340  0.00  0.00    +0.000 C 
ATOM      7  H   UNL     1       5.616 -11.065 -26.587  0.00  0.00    +0.000 HD
ATOM      8  H   UNL     1       7.076  -9.408 -25.557  0.00  0.00    +0.000 HD
ATOM      9  H   UNL     1       6.895 -10.155 -23.960  0.00  0.00    +0.000 HD
ATOM     10  H   UNL     1       5.230  -8.512 -23.756  0.00  0.00    +0.000 HD
ATOM     11  H   UNL     1       4.778  -8.604 -25.495  0.00  0.00    +0.000 HD
ENDROOT
BRANCH   3  12
ATOM     12  C   UNL     1       6.767 -12.405 -25.344  0.00  0.00    +0.000 C 
ATOM     13  H   UNL     1       7.269 -12.635 -26.291  0.00  0.00    +0.000 HD
ATOM     14  H   UNL     1       7.544 -12.174 -24.604  0.00  0.00    +0.000 HD
BRANCH  12  15
ATOM     15  C   UNL     1       6.013 -13.636 -24.868  0.00  0.00    +0.000 C 
ATOM     16  H   UNL     1       5.548 -14.167 -25.704  0.00  0.00    +0.000 HD
ATOM     17  H   UNL     1       6.681 -14.330 -24.348  0.00  0.00    +0.000 HD
ATOM     18  H   UNL     1       5.219 -13.346 -24.172  0.00  0.00    +0.000 HD
ENDBRANCH  12  15
ENDBRANCH   3  12
TORSDOF 2
ENDMDL
MODEL 9
REMARK VINA RESULT:    -3.737     21.236     22.097
REMARK INTER + INTRA:          -4.138
REMARK INTER:                  -4.041
REMARK INTRA:                  -0.098
REMARK UNBOUND:                -0.074
REMARK  Name = 12756
REMARK  2 active torsions:
REMARK  status: ('A' for Active; 'I' for Inactive)
REMARK    1  A    between atoms: C_3  and  C_6
REMARK    2  A    between atoms: C_6  and  C_8
REMARK                            x       y       z     vdW  Elec       q    Type
REMARK                         _______ _______ _______ _____ _____    ______ ____
ROOT
ATOM      1  O   UNL     1      -2.767   9.904  12.998  0.00  0.00    +0.000 OA
ATOM      2  O   UNL     1      -1.387   9.411  11.233  0.00  0.00    +0.000 OA
ATOM      3  C   UNL     1      -3.520   9.134  13.946  0.00  0.00    +0.000 C 
ATOM      4  C   UNL     1      -2.773   7.823  14.044  0.00  0.00    +0.000 C 
ATOM      5  C   UNL     1      -2.263   7.639  12.634  0.00  0.00    +0.000 C 
ATOM      6  C   UNL     1      -2.058   9.056  12.190  0.00  0.00    +0.000 C 
ATOM      7  H   UNL     1      -4.523   8.980  13.530  0.00  0.00    +0.000 HD
ATOM      8  H   UNL     1      -3.400   6.995  14.388  0.00  0.00    +0.000 HD
ATOM      9  H   UNL     1      -1.920   7.908  14.729  0.00  0.00    +0.000 HD
ATOM     10  H   UNL     1      -1.326   7.079  12.615  0.00  0.00    +0.000 HD
ATOM     11  H   UNL     1      -3.010   7.167  11.990  0.00  0.00    +0.000 HD
ENDROOT
BRANCH   3  12
ATOM     12  C   UNL     1      -3.601   9.878  15.265  0.00  0.00    +0.000 C 
ATOM     13  H   UNL     1      -3.631  10.959  15.082  0.00  0.00    +0.000 HD
ATOM     14  H   UNL     1      -4.520   9.606  15.799  0.00  0.00    +0.000 HD
BRANCH  12  15
ATOM     15  C   UNL     1      -2.419   9.559  16.166  0.00  0.00    +0.000 C 
ATOM     16  H   UNL     1      -2.502  10.068  17.130  0.00  0.00    +0.000 HD
ATOM     17  H   UNL     1      -2.344   8.483  16.350  0.00  0.00    +0.000 HD
ATOM     18  H   UNL     1      -1.487   9.886  15.694  0.00  0.00    +0.000 HD
ENDBRANCH  12  15
ENDBRANCH   3  12
TORSDOF 2
ENDMDL
MODEL 10
REMARK VINA RESULT:    -3.640     15.340     15.947
REMARK INTER + INTRA:          -4.033
REMARK INTER:                  -3.959
REMARK INTRA:                  -0.074
REMARK UNBOUND:                -0.074
REMARK  Name = 12756
REMARK  2 active torsions:
REMARK  status: ('A' for Active; 'I' for Inactive)
REMARK    1  A    between atoms: C_3  and  C_6
REMARK    2  A    between atoms: C_6  and  C_8
REMARK                            x       y       z     vdW  Elec       q    Type
REMARK                         _______ _______ _______ _____ _____    ______ ____
ROOT
ATOM      1  O   UNL     1      -1.594 -13.814  -7.821  0.00  0.00    +0.000 OA
ATOM      2  O   UNL     1      -0.808 -12.755  -5.944  0.00  0.00    +0.000 OA
ATOM      3  C   UNL     1      -1.605 -13.520  -9.225  0.00  0.00    +0.000 C 
ATOM      4  C   UNL     1      -0.404 -12.626  -9.431  0.00  0.00    +0.000 C 
ATOM      5  C   UNL     1      -0.365 -11.839  -8.143  0.00  0.00    +0.000 C 
ATOM      6  C   UNL     1      -0.916 -12.827  -7.158  0.00  0.00    +0.000 C 
ATOM      7  H   UNL     1      -2.534 -12.981  -9.447  0.00  0.00    +0.000 HD
ATOM      8  H   UNL     1      -0.485 -11.995 -10.321  0.00  0.00    +0.000 HD
ATOM      9  H   UNL     1       0.515 -13.219  -9.521  0.00  0.00    +0.000 HD
ATOM     10  H   UNL     1       0.654 -11.546  -7.881  0.00  0.00    +0.000 HD
ATOM     11  H   UNL     1      -1.023 -10.966  -8.179  0.00  0.00    +0.000 HD
ENDROOT
BRANCH   3  12
ATOM     12  C   UNL     1      -1.537 -14.810 -10.021  0.00  0.00    +0.000 C 
ATOM     13  H   UNL     1      -2.358 -14.843 -10.748  0.00  0.00    +0.000 HD
ATOM     14  H   UNL     1      -0.596 -14.860 -10.582  0.00  0.00    +0.000 HD
BRANCH  12  15
ATOM     15  C   UNL     1      -1.619 -16.032  -9.122  0.00  0.00    +0.000 C 
ATOM     16  H   UNL     1      -2.600 -16.111  -8.643  0.00  0.00    +0.000 HD
ATOM     17  H   UNL     1      -1.438 -16.951  -9.689  0.00  0.00    +0.000 HD
ATOM     18  H   UNL     1      -0.864 -15.969  -8.332  0.00  0.00    +0.000 HD
ENDBRANCH  12  15
ENDBRANCH   3  12
TORSDOF 2
ENDMDL
