MODEL 1
REMARK VINA RESULT:    -5.286      0.000      0.000
REMARK INTER + INTRA:          -7.590
REMARK INTER:                  -7.320
REMARK INTRA:                  -0.271
REMARK UNBOUND:                -0.295
REMARK  Name = 443157
REMARK  8 active torsions:
REMARK  status: ('A' for Active; 'I' for Inactive)
REMARK    1  A    between atoms: C_2  and  C_3
REMARK    2  A    between atoms: C_2  and  C_5
REMARK    3  A    between atoms: C_2  and  C_6
REMARK    4  A    between atoms: C_3  and  C_4
REMARK    5  A    between atoms: C_4  and  C_7
REMARK    6  A    between atoms: C_5  and  C_9
REMARK    7  A    between atoms: C_8  and  C_10
REMARK    8  A    between atoms: C_8  and  C_11
REMARK                            x       y       z     vdW  Elec       q    Type
REMARK                         _______ _______ _______ _____ _____    ______ ____
ROOT
ATOM      1  C   UNL     1       7.457   1.680  -1.161  0.00  0.00    +0.000 C 
ATOM      2  H   UNL     1       7.771   2.266  -2.036  0.00  0.00    +0.000 HD
ATOM      3  H   UNL     1       8.337   1.108  -0.840  0.00  0.00    +0.000 HD
ENDROOT
BRANCH   1   4
ATOM      4  C   UNL     1       6.346   0.709  -1.571  0.00  0.00    +0.000 C 
ATOM      5  H   UNL     1       6.639  -0.326  -1.366  0.00  0.00    +0.000 HD
ATOM      6  H   UNL     1       5.444   0.884  -0.973  0.00  0.00    +0.000 HD
BRANCH   4   7
ATOM      7  C   UNL     1       5.961   0.904  -3.011  0.00  0.00    +0.000 C 
ATOM      8  C   UNL     1       5.918  -0.027  -3.984  0.00  0.00    +0.000 C 
ATOM      9  H   UNL     1       5.699   1.926  -3.279  0.00  0.00    +0.000 HD
BRANCH   8  10
ATOM     10  C   UNL     1       5.523   0.234  -5.409  0.00  0.00    +0.000 C 
ATOM     11  H   UNL     1       4.444   0.120  -5.556  0.00  0.00    +0.000 HD
ATOM     12  H   UNL     1       5.793   1.253  -5.701  0.00  0.00    +0.000 HD
ATOM     13  H   UNL     1       6.028  -0.469  -6.080  0.00  0.00    +0.000 HD
ENDBRANCH   8  10
BRANCH   8  14
ATOM     14  C   UNL     1       6.295  -1.454  -3.692  0.00  0.00    +0.000 C 
ATOM     15  H   UNL     1       6.658  -1.937  -4.606  0.00  0.00    +0.000 HD
ATOM     16  H   UNL     1       5.416  -2.008  -3.342  0.00  0.00    +0.000 HD
ATOM     17  H   UNL     1       7.084  -1.574  -2.947  0.00  0.00    +0.000 HD
ENDBRANCH   8  14
ENDBRANCH   4   7
ENDBRANCH   1   4
BRANCH   1  18
ATOM     18  C   UNL     1       7.050   2.639  -0.021  0.00  0.00    +0.000 C 
ATOM     19  H   UNL     1       6.695   2.047   0.833  0.00  0.00    +0.000 HD
BRANCH  18  20
ATOM     20  C   UNL     1       5.914   3.576  -0.450  0.00  0.00    +0.000 C 
ATOM     21  H   UNL     1       6.075   4.594  -0.081  0.00  0.00    +0.000 HD
ATOM     22  H   UNL     1       5.846   3.650  -1.541  0.00  0.00    +0.000 HD
ATOM     23  H   UNL     1       4.947   3.225  -0.073  0.00  0.00    +0.000 HD
ENDBRANCH  18  20
BRANCH  18  24
ATOM     24  C   UNL     1       8.279   3.450   0.424  0.00  0.00    +0.000 C 
ATOM     25  H   UNL     1       8.885   3.733  -0.446  0.00  0.00    +0.000 HD
ATOM     26  H   UNL     1       8.912   2.844   1.082  0.00  0.00    +0.000 HD
BRANCH  24  28
ATOM     27  O   UNL     1       8.366   5.831   0.915  0.00  0.00    +0.000 OA
ATOM     28  C   UNL     1       7.942   4.713   1.185  0.00  0.00    +0.000 C 
ATOM     29  H   UNL     1       7.275   4.568   2.053  0.00  0.00    +0.000 HD
ENDBRANCH  24  28
ENDBRANCH  18  24
ENDBRANCH   1  18
TORSDOF 8
ENDMDL
MODEL 2
REMARK VINA RESULT:    -5.017      3.133      5.884
REMARK INTER + INTRA:          -7.218
REMARK INTER:                  -6.969
REMARK INTRA:                  -0.249
REMARK UNBOUND:                -0.295
REMARK  Name = 443157
REMARK  8 active torsions:
REMARK  status: ('A' for Active; 'I' for Inactive)
REMARK    1  A    between atoms: C_2  and  C_3
REMARK    2  A    between atoms: C_2  and  C_5
REMARK    3  A    between atoms: C_2  and  C_6
REMARK    4  A    between atoms: C_3  and  C_4
REMARK    5  A    between atoms: C_4  and  C_7
REMARK    6  A    between atoms: C_5  and  C_9
REMARK    7  A    between atoms: C_8  and  C_10
REMARK    8  A    between atoms: C_8  and  C_11
REMARK                            x       y       z     vdW  Elec       q    Type
REMARK                         _______ _______ _______ _____ _____    ______ ____
ROOT
ATOM      1  C   UNL     1       6.078   1.280  -2.704  0.00  0.00    +0.000 C 
ATOM      2  H   UNL     1       6.283   2.289  -3.088  0.00  0.00    +0.000 HD
ATOM      3  H   UNL     1       4.997   1.124  -2.808  0.00  0.00    +0.000 HD
ENDROOT
BRANCH   1   4
ATOM      4  C   UNL     1       6.457   1.214  -1.222  0.00  0.00    +0.000 C 
ATOM      5  H   UNL     1       5.696   0.673  -0.650  0.00  0.00    +0.000 HD
ATOM      6  H   UNL     1       7.385   0.646  -1.089  0.00  0.00    +0.000 HD
BRANCH   4   7
ATOM      7  C   UNL     1       6.701   2.588  -0.663  0.00  0.00    +0.000 C 
ATOM      8  C   UNL     1       7.770   3.012   0.039  0.00  0.00    +0.000 C 
ATOM      9  H   UNL     1       5.904   3.305  -0.852  0.00  0.00    +0.000 HD
BRANCH   8  10
ATOM     10  C   UNL     1       7.955   4.405   0.571  0.00  0.00    +0.000 C 
ATOM     11  H   UNL     1       8.227   5.107  -0.224  0.00  0.00    +0.000 HD
ATOM     12  H   UNL     1       7.029   4.764   1.032  0.00  0.00    +0.000 HD
ATOM     13  H   UNL     1       8.750   4.423   1.322  0.00  0.00    +0.000 HD
ENDBRANCH   8  10
BRANCH   8  14
ATOM     14  C   UNL     1       8.895   2.066   0.362  0.00  0.00    +0.000 C 
ATOM     15  H   UNL     1       9.857   2.560   0.183  0.00  0.00    +0.000 HD
ATOM     16  H   UNL     1       8.841   1.185  -0.288  0.00  0.00    +0.000 HD
ATOM     17  H   UNL     1       8.916   1.718   1.396  0.00  0.00    +0.000 HD
ENDBRANCH   8  14
ENDBRANCH   4   7
ENDBRANCH   1   4
BRANCH   1  18
ATOM     18  C   UNL     1       6.813   0.240  -3.577  0.00  0.00    +0.000 C 
ATOM     19  H   UNL     1       7.771   0.664  -3.905  0.00  0.00    +0.000 HD
BRANCH  18  20
ATOM     20  C   UNL     1       6.004  -0.121  -4.828  0.00  0.00    +0.000 C 
ATOM     21  H   UNL     1       6.390   0.390  -5.716  0.00  0.00    +0.000 HD
ATOM     22  H   UNL     1       6.055  -1.194  -5.042  0.00  0.00    +0.000 HD
ATOM     23  H   UNL     1       4.949   0.150  -4.710  0.00  0.00    +0.000 HD
ENDBRANCH  18  20
BRANCH  18  24
ATOM     24  C   UNL     1       7.097  -1.017  -2.738  0.00  0.00    +0.000 C 
ATOM     25  H   UNL     1       7.436  -0.737  -1.733  0.00  0.00    +0.000 HD
ATOM     26  H   UNL     1       7.897  -1.606  -3.201  0.00  0.00    +0.000 HD
BRANCH  24  28
ATOM     27  O   UNL     1       5.971  -3.162  -2.514  0.00  0.00    +0.000 OA
ATOM     28  C   UNL     1       5.909  -1.939  -2.586  0.00  0.00    +0.000 C 
ATOM     29  H   UNL     1       4.928  -1.433  -2.562  0.00  0.00    +0.000 HD
ENDBRANCH  24  28
ENDBRANCH  18  24
ENDBRANCH   1  18
TORSDOF 8
ENDMDL
MODEL 3
REMARK VINA RESULT:    -4.954      3.337      4.448
REMARK INTER + INTRA:          -7.131
REMARK INTER:                  -6.465
REMARK INTRA:                  -0.666
REMARK UNBOUND:                -0.295
REMARK  Name = 443157
REMARK  8 active torsions:
REMARK  status: ('A' for Active; 'I' for Inactive)
REMARK    1  A    between atoms: C_2  and  C_3
REMARK    2  A    between atoms: C_2  and  C_5
REMARK    3  A    between atoms: C_2  and  C_6
REMARK    4  A    between atoms: C_3  and  C_4
REMARK    5  A    between atoms: C_4  and  C_7
REMARK    6  A    between atoms: C_5  and  C_9
REMARK    7  A    between atoms: C_8  and  C_10
REMARK    8  A    between atoms: C_8  and  C_11
REMARK                            x       y       z     vdW  Elec       q    Type
REMARK                         _______ _______ _______ _____ _____    ______ ____
ROOT
ATOM      1  C   UNL     1       8.326   0.565  -1.231  0.00  0.00    +0.000 C 
ATOM      2  H   UNL     1       8.955   1.066  -0.482  0.00  0.00    +0.000 HD
ATOM      3  H   UNL     1       8.787   0.766  -2.207  0.00  0.00    +0.000 HD
ENDROOT
BRANCH   1   4
ATOM      4  C   UNL     1       6.921   1.174  -1.203  0.00  0.00    +0.000 C 
ATOM      5  H   UNL     1       6.264   0.607  -0.536  0.00  0.00    +0.000 HD
ATOM      6  H   UNL     1       6.952   2.190  -0.792  0.00  0.00    +0.000 HD
BRANCH   4   7
ATOM      7  C   UNL     1       6.349   1.281  -2.589  0.00  0.00    +0.000 C 
ATOM      8  C   UNL     1       5.596   0.373  -3.239  0.00  0.00    +0.000 C 
ATOM      9  H   UNL     1       6.592   2.204  -3.113  0.00  0.00    +0.000 HD
BRANCH   8  10
ATOM     10  C   UNL     1       5.053   0.541  -4.630  0.00  0.00    +0.000 C 
ATOM     11  H   UNL     1       4.046   0.970  -4.620  0.00  0.00    +0.000 HD
ATOM     12  H   UNL     1       5.695   1.208  -5.214  0.00  0.00    +0.000 HD
ATOM     13  H   UNL     1       4.999  -0.428  -5.138  0.00  0.00    +0.000 HD
ENDBRANCH   8  10
BRANCH   8  14
ATOM     14  C   UNL     1       5.246  -0.937  -2.587  0.00  0.00    +0.000 C 
ATOM     15  H   UNL     1       4.833  -0.756  -1.589  0.00  0.00    +0.000 HD
ATOM     16  H   UNL     1       6.147  -1.551  -2.475  0.00  0.00    +0.000 HD
ATOM     17  H   UNL     1       4.502  -1.530  -3.124  0.00  0.00    +0.000 HD
ENDBRANCH   8  14
ENDBRANCH   4   7
ENDBRANCH   1   4
BRANCH   1  18
ATOM     18  C   UNL     1       8.344  -0.958  -0.981  0.00  0.00    +0.000 C 
ATOM     19  H   UNL     1       7.312  -1.333  -0.992  0.00  0.00    +0.000 HD
BRANCH  18  20
ATOM     20  C   UNL     1       8.956  -1.300   0.383  0.00  0.00    +0.000 C 
ATOM     21  H   UNL     1       9.691  -2.106   0.301  0.00  0.00    +0.000 HD
ATOM     22  H   UNL     1       9.487  -0.441   0.810  0.00  0.00    +0.000 HD
ATOM     23  H   UNL     1       8.186  -1.611   1.097  0.00  0.00    +0.000 HD
ENDBRANCH  18  20
BRANCH  18  24
ATOM     24  C   UNL     1       9.126  -1.649  -2.111  0.00  0.00    +0.000 C 
ATOM     25  H   UNL     1       8.635  -2.587  -2.398  0.00  0.00    +0.000 HD
ATOM     26  H   UNL     1      10.137  -1.900  -1.770  0.00  0.00    +0.000 HD
BRANCH  24  28
ATOM     27  O   UNL     1       8.676  -0.984  -4.407  0.00  0.00    +0.000 OA
ATOM     28  C   UNL     1       9.283  -0.807  -3.357  0.00  0.00    +0.000 C 
ATOM     29  H   UNL     1      10.024   0.008  -3.276  0.00  0.00    +0.000 HD
ENDBRANCH  24  28
ENDBRANCH  18  24
ENDBRANCH   1  18
TORSDOF 8
ENDMDL
MODEL 4
REMARK VINA RESULT:    -4.853      2.558      3.045
REMARK INTER + INTRA:          -6.992
REMARK INTER:                  -6.633
REMARK INTRA:                  -0.359
REMARK UNBOUND:                -0.295
REMARK  Name = 443157
REMARK  8 active torsions:
REMARK  status: ('A' for Active; 'I' for Inactive)
REMARK    1  A    between atoms: C_2  and  C_3
REMARK    2  A    between atoms: C_2  and  C_5
REMARK    3  A    between atoms: C_2  and  C_6
REMARK    4  A    between atoms: C_3  and  C_4
REMARK    5  A    between atoms: C_4  and  C_7
REMARK    6  A    between atoms: C_5  and  C_9
REMARK    7  A    between atoms: C_8  and  C_10
REMARK    8  A    between atoms: C_8  and  C_11
REMARK                            x       y       z     vdW  Elec       q    Type
REMARK                         _______ _______ _______ _____ _____    ______ ____
ROOT
ATOM      1  C   UNL     1       7.191   1.300  -1.710  0.00  0.00    +0.000 C 
ATOM      2  H   UNL     1       7.151   2.206  -2.330  0.00  0.00    +0.000 HD
ATOM      3  H   UNL     1       8.142   0.805  -1.945  0.00  0.00    +0.000 HD
ENDROOT
BRANCH   1   4
ATOM      4  C   UNL     1       6.033   0.372  -2.091  0.00  0.00    +0.000 C 
ATOM      5  H   UNL     1       6.327  -0.678  -1.993  0.00  0.00    +0.000 HD
ATOM      6  H   UNL     1       5.191   0.508  -1.403  0.00  0.00    +0.000 HD
BRANCH   4   7
ATOM      7  C   UNL     1       5.523   0.681  -3.471  0.00  0.00    +0.000 C 
ATOM      8  C   UNL     1       5.775   0.007  -4.610  0.00  0.00    +0.000 C 
ATOM      9  H   UNL     1       4.886   1.562  -3.536  0.00  0.00    +0.000 HD
BRANCH   8  10
ATOM     10  C   UNL     1       5.232   0.368  -5.963  0.00  0.00    +0.000 C 
ATOM     11  H   UNL     1       5.242  -0.489  -6.644  0.00  0.00    +0.000 HD
ATOM     12  H   UNL     1       4.197   0.717  -5.880  0.00  0.00    +0.000 HD
ATOM     13  H   UNL     1       5.834   1.163  -6.416  0.00  0.00    +0.000 HD
ENDBRANCH   8  10
BRANCH   8  14
ATOM     14  C   UNL     1       6.670  -1.203  -4.600  0.00  0.00    +0.000 C 
ATOM     15  H   UNL     1       6.103  -2.087  -4.912  0.00  0.00    +0.000 HD
ATOM     16  H   UNL     1       7.045  -1.381  -3.585  0.00  0.00    +0.000 HD
ATOM     17  H   UNL     1       7.531  -1.138  -5.268  0.00  0.00    +0.000 HD
ENDBRANCH   8  14
ENDBRANCH   4   7
ENDBRANCH   1   4
BRANCH   1  18
ATOM     18  C   UNL     1       7.198   1.699  -0.219  0.00  0.00    +0.000 C 
ATOM     19  H   UNL     1       6.369   2.395  -0.033  0.00  0.00    +0.000 HD
BRANCH  18  20
ATOM     20  C   UNL     1       8.502   2.404   0.172  0.00  0.00    +0.000 C 
ATOM     21  H   UNL     1       8.866   3.048  -0.635  0.00  0.00    +0.000 HD
ATOM     22  H   UNL     1       8.362   3.051   1.045  0.00  0.00    +0.000 HD
ATOM     23  H   UNL     1       9.288   1.679   0.411  0.00  0.00    +0.000 HD
ENDBRANCH  18  20
BRANCH  18  24
ATOM     24  C   UNL     1       6.984   0.443   0.644  0.00  0.00    +0.000 C 
ATOM     25  H   UNL     1       6.240  -0.216   0.181  0.00  0.00    +0.000 HD
ATOM     26  H   UNL     1       6.602   0.727   1.632  0.00  0.00    +0.000 HD
BRANCH  24  28
ATOM     27  O   UNL     1       8.542  -1.387   0.271  0.00  0.00    +0.000 OA
ATOM     28  C   UNL     1       8.240  -0.365   0.878  0.00  0.00    +0.000 C 
ATOM     29  H   UNL     1       8.898   0.019   1.677  0.00  0.00    +0.000 HD
ENDBRANCH  24  28
ENDBRANCH  18  24
ENDBRANCH   1  18
TORSDOF 8
ENDMDL
MODEL 5
REMARK VINA RESULT:    -4.686      3.487      4.105
REMARK INTER + INTRA:          -6.762
REMARK INTER:                  -6.199
REMARK INTRA:                  -0.563
REMARK UNBOUND:                -0.295
REMARK  Name = 443157
REMARK  8 active torsions:
REMARK  status: ('A' for Active; 'I' for Inactive)
REMARK    1  A    between atoms: C_2  and  C_3
REMARK    2  A    between atoms: C_2  and  C_5
REMARK    3  A    between atoms: C_2  and  C_6
REMARK    4  A    between atoms: C_3  and  C_4
REMARK    5  A    between atoms: C_4  and  C_7
REMARK    6  A    between atoms: C_5  and  C_9
REMARK    7  A    between atoms: C_8  and  C_10
REMARK    8  A    between atoms: C_8  and  C_11
REMARK                            x       y       z     vdW  Elec       q    Type
REMARK                         _______ _______ _______ _____ _____    ______ ____
ROOT
ATOM      1  C   UNL     1       9.410   0.183  -1.934  0.00  0.00    +0.000 C 
ATOM      2  H   UNL     1       9.528   1.231  -2.242  0.00  0.00    +0.000 HD
ATOM      3  H   UNL     1      10.424  -0.214  -1.792  0.00  0.00    +0.000 HD
ENDROOT
BRANCH   1   4
ATOM      4  C   UNL     1       8.715  -0.601  -3.051  0.00  0.00    +0.000 C 
ATOM      5  H   UNL     1       9.399  -0.777  -3.887  0.00  0.00    +0.000 HD
ATOM      6  H   UNL     1       8.421  -1.595  -2.695  0.00  0.00    +0.000 HD
BRANCH   4   7
ATOM      7  C   UNL     1       7.458   0.092  -3.497  0.00  0.00    +0.000 C 
ATOM      8  C   UNL     1       6.187  -0.320  -3.328  0.00  0.00    +0.000 C 
ATOM      9  H   UNL     1       7.617   1.032  -4.024  0.00  0.00    +0.000 HD
BRANCH   8  10
ATOM     10  C   UNL     1       4.969   0.422  -3.799  0.00  0.00    +0.000 C 
ATOM     11  H   UNL     1       4.051  -0.005  -3.384  0.00  0.00    +0.000 HD
ATOM     12  H   UNL     1       5.018   1.472  -3.491  0.00  0.00    +0.000 HD
ATOM     13  H   UNL     1       4.895   0.380  -4.890  0.00  0.00    +0.000 HD
ENDBRANCH   8  10
BRANCH   8  14
ATOM     14  C   UNL     1       5.893  -1.623  -2.634  0.00  0.00    +0.000 C 
ATOM     15  H   UNL     1       5.012  -2.093  -3.084  0.00  0.00    +0.000 HD
ATOM     16  H   UNL     1       5.676  -1.440  -1.575  0.00  0.00    +0.000 HD
ATOM     17  H   UNL     1       6.697  -2.360  -2.688  0.00  0.00    +0.000 HD
ENDBRANCH   8  14
ENDBRANCH   4   7
ENDBRANCH   1   4
BRANCH   1  18
ATOM     18  C   UNL     1       8.664   0.127  -0.583  0.00  0.00    +0.000 C 
ATOM     19  H   UNL     1       7.617   0.416  -0.742  0.00  0.00    +0.000 HD
BRANCH  18  20
ATOM     20  C   UNL     1       9.272   1.095   0.439  0.00  0.00    +0.000 C 
ATOM     21  H   UNL     1       9.182   2.134   0.108  0.00  0.00    +0.000 HD
ATOM     22  H   UNL     1       8.758   1.032   1.405  0.00  0.00    +0.000 HD
ATOM     23  H   UNL     1      10.333   0.880   0.606  0.00  0.00    +0.000 HD
ENDBRANCH  18  20
BRANCH  18  24
ATOM     24  C   UNL     1       8.696  -1.314  -0.045  0.00  0.00    +0.000 C 
ATOM     25  H   UNL     1       9.307  -1.952  -0.696  0.00  0.00    +0.000 HD
ATOM     26  H   UNL     1       7.683  -1.733  -0.032  0.00  0.00    +0.000 HD
BRANCH  24  28
ATOM     27  O   UNL     1       9.769  -2.437   1.827  0.00  0.00    +0.000 OA
ATOM     28  C   UNL     1       9.236  -1.436   1.362  0.00  0.00    +0.000 C 
ATOM     29  H   UNL     1       9.104  -0.536   1.989  0.00  0.00    +0.000 HD
ENDBRANCH  24  28
ENDBRANCH  18  24
ENDBRANCH   1  18
TORSDOF 8
ENDMDL
MODEL 6
REMARK VINA RESULT:    -4.640      2.863      5.245
REMARK INTER + INTRA:          -6.698
REMARK INTER:                  -6.111
REMARK INTRA:                  -0.587
REMARK UNBOUND:                -0.295
REMARK  Name = 443157
REMARK  8 active torsions:
REMARK  status: ('A' for Active; 'I' for Inactive)
REMARK    1  A    between atoms: C_2  and  C_3
REMARK    2  A    between atoms: C_2  and  C_5
REMARK    3  A    between atoms: C_2  and  C_6
REMARK    4  A    between atoms: C_3  and  C_4
REMARK    5  A    between atoms: C_4  and  C_7
REMARK    6  A    between atoms: C_5  and  C_9
REMARK    7  A    between atoms: C_8  and  C_10
REMARK    8  A    between atoms: C_8  and  C_11
REMARK                            x       y       z     vdW  Elec       q    Type
REMARK                         _______ _______ _______ _____ _____    ______ ____
ROOT
ATOM      1  C   UNL     1       6.442  -0.169  -1.148  0.00  0.00    +0.000 C 
ATOM      2  H   UNL     1       5.346  -0.239  -1.160  0.00  0.00    +0.000 HD
ATOM      3  H   UNL     1       6.820  -1.191  -1.280  0.00  0.00    +0.000 HD
ENDROOT
BRANCH   1   4
ATOM      4  C   UNL     1       6.902   0.366   0.212  0.00  0.00    +0.000 C 
ATOM      5  H   UNL     1       6.049   0.509   0.883  0.00  0.00    +0.000 HD
ATOM      6  H   UNL     1       7.551  -0.363   0.710  0.00  0.00    +0.000 HD
BRANCH   4   7
ATOM      7  C   UNL     1       7.704   1.628   0.054  0.00  0.00    +0.000 C 
ATOM      8  C   UNL     1       7.295   2.894   0.268  0.00  0.00    +0.000 C 
ATOM      9  H   UNL     1       8.729   1.479  -0.282  0.00  0.00    +0.000 HD
BRANCH   8  10
ATOM     10  C   UNL     1       8.149   4.117   0.091  0.00  0.00    +0.000 C 
ATOM     11  H   UNL     1       7.987   4.841   0.897  0.00  0.00    +0.000 HD
ATOM     12  H   UNL     1       9.209   3.847   0.093  0.00  0.00    +0.000 HD
ATOM     13  H   UNL     1       7.914   4.613  -0.856  0.00  0.00    +0.000 HD
ENDBRANCH   8  10
BRANCH   8  14
ATOM     14  C   UNL     1       5.883   3.177   0.705  0.00  0.00    +0.000 C 
ATOM     15  H   UNL     1       5.597   4.191   0.405  0.00  0.00    +0.000 HD
ATOM     16  H   UNL     1       5.811   3.113   1.797  0.00  0.00    +0.000 HD
ATOM     17  H   UNL     1       5.131   2.507   0.282  0.00  0.00    +0.000 HD
ENDBRANCH   8  14
ENDBRANCH   4   7
ENDBRANCH   1   4
BRANCH   1  18
ATOM     18  C   UNL     1       6.913   0.690  -2.341  0.00  0.00    +0.000 C 
ATOM     19  H   UNL     1       7.532   1.515  -1.964  0.00  0.00    +0.000 HD
BRANCH  18  20
ATOM     20  C   UNL     1       5.729   1.297  -3.104  0.00  0.00    +0.000 C 
ATOM     21  H   UNL     1       4.973   0.541  -3.335  0.00  0.00    +0.000 HD
ATOM     22  H   UNL     1       5.225   2.069  -2.511  0.00  0.00    +0.000 HD
ATOM     23  H   UNL     1       6.056   1.753  -4.045  0.00  0.00    +0.000 HD
ENDBRANCH  18  20
BRANCH  18  24
ATOM     24  C   UNL     1       7.773  -0.174  -3.281  0.00  0.00    +0.000 C 
ATOM     25  H   UNL     1       7.946   0.349  -4.229  0.00  0.00    +0.000 HD
ATOM     26  H   UNL     1       7.252  -1.110  -3.512  0.00  0.00    +0.000 HD
BRANCH  24  28
ATOM     27  O   UNL     1       9.401  -1.653  -2.242  0.00  0.00    +0.000 OA
ATOM     28  C   UNL     1       9.120  -0.555  -2.708  0.00  0.00    +0.000 C 
ATOM     29  H   UNL     1       9.872   0.254  -2.714  0.00  0.00    +0.000 HD
ENDBRANCH  24  28
ENDBRANCH  18  24
ENDBRANCH   1  18
TORSDOF 8
ENDMDL
MODEL 7
REMARK VINA RESULT:    -4.399     16.454     19.263
REMARK INTER + INTRA:          -6.366
REMARK INTER:                  -5.782
REMARK INTRA:                  -0.584
REMARK UNBOUND:                -0.295
REMARK  Name = 443157
REMARK  8 active torsions:
REMARK  status: ('A' for Active; 'I' for Inactive)
REMARK    1  A    between atoms: C_2  and  C_3
REMARK    2  A    between atoms: C_2  and  C_5
REMARK    3  A    between atoms: C_2  and  C_6
REMARK    4  A    between atoms: C_3  and  C_4
REMARK    5  A    between atoms: C_4  and  C_7
REMARK    6  A    between atoms: C_5  and  C_9
REMARK    7  A    between atoms: C_8  and  C_10
REMARK    8  A    between atoms: C_8  and  C_11
REMARK                            x       y       z     vdW  Elec       q    Type
REMARK                         _______ _______ _______ _____ _____    ______ ____
ROOT
ATOM      1  C   UNL     1      -2.293   7.965  12.600  0.00  0.00    +0.000 C 
ATOM      2  H   UNL     1      -2.820   7.461  11.778  0.00  0.00    +0.000 HD
ATOM      3  H   UNL     1      -1.363   7.406  12.762  0.00  0.00    +0.000 HD
ENDROOT
BRANCH   1   4
ATOM      4  C   UNL     1      -3.149   7.898  13.869  0.00  0.00    +0.000 C 
ATOM      5  H   UNL     1      -4.072   8.474  13.747  0.00  0.00    +0.000 HD
ATOM      6  H   UNL     1      -3.468   6.867  14.061  0.00  0.00    +0.000 HD
BRANCH   4   7
ATOM      7  C   UNL     1      -2.368   8.346  15.072  0.00  0.00    +0.000 C 
ATOM      8  C   UNL     1      -2.607   9.415  15.856  0.00  0.00    +0.000 C 
ATOM      9  H   UNL     1      -1.507   7.725  15.315  0.00  0.00    +0.000 HD
BRANCH   8  10
ATOM     10  C   UNL     1      -1.785   9.810  17.050  0.00  0.00    +0.000 C 
ATOM     11  H   UNL     1      -0.716   9.824  16.817  0.00  0.00    +0.000 HD
ATOM     12  H   UNL     1      -2.066  10.811  17.394  0.00  0.00    +0.000 HD
ATOM     13  H   UNL     1      -1.940   9.102  17.871  0.00  0.00    +0.000 HD
ENDBRANCH   8  10
BRANCH   8  14
ATOM     14  C   UNL     1      -3.762  10.334  15.563  0.00  0.00    +0.000 C 
ATOM     15  H   UNL     1      -4.242  10.637  16.500  0.00  0.00    +0.000 HD
ATOM     16  H   UNL     1      -4.508   9.812  14.953  0.00  0.00    +0.000 HD
ATOM     17  H   UNL     1      -3.491  11.256  15.044  0.00  0.00    +0.000 HD
ENDBRANCH   8  14
ENDBRANCH   4   7
ENDBRANCH   1   4
BRANCH   1  18
ATOM     18  C   UNL     1      -1.936   9.405  12.171  0.00  0.00    +0.000 C 
ATOM     19  H   UNL     1      -1.435   9.911  13.007  0.00  0.00    +0.000 HD
BRANCH  18  20
ATOM     20  C   UNL     1      -3.186  10.214  11.809  0.00  0.00    +0.000 C 
ATOM     21  H   UNL     1      -3.073  10.714  10.842  0.00  0.00    +0.000 HD
ATOM     22  H   UNL     1      -4.069   9.570  11.723  0.00  0.00    +0.000 HD
ATOM     23  H   UNL     1      -3.397  10.978  12.565  0.00  0.00    +0.000 HD
ENDBRANCH  18  20
BRANCH  18  24
ATOM     24  C   UNL     1      -0.963   9.353  10.980  0.00  0.00    +0.000 C 
ATOM     25  H   UNL     1      -0.158  10.087  11.112  0.00  0.00    +0.000 HD
ATOM     26  H   UNL     1      -1.490   9.607  10.053  0.00  0.00    +0.000 HD
BRANCH  24  28
ATOM     27  O   UNL     1       0.879   7.797  10.656  0.00  0.00    +0.000 OA
ATOM     28  C   UNL     1      -0.326   7.999  10.762  0.00  0.00    +0.000 C 
ATOM     29  H   UNL     1      -1.038   7.158  10.682  0.00  0.00    +0.000 HD
ENDBRANCH  24  28
ENDBRANCH  18  24
ENDBRANCH   1  18
TORSDOF 8
ENDMDL
MODEL 8
REMARK VINA RESULT:    -4.302      3.633      4.352
REMARK INTER + INTRA:          -6.232
REMARK INTER:                  -5.524
REMARK INTRA:                  -0.707
REMARK UNBOUND:                -0.295
REMARK  Name = 443157
REMARK  8 active torsions:
REMARK  status: ('A' for Active; 'I' for Inactive)
REMARK    1  A    between atoms: C_2  and  C_3
REMARK    2  A    between atoms: C_2  and  C_5
REMARK    3  A    between atoms: C_2  and  C_6
REMARK    4  A    between atoms: C_3  and  C_4
REMARK    5  A    between atoms: C_4  and  C_7
REMARK    6  A    between atoms: C_5  and  C_9
REMARK    7  A    between atoms: C_8  and  C_10
REMARK    8  A    between atoms: C_8  and  C_11
REMARK                            x       y       z     vdW  Elec       q    Type
REMARK                         _______ _______ _______ _____ _____    ______ ____
ROOT
ATOM      1  C   UNL     1       7.137   0.950   0.214  0.00  0.00    +0.000 C 
ATOM      2  H   UNL     1       6.287   0.367   0.594  0.00  0.00    +0.000 HD
ATOM      3  H   UNL     1       6.922   2.000   0.448  0.00  0.00    +0.000 HD
ENDROOT
BRANCH   1   4
ATOM      4  C   UNL     1       7.229   0.781  -1.306  0.00  0.00    +0.000 C 
ATOM      5  H   UNL     1       6.922   1.698  -1.818  0.00  0.00    +0.000 HD
ATOM      6  H   UNL     1       8.268   0.607  -1.609  0.00  0.00    +0.000 HD
BRANCH   4   7
ATOM      7  C   UNL     1       6.433  -0.408  -1.768  0.00  0.00    +0.000 C 
ATOM      8  C   UNL     1       6.900  -1.618  -2.131  0.00  0.00    +0.000 C 
ATOM      9  H   UNL     1       5.357  -0.246  -1.816  0.00  0.00    +0.000 HD
BRANCH   8  10
ATOM     10  C   UNL     1       6.048  -2.770  -2.585  0.00  0.00    +0.000 C 
ATOM     11  H   UNL     1       6.640  -3.526  -3.111  0.00  0.00    +0.000 HD
ATOM     12  H   UNL     1       5.573  -3.255  -1.727  0.00  0.00    +0.000 HD
ATOM     13  H   UNL     1       5.267  -2.420  -3.267  0.00  0.00    +0.000 HD
ENDBRANCH   8  10
BRANCH   8  14
ATOM     14  C   UNL     1       8.377  -1.903  -2.117  0.00  0.00    +0.000 C 
ATOM     15  H   UNL     1       8.584  -2.762  -1.468  0.00  0.00    +0.000 HD
ATOM     16  H   UNL     1       8.920  -1.038  -1.717  0.00  0.00    +0.000 HD
ATOM     17  H   UNL     1       8.805  -2.144  -3.092  0.00  0.00    +0.000 HD
ENDBRANCH   8  14
ENDBRANCH   4   7
ENDBRANCH   1   4
BRANCH   1  18
ATOM     18  C   UNL     1       8.421   0.530   0.961  0.00  0.00    +0.000 C 
ATOM     19  H   UNL     1       8.546   1.172   1.843  0.00  0.00    +0.000 HD
BRANCH  18  20
ATOM     20  C   UNL     1       9.666   0.692   0.080  0.00  0.00    +0.000 C 
ATOM     21  H   UNL     1      10.372   1.408   0.513  0.00  0.00    +0.000 HD
ATOM     22  H   UNL     1      10.209  -0.254  -0.023  0.00  0.00    +0.000 HD
ATOM     23  H   UNL     1       9.399   1.040  -0.924  0.00  0.00    +0.000 HD
ENDBRANCH  18  20
BRANCH  18  24
ATOM     24  C   UNL     1       8.281  -0.927   1.433  0.00  0.00    +0.000 C 
ATOM     25  H   UNL     1       7.604  -1.480   0.770  0.00  0.00    +0.000 HD
ATOM     26  H   UNL     1       7.850  -0.956   2.440  0.00  0.00    +0.000 HD
BRANCH  24  28
ATOM     27  O   UNL     1       9.779  -2.707   2.145  0.00  0.00    +0.000 OA
ATOM     28  C   UNL     1       9.589  -1.683   1.497  0.00  0.00    +0.000 C 
ATOM     29  H   UNL     1      10.414  -1.235   0.915  0.00  0.00    +0.000 HD
ENDBRANCH  24  28
ENDBRANCH  18  24
ENDBRANCH   1  18
TORSDOF 8
ENDMDL
MODEL 9
REMARK VINA RESULT:    -4.194     26.523     27.635
REMARK INTER + INTRA:          -6.082
REMARK INTER:                  -5.546
REMARK INTRA:                  -0.536
REMARK UNBOUND:                -0.295
REMARK  Name = 443157
REMARK  8 active torsions:
REMARK  status: ('A' for Active; 'I' for Inactive)
REMARK    1  A    between atoms: C_2  and  C_3
REMARK    2  A    between atoms: C_2  and  C_5
REMARK    3  A    between atoms: C_2  and  C_6
REMARK    4  A    between atoms: C_3  and  C_4
REMARK    5  A    between atoms: C_4  and  C_7
REMARK    6  A    between atoms: C_5  and  C_9
REMARK    7  A    between atoms: C_8  and  C_10
REMARK    8  A    between atoms: C_8  and  C_11
REMARK                            x       y       z     vdW  Elec       q    Type
REMARK                         _______ _______ _______ _____ _____    ______ ____
ROOT
ATOM      1  C   UNL     1     -16.745  -9.183   2.673  0.00  0.00    +0.000 C 
ATOM      2  H   UNL     1     -17.765  -8.960   2.333  0.00  0.00    +0.000 HD
ATOM      3  H   UNL     1     -16.395  -8.292   3.210  0.00  0.00    +0.000 HD
ENDROOT
BRANCH   1   4
ATOM      4  C   UNL     1     -15.845  -9.423   1.456  0.00  0.00    +0.000 C 
ATOM      5  H   UNL     1     -14.871  -8.942   1.592  0.00  0.00    +0.000 HD
ATOM      6  H   UNL     1     -15.633 -10.492   1.342  0.00  0.00    +0.000 HD
BRANCH   4   7
ATOM      7  C   UNL     1     -16.517  -8.973   0.189  0.00  0.00    +0.000 C 
ATOM      8  C   UNL     1     -17.290  -9.705  -0.636  0.00  0.00    +0.000 C 
ATOM      9  H   UNL     1     -16.338  -7.932  -0.078  0.00  0.00    +0.000 HD
BRANCH   8  10
ATOM     10  C   UNL     1     -17.935  -9.193  -1.893  0.00  0.00    +0.000 C 
ATOM     11  H   UNL     1     -18.502  -9.978  -2.403  0.00  0.00    +0.000 HD
ATOM     12  H   UNL     1     -18.628  -8.378  -1.662  0.00  0.00    +0.000 HD
ATOM     13  H   UNL     1     -17.176  -8.821  -2.588  0.00  0.00    +0.000 HD
ENDBRANCH   8  10
BRANCH   8  14
ATOM     14  C   UNL     1     -17.557 -11.157  -0.345  0.00  0.00    +0.000 C 
ATOM     15  H   UNL     1     -17.660 -11.306   0.736  0.00  0.00    +0.000 HD
ATOM     16  H   UNL     1     -16.716 -11.768  -0.693  0.00  0.00    +0.000 HD
ATOM     17  H   UNL     1     -18.468 -11.553  -0.798  0.00  0.00    +0.000 HD
ENDBRANCH   8  14
ENDBRANCH   4   7
ENDBRANCH   1   4
BRANCH   1  18
ATOM     18  C   UNL     1     -16.781 -10.371   3.658  0.00  0.00    +0.000 C 
ATOM     19  H   UNL     1     -16.199 -10.110   4.552  0.00  0.00    +0.000 HD
BRANCH  18  20
ATOM     20  C   UNL     1     -16.164 -11.633   3.045  0.00  0.00    +0.000 C 
ATOM     21  H   UNL     1     -16.731 -12.529   3.316  0.00  0.00    +0.000 HD
ATOM     22  H   UNL     1     -16.164 -11.588   1.950  0.00  0.00    +0.000 HD
ATOM     23  H   UNL     1     -15.129 -11.771   3.377  0.00  0.00    +0.000 HD
ENDBRANCH  18  20
BRANCH  18  24
ATOM     24  C   UNL     1     -18.236 -10.634   4.083  0.00  0.00    +0.000 C 
ATOM     25  H   UNL     1     -18.862 -10.827   3.204  0.00  0.00    +0.000 HD
ATOM     26  H   UNL     1     -18.645  -9.752   4.590  0.00  0.00    +0.000 HD
BRANCH  24  28
ATOM     27  O   UNL     1     -19.143 -12.756   4.852  0.00  0.00    +0.000 OA
ATOM     28  C   UNL     1     -18.400 -11.798   5.034  0.00  0.00    +0.000 C 
ATOM     29  H   UNL     1     -17.799 -11.731   5.959  0.00  0.00    +0.000 HD
ENDBRANCH  24  28
ENDBRANCH  18  24
ENDBRANCH   1  18
TORSDOF 8
ENDMDL
MODEL 10
REMARK VINA RESULT:    -4.181     18.944     21.863
REMARK INTER + INTRA:          -6.065
REMARK INTER:                  -5.770
REMARK INTRA:                  -0.295
REMARK UNBOUND:                -0.295
REMARK  Name = 443157
REMARK  8 active torsions:
REMARK  status: ('A' for Active; 'I' for Inactive)
REMARK    1  A    between atoms: C_2  and  C_3
REMARK    2  A    between atoms: C_2  and  C_5
REMARK    3  A    between atoms: C_2  and  C_6
REMARK    4  A    between atoms: C_3  and  C_4
REMARK    5  A    between atoms: C_4  and  C_7
REMARK    6  A    between atoms: C_5  and  C_9
REMARK    7  A    between atoms: C_8  and  C_10
REMARK    8  A    between atoms: C_8  and  C_11
REMARK                            x       y       z     vdW  Elec       q    Type
REMARK                         _______ _______ _______ _____ _____    ______ ____
ROOT
ATOM      1  C   UNL     1      -1.794   8.752  16.385  0.00  0.00    +0.000 C 
ATOM      2  H   UNL     1      -2.473   8.336  17.141  0.00  0.00    +0.000 HD
ATOM      3  H   UNL     1      -1.441   7.903  15.785  0.00  0.00    +0.000 HD
ENDROOT
BRANCH   1   4
ATOM      4  C   UNL     1      -0.598   9.408  17.081  0.00  0.00    +0.000 C 
ATOM      5  H   UNL     1       0.344   8.976  16.727  0.00  0.00    +0.000 HD
ATOM      6  H   UNL     1      -0.546  10.474  16.830  0.00  0.00    +0.000 HD
BRANCH   4   7
ATOM      7  C   UNL     1      -0.725   9.317  18.576  0.00  0.00    +0.000 C 
ATOM      8  C   UNL     1      -0.336   8.304  19.374  0.00  0.00    +0.000 C 
ATOM      9  H   UNL     1      -1.198  10.177  19.047  0.00  0.00    +0.000 HD
BRANCH   8  10
ATOM     10  C   UNL     1      -0.492   8.274  20.868  0.00  0.00    +0.000 C 
ATOM     11  H   UNL     1      -0.644   9.278  21.277  0.00  0.00    +0.000 HD
ATOM     12  H   UNL     1      -1.356   7.664  21.150  0.00  0.00    +0.000 HD
ATOM     13  H   UNL     1       0.403   7.852  21.336  0.00  0.00    +0.000 HD
ENDBRANCH   8  10
BRANCH   8  14
ATOM     14  C   UNL     1       0.299   7.071  18.789  0.00  0.00    +0.000 C 
ATOM     15  H   UNL     1       1.241   6.858  19.305  0.00  0.00    +0.000 HD
ATOM     16  H   UNL     1       0.522   7.235  17.728  0.00  0.00    +0.000 HD
ATOM     17  H   UNL     1      -0.306   6.166  18.867  0.00  0.00    +0.000 HD
ENDBRANCH   8  14
ENDBRANCH   4   7
ENDBRANCH   1   4
BRANCH   1  18
ATOM     18  C   UNL     1      -2.577   9.714  15.466  0.00  0.00    +0.000 C 
ATOM     19  H   UNL     1      -1.863  10.305  14.877  0.00  0.00    +0.000 HD
BRANCH  18  20
ATOM     20  C   UNL     1      -3.443  10.689  16.274  0.00  0.00    +0.000 C 
ATOM     21  H   UNL     1      -4.489  10.370  16.296  0.00  0.00    +0.000 HD
ATOM     22  H   UNL     1      -3.114  10.745  17.318  0.00  0.00    +0.000 HD
ATOM     23  H   UNL     1      -3.402  11.699  15.852  0.00  0.00    +0.000 HD
ENDBRANCH  18  20
BRANCH  18  24
ATOM     24  C   UNL     1      -3.449   8.895  14.498  0.00  0.00    +0.000 C 
ATOM     25  H   UNL     1      -4.338   9.468  14.207  0.00  0.00    +0.000 HD
ATOM     26  H   UNL     1      -3.795   7.978  14.988  0.00  0.00    +0.000 HD
BRANCH  24  28
ATOM     27  O   UNL     1      -2.310   7.343  13.011  0.00  0.00    +0.000 OA
ATOM     28  C   UNL     1      -2.736   8.471  13.234  0.00  0.00    +0.000 C 
ATOM     29  H   UNL     1      -2.593   9.275  12.489  0.00  0.00    +0.000 HD
ENDBRANCH  24  28
ENDBRANCH  18  24
ENDBRANCH   1  18
TORSDOF 8
ENDMDL
