MODEL 1
REMARK VINA RESULT:    -4.910      0.000      0.000
REMARK INTER + INTRA:          -7.989
REMARK INTER:                  -7.329
REMARK INTRA:                  -0.661
REMARK UNBOUND:                -0.497
REMARK  Name = 8174
REMARK  10 active torsions:
REMARK  status: ('A' for Active; 'I' for Inactive)
REMARK    1  A    between atoms: O_1  and  C_10
REMARK    2  A    between atoms: C_2  and  C_3
REMARK    3  A    between atoms: C_2  and  C_4
REMARK    4  A    between atoms: C_3  and  C_5
REMARK    5  A    between atoms: C_4  and  C_6
REMARK    6  A    between atoms: C_5  and  C_7
REMARK    7  A    between atoms: C_6  and  C_8
REMARK    8  A    between atoms: C_7  and  C_9
REMARK    9  A    between atoms: C_8  and  C_10
REMARK   10  A    between atoms: C_9  and  C_11
REMARK                            x       y       z     vdW  Elec       q    Type
REMARK                         _______ _______ _______ _____ _____    ______ ____
ROOT
ATOM      1  C   UNL     1       8.239   0.098  -1.369  0.00  0.00    +0.000 C 
ATOM      2  H   UNL     1       7.840  -0.892  -1.116  0.00  0.00    +0.000 HD
ATOM      3  H   UNL     1       8.627   0.531  -0.438  0.00  0.00    +0.000 HD
ENDROOT
BRANCH   1   4
ATOM      4  C   UNL     1       7.095   0.974  -1.888  0.00  0.00    +0.000 C 
ATOM      5  H   UNL     1       7.489   1.678  -2.631  0.00  0.00    +0.000 HD
ATOM      6  H   UNL     1       6.707   1.577  -1.057  0.00  0.00    +0.000 HD
BRANCH   4   7
ATOM      7  C   UNL     1       5.947   0.174  -2.505  0.00  0.00    +0.000 C 
ATOM      8  H   UNL     1       6.314  -0.807  -2.830  0.00  0.00    +0.000 HD
ATOM      9  H   UNL     1       5.176  -0.004  -1.744  0.00  0.00    +0.000 HD
BRANCH   7  10
ATOM     10  C   UNL     1       5.330   0.916  -3.694  0.00  0.00    +0.000 C 
ATOM     11  H   UNL     1       5.732   1.936  -3.739  0.00  0.00    +0.000 HD
ATOM     12  H   UNL     1       4.246   1.004  -3.549  0.00  0.00    +0.000 HD
BRANCH  10  13
ATOM     13  C   UNL     1       5.611   0.192  -5.010  0.00  0.00    +0.000 C 
ATOM     14  H   UNL     1       6.164   0.853  -5.689  0.00  0.00    +0.000 HD
ATOM     15  H   UNL     1       4.666  -0.063  -5.503  0.00  0.00    +0.000 HD
BRANCH  13  16
ATOM     16  C   UNL     1       6.418  -1.076  -4.786  0.00  0.00    +0.000 C 
ATOM     17  H   UNL     1       5.838  -1.963  -5.062  0.00  0.00    +0.000 HD
ATOM     18  H   UNL     1       6.717  -1.173  -3.737  0.00  0.00    +0.000 HD
ATOM     19  H   UNL     1       7.326  -1.061  -5.398  0.00  0.00    +0.000 HD
ENDBRANCH  13  16
ENDBRANCH  10  13
ENDBRANCH   7  10
ENDBRANCH   4   7
ENDBRANCH   1   4
BRANCH   1  20
ATOM     20  C   UNL     1       9.389  -0.056  -2.367  0.00  0.00    +0.000 C 
ATOM     21  H   UNL     1      10.315   0.318  -1.915  0.00  0.00    +0.000 HD
ATOM     22  H   UNL     1       9.190   0.559  -3.253  0.00  0.00    +0.000 HD
BRANCH  20  23
ATOM     23  C   UNL     1       9.568  -1.517  -2.784  0.00  0.00    +0.000 C 
ATOM     24  H   UNL     1       8.615  -2.051  -2.681  0.00  0.00    +0.000 HD
ATOM     25  H   UNL     1      10.287  -2.006  -2.114  0.00  0.00    +0.000 HD
BRANCH  23  26
ATOM     26  C   UNL     1      10.063  -1.626  -4.230  0.00  0.00    +0.000 C 
ATOM     27  H   UNL     1       9.985  -2.663  -4.577  0.00  0.00    +0.000 HD
ATOM     28  H   UNL     1       9.419  -1.037  -4.895  0.00  0.00    +0.000 HD
BRANCH  26  29
ATOM     29  C   UNL     1      11.503  -1.151  -4.383  0.00  0.00    +0.000 C 
ATOM     30  H   UNL     1      12.161  -1.989  -4.632  0.00  0.00    +0.000 HD
ATOM     31  H   UNL     1      11.857  -0.688  -3.456  0.00  0.00    +0.000 HD
BRANCH  29  32
ATOM     32  O   UNL     1      11.587  -0.190  -5.425  0.00  0.00    +0.000 OA
ATOM     33  H   UNL     1      10.687   0.144  -5.579  0.00  0.00    +0.000 HD
ENDBRANCH  29  32
ENDBRANCH  26  29
ENDBRANCH  23  26
ENDBRANCH  20  23
ENDBRANCH   1  20
TORSDOF 10
ENDMDL
MODEL 2
REMARK VINA RESULT:    -4.373      2.780      4.234
REMARK INTER + INTRA:          -7.170
REMARK INTER:                  -6.256
REMARK INTRA:                  -0.914
REMARK UNBOUND:                -0.497
REMARK  Name = 8174
REMARK  10 active torsions:
REMARK  status: ('A' for Active; 'I' for Inactive)
REMARK    1  A    between atoms: O_1  and  C_10
REMARK    2  A    between atoms: C_2  and  C_3
REMARK    3  A    between atoms: C_2  and  C_4
REMARK    4  A    between atoms: C_3  and  C_5
REMARK    5  A    between atoms: C_4  and  C_6
REMARK    6  A    between atoms: C_5  and  C_7
REMARK    7  A    between atoms: C_6  and  C_8
REMARK    8  A    between atoms: C_7  and  C_9
REMARK    9  A    between atoms: C_8  and  C_10
REMARK   10  A    between atoms: C_9  and  C_11
REMARK                            x       y       z     vdW  Elec       q    Type
REMARK                         _______ _______ _______ _____ _____    ______ ____
ROOT
ATOM      1  C   UNL     1       9.160  -0.933  -1.725  0.00  0.00    +0.000 C 
ATOM      2  H   UNL     1      10.199  -1.231  -1.538  0.00  0.00    +0.000 HD
ATOM      3  H   UNL     1       8.575  -1.264  -0.857  0.00  0.00    +0.000 HD
ENDROOT
BRANCH   1   4
ATOM      4  C   UNL     1       8.653  -1.658  -2.975  0.00  0.00    +0.000 C 
ATOM      5  H   UNL     1       7.845  -2.343  -2.691  0.00  0.00    +0.000 HD
ATOM      6  H   UNL     1       9.464  -2.276  -3.378  0.00  0.00    +0.000 HD
BRANCH   4   7
ATOM      7  C   UNL     1       8.155  -0.711  -4.068  0.00  0.00    +0.000 C 
ATOM      8  H   UNL     1       8.253   0.327  -3.729  0.00  0.00    +0.000 HD
ATOM      9  H   UNL     1       8.784  -0.821  -4.960  0.00  0.00    +0.000 HD
BRANCH   7  10
ATOM     10  C   UNL     1       6.697  -1.003  -4.431  0.00  0.00    +0.000 C 
ATOM     11  H   UNL     1       6.559  -2.084  -4.562  0.00  0.00    +0.000 HD
ATOM     12  H   UNL     1       6.456  -0.529  -5.391  0.00  0.00    +0.000 HD
BRANCH  10  13
ATOM     13  C   UNL     1       5.741  -0.489  -3.355  0.00  0.00    +0.000 C 
ATOM     14  H   UNL     1       6.231  -0.521  -2.375  0.00  0.00    +0.000 HD
ATOM     15  H   UNL     1       4.860  -1.140  -3.299  0.00  0.00    +0.000 HD
BRANCH  13  16
ATOM     16  C   UNL     1       5.294   0.935  -3.640  0.00  0.00    +0.000 C 
ATOM     17  H   UNL     1       4.299   1.125  -3.223  0.00  0.00    +0.000 HD
ATOM     18  H   UNL     1       5.258   1.127  -4.718  0.00  0.00    +0.000 HD
ATOM     19  H   UNL     1       5.992   1.648  -3.191  0.00  0.00    +0.000 HD
ENDBRANCH  13  16
ENDBRANCH  10  13
ENDBRANCH   7  10
ENDBRANCH   4   7
ENDBRANCH   1   4
BRANCH   1  20
ATOM     20  C   UNL     1       9.080   0.592  -1.830  0.00  0.00    +0.000 C 
ATOM     21  H   UNL     1       8.359   0.866  -2.609  0.00  0.00    +0.000 HD
ATOM     22  H   UNL     1      10.055   0.990  -2.135  0.00  0.00    +0.000 HD
BRANCH  20  23
ATOM     23  C   UNL     1       8.663   1.217  -0.496  0.00  0.00    +0.000 C 
ATOM     24  H   UNL     1       9.208   2.156  -0.341  0.00  0.00    +0.000 HD
ATOM     25  H   UNL     1       8.934   0.544   0.327  0.00  0.00    +0.000 HD
BRANCH  23  26
ATOM     26  C   UNL     1       7.155   1.487  -0.457  0.00  0.00    +0.000 C 
ATOM     27  H   UNL     1       6.965   2.510  -0.110  0.00  0.00    +0.000 HD
ATOM     28  H   UNL     1       6.734   1.431  -1.469  0.00  0.00    +0.000 HD
BRANCH  26  29
ATOM     29  C   UNL     1       6.417   0.504   0.444  0.00  0.00    +0.000 C 
ATOM     30  H   UNL     1       5.821  -0.193  -0.153  0.00  0.00    +0.000 HD
ATOM     31  H   UNL     1       5.752   1.036   1.133  0.00  0.00    +0.000 HD
BRANCH  29  32
ATOM     32  O   UNL     1       7.350  -0.245   1.209  0.00  0.00    +0.000 OA
ATOM     33  H   UNL     1       7.560  -1.046   0.698  0.00  0.00    +0.000 HD
ENDBRANCH  29  32
ENDBRANCH  26  29
ENDBRANCH  23  26
ENDBRANCH  20  23
ENDBRANCH   1  20
TORSDOF 10
ENDMDL
MODEL 3
REMARK VINA RESULT:    -4.187      2.034      3.615
REMARK INTER + INTRA:          -6.886
REMARK INTER:                  -6.417
REMARK INTRA:                  -0.469
REMARK UNBOUND:                -0.497
REMARK  Name = 8174
REMARK  10 active torsions:
REMARK  status: ('A' for Active; 'I' for Inactive)
REMARK    1  A    between atoms: O_1  and  C_10
REMARK    2  A    between atoms: C_2  and  C_3
REMARK    3  A    between atoms: C_2  and  C_4
REMARK    4  A    between atoms: C_3  and  C_5
REMARK    5  A    between atoms: C_4  and  C_6
REMARK    6  A    between atoms: C_5  and  C_7
REMARK    7  A    between atoms: C_6  and  C_8
REMARK    8  A    between atoms: C_7  and  C_9
REMARK    9  A    between atoms: C_8  and  C_10
REMARK   10  A    between atoms: C_9  and  C_11
REMARK                            x       y       z     vdW  Elec       q    Type
REMARK                         _______ _______ _______ _____ _____    ______ ____
ROOT
ATOM      1  C   UNL     1       8.374  -0.729  -1.227  0.00  0.00    +0.000 C 
ATOM      2  H   UNL     1       7.422  -1.270  -1.304  0.00  0.00    +0.000 HD
ATOM      3  H   UNL     1       9.159  -1.486  -1.106  0.00  0.00    +0.000 HD
ENDROOT
BRANCH   1   4
ATOM      4  C   UNL     1       8.339   0.159   0.021  0.00  0.00    +0.000 C 
ATOM      5  H   UNL     1       8.659  -0.429   0.890  0.00  0.00    +0.000 HD
ATOM      6  H   UNL     1       7.302   0.463   0.209  0.00  0.00    +0.000 HD
BRANCH   4   7
ATOM      7  C   UNL     1       9.214   1.408  -0.096  0.00  0.00    +0.000 C 
ATOM      8  H   UNL     1      10.034   1.353   0.628  0.00  0.00    +0.000 HD
ATOM      9  H   UNL     1       9.666   1.444  -1.096  0.00  0.00    +0.000 HD
BRANCH   7  10
ATOM     10  C   UNL     1       8.397   2.681   0.141  0.00  0.00    +0.000 C 
ATOM     11  H   UNL     1       8.646   3.427  -0.624  0.00  0.00    +0.000 HD
ATOM     12  H   UNL     1       8.666   3.114   1.113  0.00  0.00    +0.000 HD
BRANCH  10  13
ATOM     13  C   UNL     1       6.896   2.393   0.110  0.00  0.00    +0.000 C 
ATOM     14  H   UNL     1       6.554   2.089   1.107  0.00  0.00    +0.000 HD
ATOM     15  H   UNL     1       6.691   1.558  -0.571  0.00  0.00    +0.000 HD
BRANCH  13  16
ATOM     16  C   UNL     1       6.104   3.610  -0.337  0.00  0.00    +0.000 C 
ATOM     17  H   UNL     1       6.747   4.495  -0.400  0.00  0.00    +0.000 HD
ATOM     18  H   UNL     1       5.289   3.827   0.362  0.00  0.00    +0.000 HD
ATOM     19  H   UNL     1       5.666   3.436  -1.325  0.00  0.00    +0.000 HD
ENDBRANCH  13  16
ENDBRANCH  10  13
ENDBRANCH   7  10
ENDBRANCH   4   7
ENDBRANCH   1   4
BRANCH   1  20
ATOM     20  C   UNL     1       8.624   0.048  -2.521  0.00  0.00    +0.000 C 
ATOM     21  H   UNL     1       9.683  -0.027  -2.793  0.00  0.00    +0.000 HD
ATOM     22  H   UNL     1       8.406   1.111  -2.358  0.00  0.00    +0.000 HD
BRANCH  20  23
ATOM     23  C   UNL     1       7.756  -0.486  -3.663  0.00  0.00    +0.000 C 
ATOM     24  H   UNL     1       7.051   0.290  -3.986  0.00  0.00    +0.000 HD
ATOM     25  H   UNL     1       7.162  -1.336  -3.307  0.00  0.00    +0.000 HD
BRANCH  23  26
ATOM     26  C   UNL     1       8.614  -0.926  -4.853  0.00  0.00    +0.000 C 
ATOM     27  H   UNL     1       8.125  -1.751  -5.386  0.00  0.00    +0.000 HD
ATOM     28  H   UNL     1       8.700  -0.109  -5.581  0.00  0.00    +0.000 HD
BRANCH  26  29
ATOM     29  C   UNL     1      10.011  -1.362  -4.427  0.00  0.00    +0.000 C 
ATOM     30  H   UNL     1      10.007  -1.701  -3.386  0.00  0.00    +0.000 HD
ATOM     31  H   UNL     1      10.721  -0.534  -4.525  0.00  0.00    +0.000 HD
BRANCH  29  32
ATOM     32  O   UNL     1      10.455  -2.434  -5.245  0.00  0.00    +0.000 OA
ATOM     33  H   UNL     1      10.650  -2.061  -6.122  0.00  0.00    +0.000 HD
ENDBRANCH  29  32
ENDBRANCH  26  29
ENDBRANCH  23  26
ENDBRANCH  20  23
ENDBRANCH   1  20
TORSDOF 10
ENDMDL
MODEL 4
REMARK VINA RESULT:    -4.154      3.759      4.742
REMARK INTER + INTRA:          -6.836
REMARK INTER:                  -6.529
REMARK INTRA:                  -0.308
REMARK UNBOUND:                -0.497
REMARK  Name = 8174
REMARK  10 active torsions:
REMARK  status: ('A' for Active; 'I' for Inactive)
REMARK    1  A    between atoms: O_1  and  C_10
REMARK    2  A    between atoms: C_2  and  C_3
REMARK    3  A    between atoms: C_2  and  C_4
REMARK    4  A    between atoms: C_3  and  C_5
REMARK    5  A    between atoms: C_4  and  C_6
REMARK    6  A    between atoms: C_5  and  C_7
REMARK    7  A    between atoms: C_6  and  C_8
REMARK    8  A    between atoms: C_7  and  C_9
REMARK    9  A    between atoms: C_8  and  C_10
REMARK   10  A    between atoms: C_9  and  C_11
REMARK                            x       y       z     vdW  Elec       q    Type
REMARK                         _______ _______ _______ _____ _____    ______ ____
ROOT
ATOM      1  C   UNL     1       9.486   0.690  -0.746  0.00  0.00    +0.000 C 
ATOM      2  H   UNL     1      10.110   1.575  -0.922  0.00  0.00    +0.000 HD
ATOM      3  H   UNL     1      10.123  -0.186  -0.926  0.00  0.00    +0.000 HD
ENDROOT
BRANCH   1   4
ATOM      4  C   UNL     1       8.335   0.686  -1.756  0.00  0.00    +0.000 C 
ATOM      5  H   UNL     1       8.132   1.716  -2.074  0.00  0.00    +0.000 HD
ATOM      6  H   UNL     1       7.428   0.326  -1.256  0.00  0.00    +0.000 HD
BRANCH   4   7
ATOM      7  C   UNL     1       8.607  -0.181  -2.986  0.00  0.00    +0.000 C 
ATOM      8  H   UNL     1       9.438   0.244  -3.561  0.00  0.00    +0.000 HD
ATOM      9  H   UNL     1       8.915  -1.184  -2.664  0.00  0.00    +0.000 HD
BRANCH   7  10
ATOM     10  C   UNL     1       7.364  -0.289  -3.874  0.00  0.00    +0.000 C 
ATOM     11  H   UNL     1       7.001  -1.324  -3.876  0.00  0.00    +0.000 HD
ATOM     12  H   UNL     1       7.629  -0.038  -4.908  0.00  0.00    +0.000 HD
BRANCH  10  13
ATOM     13  C   UNL     1       6.253   0.644  -3.392  0.00  0.00    +0.000 C 
ATOM     14  H   UNL     1       6.633   1.671  -3.323  0.00  0.00    +0.000 HD
ATOM     15  H   UNL     1       5.930   0.350  -2.387  0.00  0.00    +0.000 HD
BRANCH  13  16
ATOM     16  C   UNL     1       5.058   0.620  -4.331  0.00  0.00    +0.000 C 
ATOM     17  H   UNL     1       5.332   0.197  -5.303  0.00  0.00    +0.000 HD
ATOM     18  H   UNL     1       4.665   1.628  -4.492  0.00  0.00    +0.000 HD
ATOM     19  H   UNL     1       4.256   0.006  -3.908  0.00  0.00    +0.000 HD
ENDBRANCH  13  16
ENDBRANCH  10  13
ENDBRANCH   7  10
ENDBRANCH   4   7
ENDBRANCH   1   4
BRANCH   1  20
ATOM     20  C   UNL     1       9.019   0.678   0.711  0.00  0.00    +0.000 C 
ATOM     21  H   UNL     1       7.980   0.330   0.757  0.00  0.00    +0.000 HD
ATOM     22  H   UNL     1       9.038   1.699   1.110  0.00  0.00    +0.000 HD
BRANCH  20  23
ATOM     23  C   UNL     1       9.907  -0.226   1.569  0.00  0.00    +0.000 C 
ATOM     24  H   UNL     1      10.004   0.199   2.576  0.00  0.00    +0.000 HD
ATOM     25  H   UNL     1      10.914  -0.270   1.137  0.00  0.00    +0.000 HD
BRANCH  23  26
ATOM     26  C   UNL     1       9.331  -1.643   1.664  0.00  0.00    +0.000 C 
ATOM     27  H   UNL     1       8.473  -1.746   0.989  0.00  0.00    +0.000 HD
ATOM     28  H   UNL     1      10.072  -2.376   1.320  0.00  0.00    +0.000 HD
BRANCH  26  29
ATOM     29  C   UNL     1       8.901  -1.996   3.082  0.00  0.00    +0.000 C 
ATOM     30  H   UNL     1       7.877  -1.659   3.270  0.00  0.00    +0.000 HD
ATOM     31  H   UNL     1       9.566  -1.528   3.815  0.00  0.00    +0.000 HD
BRANCH  29  32
ATOM     32  O   UNL     1       8.950  -3.404   3.266  0.00  0.00    +0.000 OA
ATOM     33  H   UNL     1       8.081  -3.677   3.607  0.00  0.00    +0.000 HD
ENDBRANCH  29  32
ENDBRANCH  26  29
ENDBRANCH  23  26
ENDBRANCH  20  23
ENDBRANCH   1  20
TORSDOF 10
ENDMDL
MODEL 5
REMARK VINA RESULT:    -4.074     16.777     18.536
REMARK INTER + INTRA:          -6.714
REMARK INTER:                  -6.321
REMARK INTRA:                  -0.394
REMARK UNBOUND:                -0.497
REMARK  Name = 8174
REMARK  10 active torsions:
REMARK  status: ('A' for Active; 'I' for Inactive)
REMARK    1  A    between atoms: O_1  and  C_10
REMARK    2  A    between atoms: C_2  and  C_3
REMARK    3  A    between atoms: C_2  and  C_4
REMARK    4  A    between atoms: C_3  and  C_5
REMARK    5  A    between atoms: C_4  and  C_6
REMARK    6  A    between atoms: C_5  and  C_7
REMARK    7  A    between atoms: C_6  and  C_8
REMARK    8  A    between atoms: C_7  and  C_9
REMARK    9  A    between atoms: C_8  and  C_10
REMARK   10  A    between atoms: C_9  and  C_11
REMARK                            x       y       z     vdW  Elec       q    Type
REMARK                         _______ _______ _______ _____ _____    ______ ____
ROOT
ATOM      1  C   UNL     1      -1.561 -14.844 -10.147  0.00  0.00    +0.000 C 
ATOM      2  H   UNL     1      -2.505 -15.404 -10.139  0.00  0.00    +0.000 HD
ATOM      3  H   UNL     1      -0.753 -15.586 -10.132  0.00  0.00    +0.000 HD
ENDROOT
BRANCH   1   4
ATOM      4  C   UNL     1      -1.480 -13.992  -8.876  0.00  0.00    +0.000 C 
ATOM      5  H   UNL     1      -0.964 -14.562  -8.094  0.00  0.00    +0.000 HD
ATOM      6  H   UNL     1      -2.498 -13.805  -8.512  0.00  0.00    +0.000 HD
BRANCH   4   7
ATOM      7  C   UNL     1      -0.768 -12.655  -9.084  0.00  0.00    +0.000 C 
ATOM      8  H   UNL     1       0.120 -12.804  -9.710  0.00  0.00    +0.000 HD
ATOM      9  H   UNL     1      -1.433 -11.968  -9.623  0.00  0.00    +0.000 HD
BRANCH   7  10
ATOM     10  C   UNL     1      -0.362 -12.030  -7.747  0.00  0.00    +0.000 C 
ATOM     11  H   UNL     1      -0.707 -10.990  -7.707  0.00  0.00    +0.000 HD
ATOM     12  H   UNL     1       0.732 -12.009  -7.670  0.00  0.00    +0.000 HD
BRANCH  10  13
ATOM     13  C   UNL     1      -0.941 -12.812  -6.568  0.00  0.00    +0.000 C 
ATOM     14  H   UNL     1      -0.881 -13.888  -6.769  0.00  0.00    +0.000 HD
ATOM     15  H   UNL     1      -2.002 -12.563  -6.443  0.00  0.00    +0.000 HD
BRANCH  13  16
ATOM     16  C   UNL     1      -0.199 -12.506  -5.278  0.00  0.00    +0.000 C 
ATOM     17  H   UNL     1       0.287 -11.525  -5.328  0.00  0.00    +0.000 HD
ATOM     18  H   UNL     1       0.569 -13.260  -5.078  0.00  0.00    +0.000 HD
ATOM     19  H   UNL     1      -0.895 -12.497  -4.433  0.00  0.00    +0.000 HD
ENDBRANCH  13  16
ENDBRANCH  10  13
ENDBRANCH   7  10
ENDBRANCH   4   7
ENDBRANCH   1   4
BRANCH   1  20
ATOM     20  C   UNL     1      -1.466 -14.026 -11.436  0.00  0.00    +0.000 C 
ATOM     21  H   UNL     1      -0.772 -13.190 -11.287  0.00  0.00    +0.000 HD
ATOM     22  H   UNL     1      -2.447 -13.596 -11.670  0.00  0.00    +0.000 HD
BRANCH  20  23
ATOM     23  C   UNL     1      -0.990 -14.891 -12.606  0.00  0.00    +0.000 C 
ATOM     24  H   UNL     1       0.089 -14.759 -12.749  0.00  0.00    +0.000 HD
ATOM     25  H   UNL     1      -1.482 -14.562 -13.530  0.00  0.00    +0.000 HD
BRANCH  23  26
ATOM     26  C   UNL     1      -1.299 -16.372 -12.363  0.00  0.00    +0.000 C 
ATOM     27  H   UNL     1      -1.721 -16.509 -11.361  0.00  0.00    +0.000 HD
ATOM     28  H   UNL     1      -2.071 -16.716 -13.063  0.00  0.00    +0.000 HD
BRANCH  26  29
ATOM     29  C   UNL     1      -0.063 -17.250 -12.514  0.00  0.00    +0.000 C 
ATOM     30  H   UNL     1       0.763 -16.859 -11.911  0.00  0.00    +0.000 HD
ATOM     31  H   UNL     1       0.254 -17.294 -13.561  0.00  0.00    +0.000 HD
BRANCH  29  32
ATOM     32  O   UNL     1      -0.351 -18.570 -12.075  0.00  0.00    +0.000 OA
ATOM     33  H   UNL     1      -1.273 -18.572 -11.765  0.00  0.00    +0.000 HD
ENDBRANCH  29  32
ENDBRANCH  26  29
ENDBRANCH  23  26
ENDBRANCH  20  23
ENDBRANCH   1  20
TORSDOF 10
ENDMDL
MODEL 6
REMARK VINA RESULT:    -3.994     22.364     24.393
REMARK INTER + INTRA:          -6.592
REMARK INTER:                  -6.359
REMARK INTRA:                  -0.233
REMARK UNBOUND:                -0.497
REMARK  Name = 8174
REMARK  10 active torsions:
REMARK  status: ('A' for Active; 'I' for Inactive)
REMARK    1  A    between atoms: O_1  and  C_10
REMARK    2  A    between atoms: C_2  and  C_3
REMARK    3  A    between atoms: C_2  and  C_4
REMARK    4  A    between atoms: C_3  and  C_5
REMARK    5  A    between atoms: C_4  and  C_6
REMARK    6  A    between atoms: C_5  and  C_7
REMARK    7  A    between atoms: C_6  and  C_8
REMARK    8  A    between atoms: C_7  and  C_9
REMARK    9  A    between atoms: C_8  and  C_10
REMARK   10  A    between atoms: C_9  and  C_11
REMARK                            x       y       z     vdW  Elec       q    Type
REMARK                         _______ _______ _______ _____ _____    ______ ____
ROOT
ATOM      1  C   UNL     1      -1.585   9.625  17.213  0.00  0.00    +0.000 C 
ATOM      2  H   UNL     1      -1.572  10.719  17.304  0.00  0.00    +0.000 HD
ATOM      3  H   UNL     1      -2.372   9.262  17.886  0.00  0.00    +0.000 HD
ENDROOT
BRANCH   1   4
ATOM      4  C   UNL     1      -0.235   9.073  17.679  0.00  0.00    +0.000 C 
ATOM      5  H   UNL     1       0.475   9.902  17.789  0.00  0.00    +0.000 HD
ATOM      6  H   UNL     1       0.167   8.416  16.898  0.00  0.00    +0.000 HD
BRANCH   4   7
ATOM      7  C   UNL     1      -0.316   8.297  18.995  0.00  0.00    +0.000 C 
ATOM      8  H   UNL     1       0.221   8.844  19.779  0.00  0.00    +0.000 HD
ATOM      9  H   UNL     1      -1.364   8.224  19.311  0.00  0.00    +0.000 HD
BRANCH   7  10
ATOM     10  C   UNL     1       0.274   6.892  18.846  0.00  0.00    +0.000 C 
ATOM     11  H   UNL     1      -0.070   6.447  17.904  0.00  0.00    +0.000 HD
ATOM     12  H   UNL     1      -0.094   6.252  19.658  0.00  0.00    +0.000 HD
BRANCH  10  13
ATOM     13  C   UNL     1       1.801   6.923  18.874  0.00  0.00    +0.000 C 
ATOM     14  H   UNL     1       2.182   7.397  17.961  0.00  0.00    +0.000 HD
ATOM     15  H   UNL     1       2.194   5.899  18.894  0.00  0.00    +0.000 HD
BRANCH  13  16
ATOM     16  C   UNL     1       2.322   7.683  20.082  0.00  0.00    +0.000 C 
ATOM     17  H   UNL     1       2.662   8.685  19.798  0.00  0.00    +0.000 HD
ATOM     18  H   UNL     1       3.160   7.155  20.548  0.00  0.00    +0.000 HD
ATOM     19  H   UNL     1       1.531   7.793  20.831  0.00  0.00    +0.000 HD
ENDBRANCH  13  16
ENDBRANCH  10  13
ENDBRANCH   7  10
ENDBRANCH   4   7
ENDBRANCH   1   4
BRANCH   1  20
ATOM     20  C   UNL     1      -1.938   9.238  15.775  0.00  0.00    +0.000 C 
ATOM     21  H   UNL     1      -1.837   8.153  15.655  0.00  0.00    +0.000 HD
ATOM     22  H   UNL     1      -1.229   9.709  15.084  0.00  0.00    +0.000 HD
BRANCH  20  23
ATOM     23  C   UNL     1      -3.364   9.667  15.421  0.00  0.00    +0.000 C 
ATOM     24  H   UNL     1      -3.398  10.754  15.276  0.00  0.00    +0.000 HD
ATOM     25  H   UNL     1      -4.038   9.430  16.254  0.00  0.00    +0.000 HD
BRANCH  23  26
ATOM     26  C   UNL     1      -3.856   8.965  14.152  0.00  0.00    +0.000 C 
ATOM     27  H   UNL     1      -4.575   8.178  14.411  0.00  0.00    +0.000 HD
ATOM     28  H   UNL     1      -4.404   9.673  13.516  0.00  0.00    +0.000 HD
BRANCH  26  29
ATOM     29  C   UNL     1      -2.713   8.357  13.349  0.00  0.00    +0.000 C 
ATOM     30  H   UNL     1      -1.748   8.722  13.716  0.00  0.00    +0.000 HD
ATOM     31  H   UNL     1      -2.806   8.614  12.288  0.00  0.00    +0.000 HD
BRANCH  29  32
ATOM     32  O   UNL     1      -2.733   6.943  13.472  0.00  0.00    +0.000 OA
ATOM     33  H   UNL     1      -1.825   6.630  13.316  0.00  0.00    +0.000 HD
ENDBRANCH  29  32
ENDBRANCH  26  29
ENDBRANCH  23  26
ENDBRANCH  20  23
ENDBRANCH   1  20
TORSDOF 10
ENDMDL
MODEL 7
REMARK VINA RESULT:    -3.988     15.405     16.685
REMARK INTER + INTRA:          -6.583
REMARK INTER:                  -5.826
REMARK INTRA:                  -0.757
REMARK UNBOUND:                -0.497
REMARK  Name = 8174
REMARK  10 active torsions:
REMARK  status: ('A' for Active; 'I' for Inactive)
REMARK    1  A    between atoms: O_1  and  C_10
REMARK    2  A    between atoms: C_2  and  C_3
REMARK    3  A    between atoms: C_2  and  C_4
REMARK    4  A    between atoms: C_3  and  C_5
REMARK    5  A    between atoms: C_4  and  C_6
REMARK    6  A    between atoms: C_5  and  C_7
REMARK    7  A    between atoms: C_6  and  C_8
REMARK    8  A    between atoms: C_7  and  C_9
REMARK    9  A    between atoms: C_8  and  C_10
REMARK   10  A    between atoms: C_9  and  C_11
REMARK                            x       y       z     vdW  Elec       q    Type
REMARK                         _______ _______ _______ _____ _____    ______ ____
ROOT
ATOM      1  C   UNL     1       2.306  12.324 -10.831  0.00  0.00    +0.000 C 
ATOM      2  H   UNL     1       1.687  11.554 -10.353  0.00  0.00    +0.000 HD
ATOM      3  H   UNL     1       1.713  12.739 -11.656  0.00  0.00    +0.000 HD
ENDROOT
BRANCH   1   4
ATOM      4  C   UNL     1       3.564  11.664 -11.403  0.00  0.00    +0.000 C 
ATOM      5  H   UNL     1       3.521  10.584 -11.216  0.00  0.00    +0.000 HD
ATOM      6  H   UNL     1       4.439  12.043 -10.861  0.00  0.00    +0.000 HD
BRANCH   4   7
ATOM      7  C   UNL     1       3.755  11.912 -12.900  0.00  0.00    +0.000 C 
ATOM      8  H   UNL     1       3.815  10.953 -13.428  0.00  0.00    +0.000 HD
ATOM      9  H   UNL     1       2.881  12.445 -13.296  0.00  0.00    +0.000 HD
BRANCH   7  10
ATOM     10  C   UNL     1       5.019  12.733 -13.169  0.00  0.00    +0.000 C 
ATOM     11  H   UNL     1       5.511  12.365 -14.077  0.00  0.00    +0.000 HD
ATOM     12  H   UNL     1       5.726  12.598 -12.341  0.00  0.00    +0.000 HD
BRANCH  10  13
ATOM     13  C   UNL     1       4.695  14.219 -13.326  0.00  0.00    +0.000 C 
ATOM     14  H   UNL     1       3.695  14.427 -12.924  0.00  0.00    +0.000 HD
ATOM     15  H   UNL     1       4.679  14.486 -14.389  0.00  0.00    +0.000 HD
BRANCH  13  16
ATOM     16  C   UNL     1       5.710  15.090 -12.604  0.00  0.00    +0.000 C 
ATOM     17  H   UNL     1       6.725  14.890 -12.966  0.00  0.00    +0.000 HD
ATOM     18  H   UNL     1       5.688  14.908 -11.525  0.00  0.00    +0.000 HD
ATOM     19  H   UNL     1       5.491  16.149 -12.775  0.00  0.00    +0.000 HD
ENDBRANCH  13  16
ENDBRANCH  10  13
ENDBRANCH   7  10
ENDBRANCH   4   7
ENDBRANCH   1   4
BRANCH   1  20
ATOM     20  C   UNL     1       2.606  13.434  -9.821  0.00  0.00    +0.000 C 
ATOM     21  H   UNL     1       2.159  13.177  -8.854  0.00  0.00    +0.000 HD
ATOM     22  H   UNL     1       2.139  14.369 -10.156  0.00  0.00    +0.000 HD
BRANCH  20  23
ATOM     23  C   UNL     1       4.113  13.641  -9.658  0.00  0.00    +0.000 C 
ATOM     24  H   UNL     1       4.537  14.032 -10.590  0.00  0.00    +0.000 HD
ATOM     25  H   UNL     1       4.598  12.677  -9.460  0.00  0.00    +0.000 HD
BRANCH  23  26
ATOM     26  C   UNL     1       4.419  14.609  -8.510  0.00  0.00    +0.000 C 
ATOM     27  H   UNL     1       3.559  15.265  -8.331  0.00  0.00    +0.000 HD
ATOM     28  H   UNL     1       4.571  14.053  -7.576  0.00  0.00    +0.000 HD
BRANCH  26  29
ATOM     29  C   UNL     1       5.652  15.461  -8.788  0.00  0.00    +0.000 C 
ATOM     30  H   UNL     1       5.398  16.525  -8.761  0.00  0.00    +0.000 HD
ATOM     31  H   UNL     1       6.072  15.223  -9.771  0.00  0.00    +0.000 HD
BRANCH  29  32
ATOM     32  O   UNL     1       6.644  15.212  -7.803  0.00  0.00    +0.000 OA
ATOM     33  H   UNL     1       6.889  16.072  -7.421  0.00  0.00    +0.000 HD
ENDBRANCH  29  32
ENDBRANCH  26  29
ENDBRANCH  23  26
ENDBRANCH  20  23
ENDBRANCH   1  20
TORSDOF 10
ENDMDL
MODEL 8
REMARK VINA RESULT:    -3.881     27.842     29.545
REMARK INTER + INTRA:          -6.420
REMARK INTER:                  -6.009
REMARK INTRA:                  -0.412
REMARK UNBOUND:                -0.497
REMARK  Name = 8174
REMARK  10 active torsions:
REMARK  status: ('A' for Active; 'I' for Inactive)
REMARK    1  A    between atoms: O_1  and  C_10
REMARK    2  A    between atoms: C_2  and  C_3
REMARK    3  A    between atoms: C_2  and  C_4
REMARK    4  A    between atoms: C_3  and  C_5
REMARK    5  A    between atoms: C_4  and  C_6
REMARK    6  A    between atoms: C_5  and  C_7
REMARK    7  A    between atoms: C_6  and  C_8
REMARK    8  A    between atoms: C_7  and  C_9
REMARK    9  A    between atoms: C_8  and  C_10
REMARK   10  A    between atoms: C_9  and  C_11
REMARK                            x       y       z     vdW  Elec       q    Type
REMARK                         _______ _______ _______ _____ _____    ______ ____
ROOT
ATOM      1  C   UNL     1     -18.726 -10.664   2.874  0.00  0.00    +0.000 C 
ATOM      2  H   UNL     1     -18.831 -10.944   1.818  0.00  0.00    +0.000 HD
ATOM      3  H   UNL     1     -19.675 -10.202   3.174  0.00  0.00    +0.000 HD
ENDROOT
BRANCH   1   4
ATOM      4  C   UNL     1     -17.604  -9.629   3.003  0.00  0.00    +0.000 C 
ATOM      5  H   UNL     1     -17.682  -9.133   3.978  0.00  0.00    +0.000 HD
ATOM      6  H   UNL     1     -17.751  -8.854   2.241  0.00  0.00    +0.000 HD
BRANCH   4   7
ATOM      7  C   UNL     1     -16.205 -10.226   2.848  0.00  0.00    +0.000 C 
ATOM      8  H   UNL     1     -15.563  -9.877   3.665  0.00  0.00    +0.000 HD
ATOM      9  H   UNL     1     -16.263 -11.319   2.926  0.00  0.00    +0.000 HD
BRANCH   7  10
ATOM     10  C   UNL     1     -15.585  -9.843   1.501  0.00  0.00    +0.000 C 
ATOM     11  H   UNL     1     -15.540 -10.727   0.852  0.00  0.00    +0.000 HD
ATOM     12  H   UNL     1     -14.554  -9.504   1.655  0.00  0.00    +0.000 HD
BRANCH  10  13
ATOM     13  C   UNL     1     -16.388  -8.740   0.812  0.00  0.00    +0.000 C 
ATOM     14  H   UNL     1     -15.747  -7.867   0.636  0.00  0.00    +0.000 HD
ATOM     15  H   UNL     1     -17.207  -8.414   1.464  0.00  0.00    +0.000 HD
BRANCH  13  16
ATOM     16  C   UNL     1     -16.960  -9.211  -0.514  0.00  0.00    +0.000 C 
ATOM     17  H   UNL     1     -17.801  -9.895  -0.357  0.00  0.00    +0.000 HD
ATOM     18  H   UNL     1     -16.200  -9.730  -1.108  0.00  0.00    +0.000 HD
ATOM     19  H   UNL     1     -17.321  -8.357  -1.096  0.00  0.00    +0.000 HD
ENDBRANCH  13  16
ENDBRANCH  10  13
ENDBRANCH   7  10
ENDBRANCH   4   7
ENDBRANCH   1   4
BRANCH   1  20
ATOM     20  C   UNL     1     -18.494 -11.922   3.714  0.00  0.00    +0.000 C 
ATOM     21  H   UNL     1     -17.471 -12.282   3.556  0.00  0.00    +0.000 HD
ATOM     22  H   UNL     1     -19.173 -12.716   3.379  0.00  0.00    +0.000 HD
BRANCH  20  23
ATOM     23  C   UNL     1     -18.722 -11.644   5.201  0.00  0.00    +0.000 C 
ATOM     24  H   UNL     1     -19.518 -10.899   5.321  0.00  0.00    +0.000 HD
ATOM     25  H   UNL     1     -17.811 -11.219   5.640  0.00  0.00    +0.000 HD
BRANCH  23  26
ATOM     26  C   UNL     1     -19.101 -12.924   5.954  0.00  0.00    +0.000 C 
ATOM     27  H   UNL     1     -19.644 -13.605   5.288  0.00  0.00    +0.000 HD
ATOM     28  H   UNL     1     -18.196 -13.464   6.261  0.00  0.00    +0.000 HD
BRANCH  26  29
ATOM     29  C   UNL     1     -19.951 -12.638   7.185  0.00  0.00    +0.000 C 
ATOM     30  H   UNL     1     -19.399 -12.878   8.099  0.00  0.00    +0.000 HD
ATOM     31  H   UNL     1     -20.872 -13.230   7.164  0.00  0.00    +0.000 HD
BRANCH  29  32
ATOM     32  O   UNL     1     -20.302 -11.262   7.222  0.00  0.00    +0.000 OA
ATOM     33  H   UNL     1     -21.274 -11.215   7.210  0.00  0.00    +0.000 HD
ENDBRANCH  29  32
ENDBRANCH  26  29
ENDBRANCH  23  26
ENDBRANCH  20  23
ENDBRANCH   1  20
TORSDOF 10
ENDMDL
MODEL 9
REMARK VINA RESULT:    -3.705     15.110     16.648
REMARK INTER + INTRA:          -6.151
REMARK INTER:                  -5.396
REMARK INTRA:                  -0.755
REMARK UNBOUND:                -0.497
REMARK  Name = 8174
REMARK  10 active torsions:
REMARK  status: ('A' for Active; 'I' for Inactive)
REMARK    1  A    between atoms: O_1  and  C_10
REMARK    2  A    between atoms: C_2  and  C_3
REMARK    3  A    between atoms: C_2  and  C_4
REMARK    4  A    between atoms: C_3  and  C_5
REMARK    5  A    between atoms: C_4  and  C_6
REMARK    6  A    between atoms: C_5  and  C_7
REMARK    7  A    between atoms: C_6  and  C_8
REMARK    8  A    between atoms: C_7  and  C_9
REMARK    9  A    between atoms: C_8  and  C_10
REMARK   10  A    between atoms: C_9  and  C_11
REMARK                            x       y       z     vdW  Elec       q    Type
REMARK                         _______ _______ _______ _____ _____    ______ ____
ROOT
ATOM      1  C   UNL     1      -0.982   5.475 -16.017  0.00  0.00    +0.000 C 
ATOM      2  H   UNL     1      -0.163   5.830 -16.655  0.00  0.00    +0.000 HD
ATOM      3  H   UNL     1      -1.401   6.359 -15.520  0.00  0.00    +0.000 HD
ENDROOT
BRANCH   1   4
ATOM      4  C   UNL     1      -0.410   4.530 -14.956  0.00  0.00    +0.000 C 
ATOM      5  H   UNL     1       0.644   4.780 -14.783  0.00  0.00    +0.000 HD
ATOM      6  H   UNL     1      -0.432   3.506 -15.347  0.00  0.00    +0.000 HD
BRANCH   4   7
ATOM      7  C   UNL     1      -1.167   4.576 -13.627  0.00  0.00    +0.000 C 
ATOM      8  H   UNL     1      -2.197   4.231 -13.778  0.00  0.00    +0.000 HD
ATOM      9  H   UNL     1      -0.695   3.888 -12.915  0.00  0.00    +0.000 HD
BRANCH   7  10
ATOM     10  C   UNL     1      -1.175   5.991 -13.043  0.00  0.00    +0.000 C 
ATOM     11  H   UNL     1      -0.841   6.706 -13.805  0.00  0.00    +0.000 HD
ATOM     12  H   UNL     1      -0.460   6.049 -12.213  0.00  0.00    +0.000 HD
BRANCH  10  13
ATOM     13  C   UNL     1      -2.567   6.381 -12.546  0.00  0.00    +0.000 C 
ATOM     14  H   UNL     1      -2.833   7.376 -12.924  0.00  0.00    +0.000 HD
ATOM     15  H   UNL     1      -2.567   6.440 -11.451  0.00  0.00    +0.000 HD
BRANCH  13  16
ATOM     16  C   UNL     1      -3.619   5.382 -12.995  0.00  0.00    +0.000 C 
ATOM     17  H   UNL     1      -3.829   5.487 -14.065  0.00  0.00    +0.000 HD
ATOM     18  H   UNL     1      -4.556   5.523 -12.446  0.00  0.00    +0.000 HD
ATOM     19  H   UNL     1      -3.272   4.359 -12.816  0.00  0.00    +0.000 HD
ENDBRANCH  13  16
ENDBRANCH  10  13
ENDBRANCH   7  10
ENDBRANCH   4   7
ENDBRANCH   1   4
BRANCH   1  20
ATOM     20  C   UNL     1      -2.063   4.831 -16.887  0.00  0.00    +0.000 C 
ATOM     21  H   UNL     1      -2.151   5.386 -17.828  0.00  0.00    +0.000 HD
ATOM     22  H   UNL     1      -3.032   4.899 -16.378  0.00  0.00    +0.000 HD
BRANCH  20  23
ATOM     23  C   UNL     1      -1.738   3.364 -17.179  0.00  0.00    +0.000 C 
ATOM     24  H   UNL     1      -0.944   3.020 -16.505  0.00  0.00    +0.000 HD
ATOM     25  H   UNL     1      -1.357   3.268 -18.204  0.00  0.00    +0.000 HD
BRANCH  23  26
ATOM     26  C   UNL     1      -2.975   2.476 -17.010  0.00  0.00    +0.000 C 
ATOM     27  H   UNL     1      -3.745   2.761 -17.738  0.00  0.00    +0.000 HD
ATOM     28  H   UNL     1      -2.724   1.432 -17.233  0.00  0.00    +0.000 HD
BRANCH  26  29
ATOM     29  C   UNL     1      -3.556   2.560 -15.604  0.00  0.00    +0.000 C 
ATOM     30  H   UNL     1      -4.620   2.814 -15.642  0.00  0.00    +0.000 HD
ATOM     31  H   UNL     1      -3.033   3.320 -15.014  0.00  0.00    +0.000 HD
BRANCH  29  32
ATOM     32  O   UNL     1      -3.418   1.308 -14.948  0.00  0.00    +0.000 OA
ATOM     33  H   UNL     1      -2.466   1.116 -14.898  0.00  0.00    +0.000 HD
ENDBRANCH  29  32
ENDBRANCH  26  29
ENDBRANCH  23  26
ENDBRANCH  20  23
ENDBRANCH   1  20
TORSDOF 10
ENDMDL
MODEL 10
REMARK VINA RESULT:    -3.685     26.749     28.406
REMARK INTER + INTRA:          -6.120
REMARK INTER:                  -5.623
REMARK INTRA:                  -0.497
REMARK UNBOUND:                -0.497
REMARK  Name = 8174
REMARK  10 active torsions:
REMARK  status: ('A' for Active; 'I' for Inactive)
REMARK    1  A    between atoms: O_1  and  C_10
REMARK    2  A    between atoms: C_2  and  C_3
REMARK    3  A    between atoms: C_2  and  C_4
REMARK    4  A    between atoms: C_3  and  C_5
REMARK    5  A    between atoms: C_4  and  C_6
REMARK    6  A    between atoms: C_5  and  C_7
REMARK    7  A    between atoms: C_6  and  C_8
REMARK    8  A    between atoms: C_7  and  C_9
REMARK    9  A    between atoms: C_8  and  C_10
REMARK   10  A    between atoms: C_9  and  C_11
REMARK                            x       y       z     vdW  Elec       q    Type
REMARK                         _______ _______ _______ _____ _____    ______ ____
ROOT
ATOM      1  C   UNL     1     -15.806 -11.047   1.543  0.00  0.00    +0.000 C 
ATOM      2  H   UNL     1     -14.972 -11.725   1.323  0.00  0.00    +0.000 HD
ATOM      3  H   UNL     1     -16.644 -11.359   0.907  0.00  0.00    +0.000 HD
ENDROOT
BRANCH   1   4
ATOM      4  C   UNL     1     -15.398  -9.620   1.165  0.00  0.00    +0.000 C 
ATOM      5  H   UNL     1     -14.488  -9.657   0.553  0.00  0.00    +0.000 HD
ATOM      6  H   UNL     1     -15.141  -9.072   2.079  0.00  0.00    +0.000 HD
BRANCH   4   7
ATOM      7  C   UNL     1     -16.486  -8.855   0.410  0.00  0.00    +0.000 C 
ATOM      8  H   UNL     1     -17.014  -8.188   1.101  0.00  0.00    +0.000 HD
ATOM      9  H   UNL     1     -16.022  -8.223  -0.358  0.00  0.00    +0.000 HD
BRANCH   7  10
ATOM     10  C   UNL     1     -17.482  -9.813  -0.249  0.00  0.00    +0.000 C 
ATOM     11  H   UNL     1     -18.421  -9.815   0.317  0.00  0.00    +0.000 HD
ATOM     12  H   UNL     1     -17.084 -10.835  -0.216  0.00  0.00    +0.000 HD
BRANCH  10  13
ATOM     13  C   UNL     1     -17.756  -9.420  -1.700  0.00  0.00    +0.000 C 
ATOM     14  H   UNL     1     -17.627  -8.338  -1.824  0.00  0.00    +0.000 HD
ATOM     15  H   UNL     1     -18.795  -9.655  -1.959  0.00  0.00    +0.000 HD
BRANCH  13  16
ATOM     16  C   UNL     1     -16.824 -10.143  -2.659  0.00  0.00    +0.000 C 
ATOM     17  H   UNL     1     -17.301 -11.041  -3.067  0.00  0.00    +0.000 HD
ATOM     18  H   UNL     1     -15.899 -10.442  -2.157  0.00  0.00    +0.000 HD
ATOM     19  H   UNL     1     -16.560  -9.489  -3.496  0.00  0.00    +0.000 HD
ENDBRANCH  13  16
ENDBRANCH  10  13
ENDBRANCH   7  10
ENDBRANCH   4   7
ENDBRANCH   1   4
BRANCH   1  20
ATOM     20  C   UNL     1     -16.210 -11.196   3.011  0.00  0.00    +0.000 C 
ATOM     21  H   UNL     1     -15.943 -10.283   3.557  0.00  0.00    +0.000 HD
ATOM     22  H   UNL     1     -15.646 -12.021   3.464  0.00  0.00    +0.000 HD
BRANCH  20  23
ATOM     23  C   UNL     1     -17.711 -11.462   3.149  0.00  0.00    +0.000 C 
ATOM     24  H   UNL     1     -17.907 -12.536   3.053  0.00  0.00    +0.000 HD
ATOM     25  H   UNL     1     -18.249 -10.960   2.335  0.00  0.00    +0.000 HD
BRANCH  23  26
ATOM     26  C   UNL     1     -18.242 -10.962   4.496  0.00  0.00    +0.000 C 
ATOM     27  H   UNL     1     -17.453 -10.424   5.036  0.00  0.00    +0.000 HD
ATOM     28  H   UNL     1     -19.047 -10.232   4.338  0.00  0.00    +0.000 HD
BRANCH  26  29
ATOM     29  C   UNL     1     -18.764 -12.098   5.367  0.00  0.00    +0.000 C 
ATOM     30  H   UNL     1     -17.933 -12.676   5.785  0.00  0.00    +0.000 HD
ATOM     31  H   UNL     1     -19.402 -12.770   4.783  0.00  0.00    +0.000 HD
BRANCH  29  32
ATOM     32  O   UNL     1     -19.529 -11.572   6.441  0.00  0.00    +0.000 OA
ATOM     33  H   UNL     1     -19.099 -10.745   6.720  0.00  0.00    +0.000 HD
ENDBRANCH  29  32
ENDBRANCH  26  29
ENDBRANCH  23  26
ENDBRANCH  20  23
ENDBRANCH   1  20
TORSDOF 10
ENDMDL
