MODEL 1
REMARK VINA RESULT:    -3.846      0.000      0.000
REMARK INTER + INTRA:          -7.518
REMARK INTER:                  -7.132
REMARK INTRA:                  -0.386
REMARK UNBOUND:                -1.198
REMARK  Name = 8193
REMARK  12 active torsions:
REMARK  status: ('A' for Active; 'I' for Inactive)
REMARK    1  A    between atoms: O_1  and  C_12
REMARK    2  A    between atoms: C_2  and  C_3
REMARK    3  A    between atoms: C_2  and  C_4
REMARK    4  A    between atoms: C_3  and  C_5
REMARK    5  A    between atoms: C_4  and  C_6
REMARK    6  A    between atoms: C_5  and  C_7
REMARK    7  A    between atoms: C_6  and  C_8
REMARK    8  A    between atoms: C_7  and  C_9
REMARK    9  A    between atoms: C_8  and  C_10
REMARK   10  A    between atoms: C_9  and  C_11
REMARK   11  A    between atoms: C_10  and  C_12
REMARK   12  A    between atoms: C_11  and  C_13
REMARK                            x       y       z     vdW  Elec       q    Type
REMARK                         _______ _______ _______ _____ _____    ______ ____
ROOT
ATOM      1  C   UNL     1     -18.896 -12.408   4.063  0.00  0.00    +0.000 C 
ATOM      2  H   UNL     1     -19.908 -12.801   3.911  0.00  0.00    +0.000 HD
ATOM      3  H   UNL     1     -18.206 -13.253   3.946  0.00  0.00    +0.000 HD
ENDROOT
BRANCH   1   4
ATOM      4  C   UNL     1     -18.781 -11.868   5.494  0.00  0.00    +0.000 C 
ATOM      5  H   UNL     1     -19.255 -10.879   5.530  0.00  0.00    +0.000 HD
ATOM      6  H   UNL     1     -17.720 -11.709   5.725  0.00  0.00    +0.000 HD
BRANCH   4   7
ATOM      7  C   UNL     1     -19.388 -12.747   6.593  0.00  0.00    +0.000 C 
ATOM      8  H   UNL     1     -18.675 -12.833   7.422  0.00  0.00    +0.000 HD
ATOM      9  H   UNL     1     -19.535 -13.758   6.194  0.00  0.00    +0.000 HD
BRANCH   7  10
ATOM     10  C   UNL     1     -20.723 -12.219   7.125  0.00  0.00    +0.000 C 
ATOM     11  H   UNL     1     -21.026 -11.346   6.534  0.00  0.00    +0.000 HD
ATOM     12  H   UNL     1     -20.588 -11.871   8.157  0.00  0.00    +0.000 HD
BRANCH  10  13
ATOM     13  C   UNL     1     -21.848 -13.259   7.084  0.00  0.00    +0.000 C 
ATOM     14  H   UNL     1     -21.814 -13.788   6.124  0.00  0.00    +0.000 HD
ATOM     15  H   UNL     1     -21.663 -14.009   7.864  0.00  0.00    +0.000 HD
BRANCH  13  16
ATOM     16  C   UNL     1     -23.241 -12.661   7.278  0.00  0.00    +0.000 C 
ATOM     17  H   UNL     1     -23.163 -11.576   7.417  0.00  0.00    +0.000 HD
ATOM     18  H   UNL     1     -23.698 -13.072   8.185  0.00  0.00    +0.000 HD
BRANCH  16  19
ATOM     19  C   UNL     1     -24.141 -12.956   6.087  0.00  0.00    +0.000 C 
ATOM     20  H   UNL     1     -25.196 -12.840   6.355  0.00  0.00    +0.000 HD
ATOM     21  H   UNL     1     -23.921 -12.264   5.266  0.00  0.00    +0.000 HD
ATOM     22  H   UNL     1     -23.987 -13.976   5.723  0.00  0.00    +0.000 HD
ENDBRANCH  16  19
ENDBRANCH  13  16
ENDBRANCH  10  13
ENDBRANCH   7  10
ENDBRANCH   4   7
ENDBRANCH   1   4
BRANCH   1  23
ATOM     23  C   UNL     1     -18.589 -11.359   2.992  0.00  0.00    +0.000 C 
ATOM     24  H   UNL     1     -19.436 -10.666   2.912  0.00  0.00    +0.000 HD
ATOM     25  H   UNL     1     -18.493 -11.857   2.020  0.00  0.00    +0.000 HD
BRANCH  23  26
ATOM     26  C   UNL     1     -17.313 -10.560   3.276  0.00  0.00    +0.000 C 
ATOM     27  H   UNL     1     -17.045 -10.675   4.333  0.00  0.00    +0.000 HD
ATOM     28  H   UNL     1     -16.488 -10.987   2.692  0.00  0.00    +0.000 HD
BRANCH  26  29
ATOM     29  C   UNL     1     -17.444  -9.071   2.946  0.00  0.00    +0.000 C 
ATOM     30  H   UNL     1     -17.194  -8.476   3.832  0.00  0.00    +0.000 HD
ATOM     31  H   UNL     1     -18.483  -8.841   2.683  0.00  0.00    +0.000 HD
BRANCH  29  32
ATOM     32  C   UNL     1     -16.523  -8.679   1.785  0.00  0.00    +0.000 C 
ATOM     33  H   UNL     1     -17.117  -8.469   0.887  0.00  0.00    +0.000 HD
ATOM     34  H   UNL     1     -15.996  -7.746   2.019  0.00  0.00    +0.000 HD
BRANCH  32  35
ATOM     35  C   UNL     1     -15.502  -9.765   1.467  0.00  0.00    +0.000 C 
ATOM     36  H   UNL     1     -14.494  -9.437   1.737  0.00  0.00    +0.000 HD
ATOM     37  H   UNL     1     -15.734 -10.683   2.016  0.00  0.00    +0.000 HD
BRANCH  35  38
ATOM     38  O   UNL     1     -15.524 -10.058   0.077  0.00  0.00    +0.000 OA
ATOM     39  H   UNL     1     -14.652 -10.424  -0.150  0.00  0.00    +0.000 HD
ENDBRANCH  35  38
ENDBRANCH  32  35
ENDBRANCH  29  32
ENDBRANCH  26  29
ENDBRANCH  23  26
ENDBRANCH   1  23
TORSDOF 12
ENDMDL
MODEL 2
REMARK VINA RESULT:    -3.825      3.912      5.384
REMARK INTER + INTRA:          -7.482
REMARK INTER:                  -5.921
REMARK INTRA:                  -1.561
REMARK UNBOUND:                -1.198
REMARK  Name = 8193
REMARK  12 active torsions:
REMARK  status: ('A' for Active; 'I' for Inactive)
REMARK    1  A    between atoms: O_1  and  C_12
REMARK    2  A    between atoms: C_2  and  C_3
REMARK    3  A    between atoms: C_2  and  C_4
REMARK    4  A    between atoms: C_3  and  C_5
REMARK    5  A    between atoms: C_4  and  C_6
REMARK    6  A    between atoms: C_5  and  C_7
REMARK    7  A    between atoms: C_6  and  C_8
REMARK    8  A    between atoms: C_7  and  C_9
REMARK    9  A    between atoms: C_8  and  C_10
REMARK   10  A    between atoms: C_9  and  C_11
REMARK   11  A    between atoms: C_10  and  C_12
REMARK   12  A    between atoms: C_11  and  C_13
REMARK                            x       y       z     vdW  Elec       q    Type
REMARK                         _______ _______ _______ _____ _____    ______ ____
ROOT
ATOM      1  C   UNL     1     -15.727  -9.790   1.851  0.00  0.00    +0.000 C 
ATOM      2  H   UNL     1     -15.799 -10.810   2.246  0.00  0.00    +0.000 HD
ATOM      3  H   UNL     1     -14.787  -9.369   2.227  0.00  0.00    +0.000 HD
ENDROOT
BRANCH   1   4
ATOM      4  C   UNL     1     -16.896  -8.960   2.395  0.00  0.00    +0.000 C 
ATOM      5  H   UNL     1     -17.514  -8.634   1.549  0.00  0.00    +0.000 HD
ATOM      6  H   UNL     1     -16.496  -8.047   2.854  0.00  0.00    +0.000 HD
BRANCH   4   7
ATOM      7  C   UNL     1     -17.795  -9.661   3.420  0.00  0.00    +0.000 C 
ATOM      8  H   UNL     1     -18.684  -9.045   3.603  0.00  0.00    +0.000 HD
ATOM      9  H   UNL     1     -17.255  -9.730   4.372  0.00  0.00    +0.000 HD
BRANCH   7  10
ATOM     10  C   UNL     1     -18.230 -11.064   2.988  0.00  0.00    +0.000 C 
ATOM     11  H   UNL     1     -18.672 -11.584   3.847  0.00  0.00    +0.000 HD
ATOM     12  H   UNL     1     -17.346 -11.640   2.690  0.00  0.00    +0.000 HD
BRANCH  10  13
ATOM     13  C   UNL     1     -19.243 -11.059   1.838  0.00  0.00    +0.000 C 
ATOM     14  H   UNL     1     -20.252 -11.199   2.246  0.00  0.00    +0.000 HD
ATOM     15  H   UNL     1     -19.230 -10.070   1.362  0.00  0.00    +0.000 HD
BRANCH  13  16
ATOM     16  C   UNL     1     -18.975 -12.133   0.784  0.00  0.00    +0.000 C 
ATOM     17  H   UNL     1     -18.917 -11.672  -0.209  0.00  0.00    +0.000 HD
ATOM     18  H   UNL     1     -19.807 -12.846   0.762  0.00  0.00    +0.000 HD
BRANCH  16  19
ATOM     19  C   UNL     1     -17.682 -12.881   1.071  0.00  0.00    +0.000 C 
ATOM     20  H   UNL     1     -17.526 -13.686   0.345  0.00  0.00    +0.000 HD
ATOM     21  H   UNL     1     -16.828 -12.198   1.010  0.00  0.00    +0.000 HD
ATOM     22  H   UNL     1     -17.698 -13.319   2.074  0.00  0.00    +0.000 HD
ENDBRANCH  16  19
ENDBRANCH  13  16
ENDBRANCH  10  13
ENDBRANCH   7  10
ENDBRANCH   4   7
ENDBRANCH   1   4
BRANCH   1  23
ATOM     23  C   UNL     1     -15.679  -9.837   0.322  0.00  0.00    +0.000 C 
ATOM     24  H   UNL     1     -15.598 -10.882  -0.005  0.00  0.00    +0.000 HD
ATOM     25  H   UNL     1     -14.771  -9.327  -0.024  0.00  0.00    +0.000 HD
BRANCH  23  26
ATOM     26  C   UNL     1     -16.901  -9.197  -0.343  0.00  0.00    +0.000 C 
ATOM     27  H   UNL     1     -17.760  -9.275   0.334  0.00  0.00    +0.000 HD
ATOM     28  H   UNL     1     -16.707  -8.127  -0.488  0.00  0.00    +0.000 HD
BRANCH  26  29
ATOM     29  C   UNL     1     -17.259  -9.830  -1.690  0.00  0.00    +0.000 C 
ATOM     30  H   UNL     1     -17.251  -9.059  -2.470  0.00  0.00    +0.000 HD
ATOM     31  H   UNL     1     -18.276 -10.238  -1.647  0.00  0.00    +0.000 HD
BRANCH  29  32
ATOM     32  C   UNL     1     -16.274 -10.945  -2.057  0.00  0.00    +0.000 C 
ATOM     33  H   UNL     1     -15.293 -10.744  -1.610  0.00  0.00    +0.000 HD
ATOM     34  H   UNL     1     -16.607 -11.899  -1.629  0.00  0.00    +0.000 HD
BRANCH  32  35
ATOM     35  C   UNL     1     -16.115 -11.100  -3.565  0.00  0.00    +0.000 C 
ATOM     36  H   UNL     1     -15.517 -11.986  -3.800  0.00  0.00    +0.000 HD
ATOM     37  H   UNL     1     -17.093 -11.195  -4.047  0.00  0.00    +0.000 HD
BRANCH  35  38
ATOM     38  O   UNL     1     -15.460  -9.959  -4.102  0.00  0.00    +0.000 OA
ATOM     39  H   UNL     1     -15.605  -9.974  -5.063  0.00  0.00    +0.000 HD
ENDBRANCH  35  38
ENDBRANCH  32  35
ENDBRANCH  29  32
ENDBRANCH  26  29
ENDBRANCH  23  26
ENDBRANCH   1  23
TORSDOF 12
ENDMDL
MODEL 3
REMARK VINA RESULT:    -3.742      3.107      7.039
REMARK INTER + INTRA:          -7.346
REMARK INTER:                  -6.510
REMARK INTRA:                  -0.836
REMARK UNBOUND:                -1.198
REMARK  Name = 8193
REMARK  12 active torsions:
REMARK  status: ('A' for Active; 'I' for Inactive)
REMARK    1  A    between atoms: O_1  and  C_12
REMARK    2  A    between atoms: C_2  and  C_3
REMARK    3  A    between atoms: C_2  and  C_4
REMARK    4  A    between atoms: C_3  and  C_5
REMARK    5  A    between atoms: C_4  and  C_6
REMARK    6  A    between atoms: C_5  and  C_7
REMARK    7  A    between atoms: C_6  and  C_8
REMARK    8  A    between atoms: C_7  and  C_9
REMARK    9  A    between atoms: C_8  and  C_10
REMARK   10  A    between atoms: C_9  and  C_11
REMARK   11  A    between atoms: C_10  and  C_12
REMARK   12  A    between atoms: C_11  and  C_13
REMARK                            x       y       z     vdW  Elec       q    Type
REMARK                         _______ _______ _______ _____ _____    ______ ____
ROOT
ATOM      1  C   UNL     1     -17.345  -9.230   3.104  0.00  0.00    +0.000 C 
ATOM      2  H   UNL     1     -17.915  -8.404   3.548  0.00  0.00    +0.000 HD
ATOM      3  H   UNL     1     -16.637  -9.573   3.868  0.00  0.00    +0.000 HD
ENDROOT
BRANCH   1   4
ATOM      4  C   UNL     1     -16.560  -8.701   1.898  0.00  0.00    +0.000 C 
ATOM      5  H   UNL     1     -15.956  -7.846   2.225  0.00  0.00    +0.000 HD
ATOM      6  H   UNL     1     -17.272  -8.311   1.158  0.00  0.00    +0.000 HD
BRANCH   4   7
ATOM      7  C   UNL     1     -15.645  -9.713   1.199  0.00  0.00    +0.000 C 
ATOM      8  H   UNL     1     -15.548 -10.607   1.827  0.00  0.00    +0.000 HD
ATOM      9  H   UNL     1     -14.642  -9.278   1.110  0.00  0.00    +0.000 HD
BRANCH   7  10
ATOM     10  C   UNL     1     -16.140 -10.122  -0.191  0.00  0.00    +0.000 C 
ATOM     11  H   UNL     1     -16.591 -11.120  -0.133  0.00  0.00    +0.000 HD
ATOM     12  H   UNL     1     -15.282 -10.201  -0.870  0.00  0.00    +0.000 HD
BRANCH  10  13
ATOM     13  C   UNL     1     -17.166  -9.149  -0.781  0.00  0.00    +0.000 C 
ATOM     14  H   UNL     1     -17.665  -8.613   0.036  0.00  0.00    +0.000 HD
ATOM     15  H   UNL     1     -16.636  -8.395  -1.376  0.00  0.00    +0.000 HD
BRANCH  13  16
ATOM     16  C   UNL     1     -18.222  -9.829  -1.652  0.00  0.00    +0.000 C 
ATOM     17  H   UNL     1     -17.735 -10.486  -2.382  0.00  0.00    +0.000 HD
ATOM     18  H   UNL     1     -18.780  -9.073  -2.217  0.00  0.00    +0.000 HD
BRANCH  16  19
ATOM     19  C   UNL     1     -19.195 -10.642  -0.810  0.00  0.00    +0.000 C 
ATOM     20  H   UNL     1     -20.229 -10.455  -1.117  0.00  0.00    +0.000 HD
ATOM     21  H   UNL     1     -18.994 -11.712  -0.928  0.00  0.00    +0.000 HD
ATOM     22  H   UNL     1     -19.099 -10.392   0.251  0.00  0.00    +0.000 HD
ENDBRANCH  16  19
ENDBRANCH  13  16
ENDBRANCH  10  13
ENDBRANCH   7  10
ENDBRANCH   4   7
ENDBRANCH   1   4
BRANCH   1  23
ATOM     23  C   UNL     1     -18.297 -10.376   2.753  0.00  0.00    +0.000 C 
ATOM     24  H   UNL     1     -18.418 -10.424   1.663  0.00  0.00    +0.000 HD
ATOM     25  H   UNL     1     -19.287 -10.161   3.173  0.00  0.00    +0.000 HD
BRANCH  23  26
ATOM     26  C   UNL     1     -17.818 -11.738   3.265  0.00  0.00    +0.000 C 
ATOM     27  H   UNL     1     -17.557 -12.372   2.409  0.00  0.00    +0.000 HD
ATOM     28  H   UNL     1     -16.899 -11.596   3.847  0.00  0.00    +0.000 HD
BRANCH  26  29
ATOM     29  C   UNL     1     -18.855 -12.458   4.131  0.00  0.00    +0.000 C 
ATOM     30  H   UNL     1     -18.583 -13.516   4.223  0.00  0.00    +0.000 HD
ATOM     31  H   UNL     1     -19.836 -12.416   3.644  0.00  0.00    +0.000 HD
BRANCH  29  32
ATOM     32  C   UNL     1     -18.947 -11.826   5.525  0.00  0.00    +0.000 C 
ATOM     33  H   UNL     1     -17.955 -11.801   5.993  0.00  0.00    +0.000 HD
ATOM     34  H   UNL     1     -19.266 -10.779   5.444  0.00  0.00    +0.000 HD
BRANCH  32  35
ATOM     35  C   UNL     1     -19.912 -12.576   6.435  0.00  0.00    +0.000 C 
ATOM     36  H   UNL     1     -20.938 -12.230   6.278  0.00  0.00    +0.000 HD
ATOM     37  H   UNL     1     -19.869 -13.652   6.238  0.00  0.00    +0.000 HD
BRANCH  35  38
ATOM     38  O   UNL     1     -19.565 -12.356   7.795  0.00  0.00    +0.000 OA
ATOM     39  H   UNL     1     -19.185 -11.463   7.850  0.00  0.00    +0.000 HD
ENDBRANCH  35  38
ENDBRANCH  32  35
ENDBRANCH  29  32
ENDBRANCH  26  29
ENDBRANCH  23  26
ENDBRANCH   1  23
TORSDOF 12
ENDMDL
MODEL 4
REMARK VINA RESULT:    -3.722      3.381      7.442
REMARK INTER + INTRA:          -7.313
REMARK INTER:                  -6.752
REMARK INTRA:                  -0.562
REMARK UNBOUND:                -1.198
REMARK  Name = 8193
REMARK  12 active torsions:
REMARK  status: ('A' for Active; 'I' for Inactive)
REMARK    1  A    between atoms: O_1  and  C_12
REMARK    2  A    between atoms: C_2  and  C_3
REMARK    3  A    between atoms: C_2  and  C_4
REMARK    4  A    between atoms: C_3  and  C_5
REMARK    5  A    between atoms: C_4  and  C_6
REMARK    6  A    between atoms: C_5  and  C_7
REMARK    7  A    between atoms: C_6  and  C_8
REMARK    8  A    between atoms: C_7  and  C_9
REMARK    9  A    between atoms: C_8  and  C_10
REMARK   10  A    between atoms: C_9  and  C_11
REMARK   11  A    between atoms: C_10  and  C_12
REMARK   12  A    between atoms: C_11  and  C_13
REMARK                            x       y       z     vdW  Elec       q    Type
REMARK                         _______ _______ _______ _____ _____    ______ ____
ROOT
ATOM      1  C   UNL     1     -18.729 -12.756   4.563  0.00  0.00    +0.000 C 
ATOM      2  H   UNL     1     -17.875 -13.404   4.796  0.00  0.00    +0.000 HD
ATOM      3  H   UNL     1     -19.531 -13.407   4.194  0.00  0.00    +0.000 HD
ENDROOT
BRANCH   1   4
ATOM      4  C   UNL     1     -18.326 -11.782   3.450  0.00  0.00    +0.000 C 
ATOM      5  H   UNL     1     -18.990 -11.943   2.591  0.00  0.00    +0.000 HD
ATOM      6  H   UNL     1     -17.315 -12.036   3.108  0.00  0.00    +0.000 HD
BRANCH   4   7
ATOM      7  C   UNL     1     -18.351 -10.295   3.820  0.00  0.00    +0.000 C 
ATOM      8  H   UNL     1     -18.444 -10.194   4.908  0.00  0.00    +0.000 HD
ATOM      9  H   UNL     1     -19.246  -9.838   3.381  0.00  0.00    +0.000 HD
BRANCH   7  10
ATOM     10  C   UNL     1     -17.113  -9.529   3.344  0.00  0.00    +0.000 C 
ATOM     11  H   UNL     1     -16.607  -9.089   4.212  0.00  0.00    +0.000 HD
ATOM     12  H   UNL     1     -17.428  -8.695   2.705  0.00  0.00    +0.000 HD
BRANCH  10  13
ATOM     13  C   UNL     1     -16.114 -10.405   2.580  0.00  0.00    +0.000 C 
ATOM     14  H   UNL     1     -15.300 -10.695   3.255  0.00  0.00    +0.000 HD
ATOM     15  H   UNL     1     -16.617 -11.331   2.276  0.00  0.00    +0.000 HD
BRANCH  13  16
ATOM     16  C   UNL     1     -15.522  -9.722   1.347  0.00  0.00    +0.000 C 
ATOM     17  H   UNL     1     -15.572 -10.400   0.487  0.00  0.00    +0.000 HD
ATOM     18  H   UNL     1     -14.464  -9.495   1.521  0.00  0.00    +0.000 HD
BRANCH  16  19
ATOM     19  C   UNL     1     -16.262  -8.433   1.018  0.00  0.00    +0.000 C 
ATOM     20  H   UNL     1     -15.578  -7.683   0.609  0.00  0.00    +0.000 HD
ATOM     21  H   UNL     1     -17.042  -8.624   0.274  0.00  0.00    +0.000 HD
ATOM     22  H   UNL     1     -16.737  -8.016   1.912  0.00  0.00    +0.000 HD
ENDBRANCH  16  19
ENDBRANCH  13  16
ENDBRANCH  10  13
ENDBRANCH   7  10
ENDBRANCH   4   7
ENDBRANCH   1   4
BRANCH   1  23
ATOM     23  C   UNL     1     -19.201 -12.056   5.840  0.00  0.00    +0.000 C 
ATOM     24  H   UNL     1     -20.179 -11.592   5.657  0.00  0.00    +0.000 HD
ATOM     25  H   UNL     1     -18.505 -11.243   6.080  0.00  0.00    +0.000 HD
BRANCH  23  26
ATOM     26  C   UNL     1     -19.309 -12.998   7.042  0.00  0.00    +0.000 C 
ATOM     27  H   UNL     1     -18.649 -13.859   6.884  0.00  0.00    +0.000 HD
ATOM     28  H   UNL     1     -18.943 -12.478   7.936  0.00  0.00    +0.000 HD
BRANCH  26  29
ATOM     29  C   UNL     1     -20.735 -13.494   7.298  0.00  0.00    +0.000 C 
ATOM     30  H   UNL     1     -20.801 -13.912   8.309  0.00  0.00    +0.000 HD
ATOM     31  H   UNL     1     -20.976 -14.301   6.596  0.00  0.00    +0.000 HD
BRANCH  29  32
ATOM     32  C   UNL     1     -21.752 -12.357   7.141  0.00  0.00    +0.000 C 
ATOM     33  H   UNL     1     -21.637 -11.634   7.958  0.00  0.00    +0.000 HD
ATOM     34  H   UNL     1     -21.555 -11.799   6.217  0.00  0.00    +0.000 HD
BRANCH  32  35
ATOM     35  C   UNL     1     -23.188 -12.868   7.123  0.00  0.00    +0.000 C 
ATOM     36  H   UNL     1     -23.888 -12.058   7.347  0.00  0.00    +0.000 HD
ATOM     37  H   UNL     1     -23.434 -13.287   6.142  0.00  0.00    +0.000 HD
BRANCH  35  38
ATOM     38  O   UNL     1     -23.351 -13.888   8.099  0.00  0.00    +0.000 OA
ATOM     39  H   UNL     1     -22.553 -13.881   8.654  0.00  0.00    +0.000 HD
ENDBRANCH  35  38
ENDBRANCH  32  35
ENDBRANCH  29  32
ENDBRANCH  26  29
ENDBRANCH  23  26
ENDBRANCH   1  23
TORSDOF 12
ENDMDL
MODEL 5
REMARK VINA RESULT:    -3.652     15.173     16.881
REMARK INTER + INTRA:          -7.199
REMARK INTER:                  -6.650
REMARK INTRA:                  -0.549
REMARK UNBOUND:                -1.198
REMARK  Name = 8193
REMARK  12 active torsions:
REMARK  status: ('A' for Active; 'I' for Inactive)
REMARK    1  A    between atoms: O_1  and  C_12
REMARK    2  A    between atoms: C_2  and  C_3
REMARK    3  A    between atoms: C_2  and  C_4
REMARK    4  A    between atoms: C_3  and  C_5
REMARK    5  A    between atoms: C_4  and  C_6
REMARK    6  A    between atoms: C_5  and  C_7
REMARK    7  A    between atoms: C_6  and  C_8
REMARK    8  A    between atoms: C_7  and  C_9
REMARK    9  A    between atoms: C_8  and  C_10
REMARK   10  A    between atoms: C_9  and  C_11
REMARK   11  A    between atoms: C_10  and  C_12
REMARK   12  A    between atoms: C_11  and  C_13
REMARK                            x       y       z     vdW  Elec       q    Type
REMARK                         _______ _______ _______ _____ _____    ______ ____
ROOT
ATOM      1  C   UNL     1     -13.902 -13.741  19.568  0.00  0.00    +0.000 C 
ATOM      2  H   UNL     1     -14.822 -14.303  19.765  0.00  0.00    +0.000 HD
ATOM      3  H   UNL     1     -13.548 -14.049  18.576  0.00  0.00    +0.000 HD
ENDROOT
BRANCH   1   4
ATOM      4  C   UNL     1     -12.848 -14.125  20.613  0.00  0.00    +0.000 C 
ATOM      5  H   UNL     1     -12.744 -13.295  21.323  0.00  0.00    +0.000 HD
ATOM      6  H   UNL     1     -11.876 -14.226  20.113  0.00  0.00    +0.000 HD
BRANCH   4   7
ATOM      7  C   UNL     1     -13.122 -15.413  21.398  0.00  0.00    +0.000 C 
ATOM      8  H   UNL     1     -12.309 -15.580  22.115  0.00  0.00    +0.000 HD
ATOM      9  H   UNL     1     -13.109 -16.260  20.701  0.00  0.00    +0.000 HD
BRANCH   7  10
ATOM     10  C   UNL     1     -14.459 -15.398  22.143  0.00  0.00    +0.000 C 
ATOM     11  H   UNL     1     -14.616 -16.373  22.620  0.00  0.00    +0.000 HD
ATOM     12  H   UNL     1     -15.274 -15.265  21.420  0.00  0.00    +0.000 HD
BRANCH  10  13
ATOM     13  C   UNL     1     -14.547 -14.304  23.213  0.00  0.00    +0.000 C 
ATOM     14  H   UNL     1     -14.279 -14.731  24.187  0.00  0.00    +0.000 HD
ATOM     15  H   UNL     1     -13.799 -13.533  22.990  0.00  0.00    +0.000 HD
BRANCH  13  16
ATOM     16  C   UNL     1     -15.928 -13.656  23.313  0.00  0.00    +0.000 C 
ATOM     17  H   UNL     1     -16.695 -14.365  22.980  0.00  0.00    +0.000 HD
ATOM     18  H   UNL     1     -15.978 -12.787  22.647  0.00  0.00    +0.000 HD
BRANCH  16  19
ATOM     19  C   UNL     1     -16.231 -13.214  24.737  0.00  0.00    +0.000 C 
ATOM     20  H   UNL     1     -16.271 -14.073  25.414  0.00  0.00    +0.000 HD
ATOM     21  H   UNL     1     -15.451 -12.534  25.096  0.00  0.00    +0.000 HD
ATOM     22  H   UNL     1     -17.190 -12.689  24.788  0.00  0.00    +0.000 HD
ENDBRANCH  16  19
ENDBRANCH  13  16
ENDBRANCH  10  13
ENDBRANCH   7  10
ENDBRANCH   4   7
ENDBRANCH   1   4
BRANCH   1  23
ATOM     23  C   UNL     1     -14.213 -12.242  19.544  0.00  0.00    +0.000 C 
ATOM     24  H   UNL     1     -13.363 -11.703  19.106  0.00  0.00    +0.000 HD
ATOM     25  H   UNL     1     -14.319 -11.882  20.575  0.00  0.00    +0.000 HD
BRANCH  23  26
ATOM     26  C   UNL     1     -15.483 -11.901  18.759  0.00  0.00    +0.000 C 
ATOM     27  H   UNL     1     -15.778 -12.769  18.157  0.00  0.00    +0.000 HD
ATOM     28  H   UNL     1     -16.300 -11.714  19.467  0.00  0.00    +0.000 HD
BRANCH  26  29
ATOM     29  C   UNL     1     -15.322 -10.683  17.846  0.00  0.00    +0.000 C 
ATOM     30  H   UNL     1     -16.049 -10.740  17.028  0.00  0.00    +0.000 HD
ATOM     31  H   UNL     1     -14.323 -10.690  17.394  0.00  0.00    +0.000 HD
BRANCH  29  32
ATOM     32  C   UNL     1     -15.522  -9.377  18.624  0.00  0.00    +0.000 C 
ATOM     33  H   UNL     1     -16.256  -9.525  19.426  0.00  0.00    +0.000 HD
ATOM     34  H   UNL     1     -14.589  -9.088  19.123  0.00  0.00    +0.000 HD
BRANCH  32  35
ATOM     35  C   UNL     1     -15.985  -8.237  17.726  0.00  0.00    +0.000 C 
ATOM     36  H   UNL     1     -16.809  -7.689  18.192  0.00  0.00    +0.000 HD
ATOM     37  H   UNL     1     -15.163  -7.541  17.532  0.00  0.00    +0.000 HD
BRANCH  35  38
ATOM     38  O   UNL     1     -16.436  -8.753  16.481  0.00  0.00    +0.000 OA
ATOM     39  H   UNL     1     -16.863  -9.607  16.666  0.00  0.00    +0.000 HD
ENDBRANCH  35  38
ENDBRANCH  32  35
ENDBRANCH  29  32
ENDBRANCH  26  29
ENDBRANCH  23  26
ENDBRANCH   1  23
TORSDOF 12
ENDMDL
MODEL 6
REMARK VINA RESULT:    -3.608     35.582     37.950
REMARK INTER + INTRA:          -7.125
REMARK INTER:                  -6.340
REMARK INTRA:                  -0.786
REMARK UNBOUND:                -1.198
REMARK  Name = 8193
REMARK  12 active torsions:
REMARK  status: ('A' for Active; 'I' for Inactive)
REMARK    1  A    between atoms: O_1  and  C_12
REMARK    2  A    between atoms: C_2  and  C_3
REMARK    3  A    between atoms: C_2  and  C_4
REMARK    4  A    between atoms: C_3  and  C_5
REMARK    5  A    between atoms: C_4  and  C_6
REMARK    6  A    between atoms: C_5  and  C_7
REMARK    7  A    between atoms: C_6  and  C_8
REMARK    8  A    between atoms: C_7  and  C_9
REMARK    9  A    between atoms: C_8  and  C_10
REMARK   10  A    between atoms: C_9  and  C_11
REMARK   11  A    between atoms: C_10  and  C_12
REMARK   12  A    between atoms: C_11  and  C_13
REMARK                            x       y       z     vdW  Elec       q    Type
REMARK                         _______ _______ _______ _____ _____    ______ ____
ROOT
ATOM      1  C   UNL     1       1.548  12.855 -10.461  0.00  0.00    +0.000 C 
ATOM      2  H   UNL     1       0.867  12.245  -9.856  0.00  0.00    +0.000 HD
ATOM      3  H   UNL     1       0.931  13.382 -11.199  0.00  0.00    +0.000 HD
ENDROOT
BRANCH   1   4
ATOM      4  C   UNL     1       2.525  11.932 -11.198  0.00  0.00    +0.000 C 
ATOM      5  H   UNL     1       2.202  10.894 -11.047  0.00  0.00    +0.000 HD
ATOM      6  H   UNL     1       3.513  12.018 -10.728  0.00  0.00    +0.000 HD
BRANCH   4   7
ATOM      7  C   UNL     1       2.682  12.186 -12.701  0.00  0.00    +0.000 C 
ATOM      8  H   UNL     1       2.372  13.213 -12.929  0.00  0.00    +0.000 HD
ATOM      9  H   UNL     1       1.999  11.521 -13.244  0.00  0.00    +0.000 HD
BRANCH   7  10
ATOM     10  C   UNL     1       4.108  11.962 -13.210  0.00  0.00    +0.000 C 
ATOM     11  H   UNL     1       4.084  11.814 -14.296  0.00  0.00    +0.000 HD
ATOM     12  H   UNL     1       4.506  11.038 -12.773  0.00  0.00    +0.000 HD
BRANCH  10  13
ATOM     13  C   UNL     1       5.056  13.123 -12.891  0.00  0.00    +0.000 C 
ATOM     14  H   UNL     1       4.544  13.835 -12.232  0.00  0.00    +0.000 HD
ATOM     15  H   UNL     1       5.913  12.733 -12.327  0.00  0.00    +0.000 HD
BRANCH  13  16
ATOM     16  C   UNL     1       5.559  13.860 -14.132  0.00  0.00    +0.000 C 
ATOM     17  H   UNL     1       6.196  14.700 -13.832  0.00  0.00    +0.000 HD
ATOM     18  H   UNL     1       4.710  14.278 -14.684  0.00  0.00    +0.000 HD
BRANCH  16  19
ATOM     19  C   UNL     1       6.343  12.932 -15.048  0.00  0.00    +0.000 C 
ATOM     20  H   UNL     1       5.943  11.913 -15.008  0.00  0.00    +0.000 HD
ATOM     21  H   UNL     1       6.280  13.281 -16.084  0.00  0.00    +0.000 HD
ATOM     22  H   UNL     1       7.399  12.900 -14.763  0.00  0.00    +0.000 HD
ENDBRANCH  16  19
ENDBRANCH  13  16
ENDBRANCH  10  13
ENDBRANCH   7  10
ENDBRANCH   4   7
ENDBRANCH   1   4
BRANCH   1  23
ATOM     23  C   UNL     1       2.244  13.883  -9.565  0.00  0.00    +0.000 C 
ATOM     24  H   UNL     1       1.796  13.852  -8.564  0.00  0.00    +0.000 HD
ATOM     25  H   UNL     1       2.060  14.888  -9.964  0.00  0.00    +0.000 HD
BRANCH  23  26
ATOM     26  C   UNL     1       3.754  13.657  -9.446  0.00  0.00    +0.000 C 
ATOM     27  H   UNL     1       3.970  13.171  -8.488  0.00  0.00    +0.000 HD
ATOM     28  H   UNL     1       4.074  12.963 -10.234  0.00  0.00    +0.000 HD
BRANCH  26  29
ATOM     29  C   UNL     1       4.570  14.948  -9.554  0.00  0.00    +0.000 C 
ATOM     30  H   UNL     1       4.262  15.502 -10.448  0.00  0.00    +0.000 HD
ATOM     31  H   UNL     1       5.633  14.705  -9.673  0.00  0.00    +0.000 HD
BRANCH  29  32
ATOM     32  C   UNL     1       4.382  15.827  -8.312  0.00  0.00    +0.000 C 
ATOM     33  H   UNL     1       3.686  16.646  -8.531  0.00  0.00    +0.000 HD
ATOM     34  H   UNL     1       3.917  15.246  -7.506  0.00  0.00    +0.000 HD
BRANCH  32  35
ATOM     35  C   UNL     1       5.699  16.410  -7.814  0.00  0.00    +0.000 C 
ATOM     36  H   UNL     1       6.024  17.234  -8.457  0.00  0.00    +0.000 HD
ATOM     37  H   UNL     1       5.593  16.781  -6.790  0.00  0.00    +0.000 HD
BRANCH  35  38
ATOM     38  O   UNL     1       6.707  15.407  -7.824  0.00  0.00    +0.000 OA
ATOM     39  H   UNL     1       7.040  15.330  -6.914  0.00  0.00    +0.000 HD
ENDBRANCH  35  38
ENDBRANCH  32  35
ENDBRANCH  29  32
ENDBRANCH  26  29
ENDBRANCH  23  26
ENDBRANCH   1  23
TORSDOF 12
ENDMDL
MODEL 7
REMARK VINA RESULT:    -3.543     29.546     31.476
REMARK INTER + INTRA:          -7.019
REMARK INTER:                  -6.374
REMARK INTRA:                  -0.645
REMARK UNBOUND:                -1.198
REMARK  Name = 8193
REMARK  12 active torsions:
REMARK  status: ('A' for Active; 'I' for Inactive)
REMARK    1  A    between atoms: O_1  and  C_12
REMARK    2  A    between atoms: C_2  and  C_3
REMARK    3  A    between atoms: C_2  and  C_4
REMARK    4  A    between atoms: C_3  and  C_5
REMARK    5  A    between atoms: C_4  and  C_6
REMARK    6  A    between atoms: C_5  and  C_7
REMARK    7  A    between atoms: C_6  and  C_8
REMARK    8  A    between atoms: C_7  and  C_9
REMARK    9  A    between atoms: C_8  and  C_10
REMARK   10  A    between atoms: C_9  and  C_11
REMARK   11  A    between atoms: C_10  and  C_12
REMARK   12  A    between atoms: C_11  and  C_13
REMARK                            x       y       z     vdW  Elec       q    Type
REMARK                         _______ _______ _______ _____ _____    ______ ____
ROOT
ATOM      1  C   UNL     1      -0.326   7.691  19.985  0.00  0.00    +0.000 C 
ATOM      2  H   UNL     1      -0.076   6.706  20.397  0.00  0.00    +0.000 HD
ATOM      3  H   UNL     1      -1.335   7.937  20.340  0.00  0.00    +0.000 HD
ENDROOT
BRANCH   1   4
ATOM      4  C   UNL     1      -0.344   7.602  18.455  0.00  0.00    +0.000 C 
ATOM      5  H   UNL     1      -1.299   7.159  18.145  0.00  0.00    +0.000 HD
ATOM      6  H   UNL     1       0.438   6.902  18.134  0.00  0.00    +0.000 HD
BRANCH   4   7
ATOM      7  C   UNL     1      -0.146   8.924  17.704  0.00  0.00    +0.000 C 
ATOM      8  H   UNL     1       0.477   8.747  16.819  0.00  0.00    +0.000 HD
ATOM      9  H   UNL     1       0.408   9.615  18.350  0.00  0.00    +0.000 HD
BRANCH   7  10
ATOM     10  C   UNL     1      -1.460   9.582  17.276  0.00  0.00    +0.000 C 
ATOM     11  H   UNL     1      -1.301  10.661  17.162  0.00  0.00    +0.000 HD
ATOM     12  H   UNL     1      -2.204   9.454  18.071  0.00  0.00    +0.000 HD
BRANCH  10  13
ATOM     13  C   UNL     1      -2.020   9.023  15.963  0.00  0.00    +0.000 C 
ATOM     14  H   UNL     1      -1.285   9.177  15.164  0.00  0.00    +0.000 HD
ATOM     15  H   UNL     1      -2.150   7.939  16.068  0.00  0.00    +0.000 HD
BRANCH  13  16
ATOM     16  C   UNL     1      -3.350   9.654  15.549  0.00  0.00    +0.000 C 
ATOM     17  H   UNL     1      -4.165   8.937  15.703  0.00  0.00    +0.000 HD
ATOM     18  H   UNL     1      -3.328   9.896  14.480  0.00  0.00    +0.000 HD
BRANCH  16  19
ATOM     19  C   UNL     1      -3.633  10.921  16.342  0.00  0.00    +0.000 C 
ATOM     20  H   UNL     1      -3.812  10.691  17.397  0.00  0.00    +0.000 HD
ATOM     21  H   UNL     1      -2.779  11.603  16.283  0.00  0.00    +0.000 HD
ATOM     22  H   UNL     1      -4.513  11.441  15.949  0.00  0.00    +0.000 HD
ENDBRANCH  16  19
ENDBRANCH  13  16
ENDBRANCH  10  13
ENDBRANCH   7  10
ENDBRANCH   4   7
ENDBRANCH   1   4
BRANCH   1  23
ATOM     23  C   UNL     1       0.660   8.733  20.520  0.00  0.00    +0.000 C 
ATOM     24  H   UNL     1       0.200   9.268  21.360  0.00  0.00    +0.000 HD
ATOM     25  H   UNL     1       0.853   9.478  19.738  0.00  0.00    +0.000 HD
BRANCH  23  26
ATOM     26  C   UNL     1       1.990   8.127  20.977  0.00  0.00    +0.000 C 
ATOM     27  H   UNL     1       2.332   8.651  21.878  0.00  0.00    +0.000 HD
ATOM     28  H   UNL     1       1.827   7.080  21.261  0.00  0.00    +0.000 HD
BRANCH  26  29
ATOM     29  C   UNL     1       3.085   8.193  19.909  0.00  0.00    +0.000 C 
ATOM     30  H   UNL     1       4.056   8.362  20.389  0.00  0.00    +0.000 HD
ATOM     31  H   UNL     1       2.900   9.043  19.242  0.00  0.00    +0.000 HD
BRANCH  29  32
ATOM     32  C   UNL     1       3.135   6.899  19.088  0.00  0.00    +0.000 C 
ATOM     33  H   UNL     1       2.993   6.031  19.743  0.00  0.00    +0.000 HD
ATOM     34  H   UNL     1       2.302   6.873  18.373  0.00  0.00    +0.000 HD
BRANCH  32  35
ATOM     35  C   UNL     1       4.449   6.747  18.332  0.00  0.00    +0.000 C 
ATOM     36  H   UNL     1       4.270   6.375  17.318  0.00  0.00    +0.000 HD
ATOM     37  H   UNL     1       4.971   7.707  18.269  0.00  0.00    +0.000 HD
BRANCH  35  38
ATOM     38  O   UNL     1       5.292   5.823  19.008  0.00  0.00    +0.000 OA
ATOM     39  H   UNL     1       5.369   6.130  19.927  0.00  0.00    +0.000 HD
ENDBRANCH  35  38
ENDBRANCH  32  35
ENDBRANCH  29  32
ENDBRANCH  26  29
ENDBRANCH  23  26
ENDBRANCH   1  23
TORSDOF 12
ENDMDL
MODEL 8
REMARK VINA RESULT:    -3.474      1.358      2.692
REMARK INTER + INTRA:          -6.906
REMARK INTER:                  -6.453
REMARK INTRA:                  -0.453
REMARK UNBOUND:                -1.198
REMARK  Name = 8193
REMARK  12 active torsions:
REMARK  status: ('A' for Active; 'I' for Inactive)
REMARK    1  A    between atoms: O_1  and  C_12
REMARK    2  A    between atoms: C_2  and  C_3
REMARK    3  A    between atoms: C_2  and  C_4
REMARK    4  A    between atoms: C_3  and  C_5
REMARK    5  A    between atoms: C_4  and  C_6
REMARK    6  A    between atoms: C_5  and  C_7
REMARK    7  A    between atoms: C_6  and  C_8
REMARK    8  A    between atoms: C_7  and  C_9
REMARK    9  A    between atoms: C_8  and  C_10
REMARK   10  A    between atoms: C_9  and  C_11
REMARK   11  A    between atoms: C_10  and  C_12
REMARK   12  A    between atoms: C_11  and  C_13
REMARK                            x       y       z     vdW  Elec       q    Type
REMARK                         _______ _______ _______ _____ _____    ______ ____
ROOT
ATOM      1  C   UNL     1     -20.035 -12.285   6.830  0.00  0.00    +0.000 C 
ATOM      2  H   UNL     1     -19.451 -12.823   7.586  0.00  0.00    +0.000 HD
ATOM      3  H   UNL     1     -20.001 -11.222   7.100  0.00  0.00    +0.000 HD
ENDROOT
BRANCH   1   4
ATOM      4  C   UNL     1     -21.489 -12.767   6.886  0.00  0.00    +0.000 C 
ATOM      5  H   UNL     1     -22.137 -11.956   6.530  0.00  0.00    +0.000 HD
ATOM      6  H   UNL     1     -21.762 -12.940   7.935  0.00  0.00    +0.000 HD
BRANCH   4   7
ATOM      7  C   UNL     1     -21.805 -14.038   6.090  0.00  0.00    +0.000 C 
ATOM      8  H   UNL     1     -21.703 -14.910   6.746  0.00  0.00    +0.000 HD
ATOM      9  H   UNL     1     -21.058 -14.149   5.295  0.00  0.00    +0.000 HD
BRANCH   7  10
ATOM     10  C   UNL     1     -23.204 -14.033   5.467  0.00  0.00    +0.000 C 
ATOM     11  H   UNL     1     -23.663 -15.019   5.607  0.00  0.00    +0.000 HD
ATOM     12  H   UNL     1     -23.116 -13.876   4.385  0.00  0.00    +0.000 HD
BRANCH  10  13
ATOM     13  C   UNL     1     -24.129 -12.966   6.061  0.00  0.00    +0.000 C 
ATOM     14  H   UNL     1     -24.058 -12.996   7.155  0.00  0.00    +0.000 HD
ATOM     15  H   UNL     1     -23.773 -11.976   5.749  0.00  0.00    +0.000 HD
BRANCH  13  16
ATOM     16  C   UNL     1     -25.593 -13.130   5.650  0.00  0.00    +0.000 C 
ATOM     17  H   UNL     1     -25.720 -12.831   4.602  0.00  0.00    +0.000 HD
ATOM     18  H   UNL     1     -26.224 -12.469   6.254  0.00  0.00    +0.000 HD
BRANCH  16  19
ATOM     19  C   UNL     1     -26.061 -14.567   5.827  0.00  0.00    +0.000 C 
ATOM     20  H   UNL     1     -26.912 -14.785   5.174  0.00  0.00    +0.000 HD
ATOM     21  H   UNL     1     -25.253 -15.261   5.575  0.00  0.00    +0.000 HD
ATOM     22  H   UNL     1     -26.363 -14.755   6.862  0.00  0.00    +0.000 HD
ENDBRANCH  16  19
ENDBRANCH  13  16
ENDBRANCH  10  13
ENDBRANCH   7  10
ENDBRANCH   4   7
ENDBRANCH   1   4
BRANCH   1  23
ATOM     23  C   UNL     1     -19.387 -12.473   5.456  0.00  0.00    +0.000 C 
ATOM     24  H   UNL     1     -20.169 -12.481   4.686  0.00  0.00    +0.000 HD
ATOM     25  H   UNL     1     -18.898 -13.454   5.422  0.00  0.00    +0.000 HD
BRANCH  23  26
ATOM     26  C   UNL     1     -18.360 -11.388   5.118  0.00  0.00    +0.000 C 
ATOM     27  H   UNL     1     -18.560 -10.501   5.731  0.00  0.00    +0.000 HD
ATOM     28  H   UNL     1     -17.360 -11.745   5.393  0.00  0.00    +0.000 HD
BRANCH  26  29
ATOM     29  C   UNL     1     -18.362 -10.992   3.639  0.00  0.00    +0.000 C 
ATOM     30  H   UNL     1     -19.349 -11.195   3.207  0.00  0.00    +0.000 HD
ATOM     31  H   UNL     1     -17.636 -11.604   3.092  0.00  0.00    +0.000 HD
BRANCH  29  32
ATOM     32  C   UNL     1     -18.018  -9.509   3.463  0.00  0.00    +0.000 C 
ATOM     33  H   UNL     1     -18.915  -8.944   3.179  0.00  0.00    +0.000 HD
ATOM     34  H   UNL     1     -17.686  -9.082   4.418  0.00  0.00    +0.000 HD
BRANCH  32  35
ATOM     35  C   UNL     1     -16.935  -9.290   2.413  0.00  0.00    +0.000 C 
ATOM     36  H   UNL     1     -17.299  -9.570   1.419  0.00  0.00    +0.000 HD
ATOM     37  H   UNL     1     -16.625  -8.240   2.393  0.00  0.00    +0.000 HD
BRANCH  35  38
ATOM     38  O   UNL     1     -15.798 -10.086   2.716  0.00  0.00    +0.000 OA
ATOM     39  H   UNL     1     -15.082  -9.477   2.963  0.00  0.00    +0.000 HD
ENDBRANCH  35  38
ENDBRANCH  32  35
ENDBRANCH  29  32
ENDBRANCH  26  29
ENDBRANCH  23  26
ENDBRANCH   1  23
TORSDOF 12
ENDMDL
MODEL 9
REMARK VINA RESULT:    -3.450     35.868     38.449
REMARK INTER + INTRA:          -6.867
REMARK INTER:                  -6.001
REMARK INTRA:                  -0.866
REMARK UNBOUND:                -1.198
REMARK  Name = 8193
REMARK  12 active torsions:
REMARK  status: ('A' for Active; 'I' for Inactive)
REMARK    1  A    between atoms: O_1  and  C_12
REMARK    2  A    between atoms: C_2  and  C_3
REMARK    3  A    between atoms: C_2  and  C_4
REMARK    4  A    between atoms: C_3  and  C_5
REMARK    5  A    between atoms: C_4  and  C_6
REMARK    6  A    between atoms: C_5  and  C_7
REMARK    7  A    between atoms: C_6  and  C_8
REMARK    8  A    between atoms: C_7  and  C_9
REMARK    9  A    between atoms: C_8  and  C_10
REMARK   10  A    between atoms: C_9  and  C_11
REMARK   11  A    between atoms: C_10  and  C_12
REMARK   12  A    between atoms: C_11  and  C_13
REMARK                            x       y       z     vdW  Elec       q    Type
REMARK                         _______ _______ _______ _____ _____    ______ ____
ROOT
ATOM      1  C   UNL     1       5.982  13.744 -13.851  0.00  0.00    +0.000 C 
ATOM      2  H   UNL     1       6.621  14.097 -14.670  0.00  0.00    +0.000 HD
ATOM      3  H   UNL     1       6.600  13.086 -13.228  0.00  0.00    +0.000 HD
ENDROOT
BRANCH   1   4
ATOM      4  C   UNL     1       4.823  12.930 -14.438  0.00  0.00    +0.000 C 
ATOM      5  H   UNL     1       5.148  12.504 -15.396  0.00  0.00    +0.000 HD
ATOM      6  H   UNL     1       3.996  13.613 -14.670  0.00  0.00    +0.000 HD
BRANCH   4   7
ATOM      7  C   UNL     1       4.282  11.801 -13.554  0.00  0.00    +0.000 C 
ATOM      8  H   UNL     1       5.056  11.503 -12.835  0.00  0.00    +0.000 HD
ATOM      9  H   UNL     1       4.081  10.926 -14.184  0.00  0.00    +0.000 HD
BRANCH   7  10
ATOM     10  C   UNL     1       3.006  12.179 -12.798  0.00  0.00    +0.000 C 
ATOM     11  H   UNL     1       2.169  11.585 -13.185  0.00  0.00    +0.000 HD
ATOM     12  H   UNL     1       2.767  13.231 -12.998  0.00  0.00    +0.000 HD
BRANCH  10  13
ATOM     13  C   UNL     1       3.109  11.962 -11.284  0.00  0.00    +0.000 C 
ATOM     14  H   UNL     1       2.946  10.900 -11.061  0.00  0.00    +0.000 HD
ATOM     15  H   UNL     1       4.132  12.198 -10.963  0.00  0.00    +0.000 HD
BRANCH  13  16
ATOM     16  C   UNL     1       2.118  12.801 -10.478  0.00  0.00    +0.000 C 
ATOM     17  H   UNL     1       1.438  12.143  -9.926  0.00  0.00    +0.000 HD
ATOM     18  H   UNL     1       1.506  13.406 -11.156  0.00  0.00    +0.000 HD
BRANCH  16  19
ATOM     19  C   UNL     1       2.837  13.720  -9.501  0.00  0.00    +0.000 C 
ATOM     20  H   UNL     1       2.741  14.767  -9.806  0.00  0.00    +0.000 HD
ATOM     21  H   UNL     1       2.408  13.617  -8.499  0.00  0.00    +0.000 HD
ATOM     22  H   UNL     1       3.902  13.474  -9.442  0.00  0.00    +0.000 HD
ENDBRANCH  16  19
ENDBRANCH  13  16
ENDBRANCH  10  13
ENDBRANCH   7  10
ENDBRANCH   4   7
ENDBRANCH   1   4
BRANCH   1  23
ATOM     23  C   UNL     1       5.521  14.939 -13.014  0.00  0.00    +0.000 C 
ATOM     24  H   UNL     1       4.476  15.170 -13.259  0.00  0.00    +0.000 HD
ATOM     25  H   UNL     1       6.113  15.821 -13.290  0.00  0.00    +0.000 HD
BRANCH  23  26
ATOM     26  C   UNL     1       5.642  14.704 -11.505  0.00  0.00    +0.000 C 
ATOM     27  H   UNL     1       4.639  14.613 -11.074  0.00  0.00    +0.000 HD
ATOM     28  H   UNL     1       6.150  13.746 -11.334  0.00  0.00    +0.000 HD
BRANCH  26  29
ATOM     29  C   UNL     1       6.407  15.814 -10.779  0.00  0.00    +0.000 C 
ATOM     30  H   UNL     1       6.676  16.600 -11.493  0.00  0.00    +0.000 HD
ATOM     31  H   UNL     1       7.341  15.412 -10.370  0.00  0.00    +0.000 HD
BRANCH  29  32
ATOM     32  C   UNL     1       5.567  16.413  -9.644  0.00  0.00    +0.000 C 
ATOM     33  H   UNL     1       5.143  17.375  -9.957  0.00  0.00    +0.000 HD
ATOM     34  H   UNL     1       4.709  15.764  -9.427  0.00  0.00    +0.000 HD
BRANCH  32  35
ATOM     35  C   UNL     1       6.379  16.613  -8.371  0.00  0.00    +0.000 C 
ATOM     36  H   UNL     1       7.271  17.215  -8.573  0.00  0.00    +0.000 HD
ATOM     37  H   UNL     1       5.779  17.117  -7.606  0.00  0.00    +0.000 HD
BRANCH  35  38
ATOM     38  O   UNL     1       6.793  15.354  -7.857  0.00  0.00    +0.000 OA
ATOM     39  H   UNL     1       7.748  15.416  -7.688  0.00  0.00    +0.000 HD
ENDBRANCH  35  38
ENDBRANCH  32  35
ENDBRANCH  29  32
ENDBRANCH  26  29
ENDBRANCH  23  26
ENDBRANCH   1  23
TORSDOF 12
ENDMDL
MODEL 10
REMARK VINA RESULT:    -3.356     13.166     14.143
REMARK INTER + INTRA:          -6.711
REMARK INTER:                  -5.514
REMARK INTRA:                  -1.198
REMARK UNBOUND:                -1.198
REMARK  Name = 8193
REMARK  12 active torsions:
REMARK  status: ('A' for Active; 'I' for Inactive)
REMARK    1  A    between atoms: O_1  and  C_12
REMARK    2  A    between atoms: C_2  and  C_3
REMARK    3  A    between atoms: C_2  and  C_4
REMARK    4  A    between atoms: C_3  and  C_5
REMARK    5  A    between atoms: C_4  and  C_6
REMARK    6  A    between atoms: C_5  and  C_7
REMARK    7  A    between atoms: C_6  and  C_8
REMARK    8  A    between atoms: C_7  and  C_9
REMARK    9  A    between atoms: C_8  and  C_10
REMARK   10  A    between atoms: C_9  and  C_11
REMARK   11  A    between atoms: C_10  and  C_12
REMARK   12  A    between atoms: C_11  and  C_13
REMARK                            x       y       z     vdW  Elec       q    Type
REMARK                         _______ _______ _______ _____ _____    ______ ____
ROOT
ATOM      1  C   UNL     1     -28.845  -6.934  14.049  0.00  0.00    +0.000 C 
ATOM      2  H   UNL     1     -27.925  -6.860  13.457  0.00  0.00    +0.000 HD
ATOM      3  H   UNL     1     -28.548  -6.893  15.104  0.00  0.00    +0.000 HD
ENDROOT
BRANCH   1   4
ATOM      4  C   UNL     1     -29.509  -8.288  13.772  0.00  0.00    +0.000 C 
ATOM      5  H   UNL     1     -30.348  -8.128  13.083  0.00  0.00    +0.000 HD
ATOM      6  H   UNL     1     -29.946  -8.664  14.706  0.00  0.00    +0.000 HD
BRANCH   4   7
ATOM      7  C   UNL     1     -28.597  -9.376  13.194  0.00  0.00    +0.000 C 
ATOM      8  H   UNL     1     -28.538 -10.211  13.901  0.00  0.00    +0.000 HD
ATOM      9  H   UNL     1     -27.583  -8.970  13.097  0.00  0.00    +0.000 HD
BRANCH   7  10
ATOM     10  C   UNL     1     -29.060  -9.897  11.831  0.00  0.00    +0.000 C 
ATOM     11  H   UNL     1     -29.841 -10.652  11.981  0.00  0.00    +0.000 HD
ATOM     12  H   UNL     1     -28.222 -10.402  11.334  0.00  0.00    +0.000 HD
BRANCH  10  13
ATOM     13  C   UNL     1     -29.606  -8.797  10.913  0.00  0.00    +0.000 C 
ATOM     14  H   UNL     1     -29.572  -7.837  11.443  0.00  0.00    +0.000 HD
ATOM     15  H   UNL     1     -28.943  -8.702  10.045  0.00  0.00    +0.000 HD
BRANCH  13  16
ATOM     16  C   UNL     1     -31.034  -9.055  10.434  0.00  0.00    +0.000 C 
ATOM     17  H   UNL     1     -31.471  -9.888  10.998  0.00  0.00    +0.000 HD
ATOM     18  H   UNL     1     -31.024  -9.348   9.378  0.00  0.00    +0.000 HD
BRANCH  16  19
ATOM     19  C   UNL     1     -31.906  -7.819  10.600  0.00  0.00    +0.000 C 
ATOM     20  H   UNL     1     -31.299  -6.908  10.592  0.00  0.00    +0.000 HD
ATOM     21  H   UNL     1     -32.629  -7.753   9.781  0.00  0.00    +0.000 HD
ATOM     22  H   UNL     1     -32.461  -7.855  11.543  0.00  0.00    +0.000 HD
ENDBRANCH  16  19
ENDBRANCH  13  16
ENDBRANCH  10  13
ENDBRANCH   7  10
ENDBRANCH   4   7
ENDBRANCH   1   4
BRANCH   1  23
ATOM     23  C   UNL     1     -29.751  -5.740  13.738  0.00  0.00    +0.000 C 
ATOM     24  H   UNL     1     -29.451  -4.887  14.360  0.00  0.00    +0.000 HD
ATOM     25  H   UNL     1     -30.782  -5.989  14.018  0.00  0.00    +0.000 HD
BRANCH  23  26
ATOM     26  C   UNL     1     -29.716  -5.323  12.264  0.00  0.00    +0.000 C 
ATOM     27  H   UNL     1     -30.432  -5.933  11.702  0.00  0.00    +0.000 HD
ATOM     28  H   UNL     1     -30.052  -4.281  12.181  0.00  0.00    +0.000 HD
BRANCH  26  29
ATOM     29  C   UNL     1     -28.329  -5.456  11.629  0.00  0.00    +0.000 C 
ATOM     30  H   UNL     1     -28.390  -6.111  10.753  0.00  0.00    +0.000 HD
ATOM     31  H   UNL     1     -27.641  -5.928  12.341  0.00  0.00    +0.000 HD
BRANCH  29  32
ATOM     32  C   UNL     1     -27.778  -4.088  11.213  0.00  0.00    +0.000 C 
ATOM     33  H   UNL     1     -26.989  -4.212  10.461  0.00  0.00    +0.000 HD
ATOM     34  H   UNL     1     -28.563  -3.495  10.728  0.00  0.00    +0.000 HD
BRANCH  32  35
ATOM     35  C   UNL     1     -27.221  -3.307  12.398  0.00  0.00    +0.000 C 
ATOM     36  H   UNL     1     -27.198  -3.932  13.295  0.00  0.00    +0.000 HD
ATOM     37  H   UNL     1     -26.205  -2.958  12.185  0.00  0.00    +0.000 HD
BRANCH  35  38
ATOM     38  O   UNL     1     -28.038  -2.174  12.658  0.00  0.00    +0.000 OA
ATOM     39  H   UNL     1     -27.450  -1.466  12.971  0.00  0.00    +0.000 HD
ENDBRANCH  35  38
ENDBRANCH  32  35
ENDBRANCH  29  32
ENDBRANCH  26  29
ENDBRANCH  23  26
ENDBRANCH   1  23
TORSDOF 12
ENDMDL
