MODEL 1
REMARK VINA RESULT:    -3.894      0.000      0.000
REMARK INTER + INTRA:          -7.547
REMARK INTER:                  -7.097
REMARK INTRA:                  -0.450
REMARK UNBOUND:                -1.263
REMARK  Name = 8192
REMARK  11 active torsions:
REMARK  status: ('A' for Active; 'I' for Inactive)
REMARK    1  A    between atoms: C_2  and  C_3
REMARK    2  A    between atoms: C_2  and  C_4
REMARK    3  A    between atoms: C_3  and  C_5
REMARK    4  A    between atoms: C_4  and  C_6
REMARK    5  A    between atoms: C_5  and  C_7
REMARK    6  A    between atoms: C_6  and  C_8
REMARK    7  A    between atoms: C_7  and  C_9
REMARK    8  A    between atoms: C_8  and  C_10
REMARK    9  A    between atoms: C_9  and  C_11
REMARK   10  A    between atoms: C_10  and  C_12
REMARK   11  A    between atoms: C_11  and  C_13
REMARK                            x       y       z     vdW  Elec       q    Type
REMARK                         _______ _______ _______ _____ _____    ______ ____
ROOT
ATOM      1  C   UNL     1      -0.205   9.052  18.797  0.00  0.00    +0.000 C 
ATOM      2  H   UNL     1      -0.745   9.278  19.723  0.00  0.00    +0.000 HD
ATOM      3  H   UNL     1       0.847   9.317  18.962  0.00  0.00    +0.000 HD
ENDROOT
BRANCH   1   4
ATOM      4  C   UNL     1      -0.774   9.891  17.650  0.00  0.00    +0.000 C 
ATOM      5  H   UNL     1      -1.436  10.667  18.054  0.00  0.00    +0.000 HD
ATOM      6  H   UNL     1       0.042  10.403  17.126  0.00  0.00    +0.000 HD
BRANCH   4   7
ATOM      7  C   UNL     1      -1.548   9.021  16.658  0.00  0.00    +0.000 C 
ATOM      8  H   UNL     1      -2.396   8.554  17.176  0.00  0.00    +0.000 HD
ATOM      9  H   UNL     1      -0.903   8.205  16.308  0.00  0.00    +0.000 HD
BRANCH   7  10
ATOM     10  C   UNL     1      -2.073   9.798  15.447  0.00  0.00    +0.000 C 
ATOM     11  H   UNL     1      -1.927  10.872  15.620  0.00  0.00    +0.000 HD
ATOM     12  H   UNL     1      -1.473   9.536  14.567  0.00  0.00    +0.000 HD
BRANCH  10  13
ATOM     13  C   UNL     1      -3.551   9.537  15.151  0.00  0.00    +0.000 C 
ATOM     14  H   UNL     1      -4.101  10.486  15.160  0.00  0.00    +0.000 HD
ATOM     15  H   UNL     1      -3.976   8.910  15.945  0.00  0.00    +0.000 HD
BRANCH  13  16
ATOM     16  C   UNL     1      -3.732   8.848  13.798  0.00  0.00    +0.000 C 
ATOM     17  H   UNL     1      -4.787   8.586  13.652  0.00  0.00    +0.000 HD
ATOM     18  H   UNL     1      -3.454   9.535  12.990  0.00  0.00    +0.000 HD
BRANCH  16  19
ATOM     19  C   UNL     1      -2.884   7.590  13.694  0.00  0.00    +0.000 C 
ATOM     20  H   UNL     1      -1.832   7.808  13.905  0.00  0.00    +0.000 HD
ATOM     21  H   UNL     1      -3.227   6.828  14.402  0.00  0.00    +0.000 HD
ATOM     22  H   UNL     1      -2.950   7.171  12.685  0.00  0.00    +0.000 HD
ENDBRANCH  16  19
ENDBRANCH  13  16
ENDBRANCH  10  13
ENDBRANCH   7  10
ENDBRANCH   4   7
ENDBRANCH   1   4
BRANCH   1  23
ATOM     23  C   UNL     1      -0.315   7.556  18.496  0.00  0.00    +0.000 C 
ATOM     24  H   UNL     1      -1.183   7.140  19.022  0.00  0.00    +0.000 HD
ATOM     25  H   UNL     1      -0.498   7.416  17.423  0.00  0.00    +0.000 HD
BRANCH  23  26
ATOM     26  C   UNL     1       0.932   6.759  18.892  0.00  0.00    +0.000 C 
ATOM     27  H   UNL     1       0.772   6.339  19.894  0.00  0.00    +0.000 HD
ATOM     28  H   UNL     1       1.032   5.904  18.212  0.00  0.00    +0.000 HD
BRANCH  26  29
ATOM     29  C   UNL     1       2.250   7.538  18.899  0.00  0.00    +0.000 C 
ATOM     30  H   UNL     1       2.394   7.985  19.891  0.00  0.00    +0.000 HD
ATOM     31  H   UNL     1       2.174   8.368  18.187  0.00  0.00    +0.000 HD
BRANCH  29  32
ATOM     32  C   UNL     1       3.468   6.680  18.551  0.00  0.00    +0.000 C 
ATOM     33  H   UNL     1       3.727   6.051  19.411  0.00  0.00    +0.000 HD
ATOM     34  H   UNL     1       3.215   6.008  17.722  0.00  0.00    +0.000 HD
BRANCH  32  36
ATOM     35 CL   UNL     1       4.594   7.965  16.439  0.00  0.00    +0.000 Cl
ATOM     36  C   UNL     1       4.658   7.551  18.167  0.00  0.00    +0.000 C 
ATOM     37  H   UNL     1       5.604   7.031  18.349  0.00  0.00    +0.000 HD
ATOM     38  H   UNL     1       4.662   8.488  18.734  0.00  0.00    +0.000 HD
ENDBRANCH  32  36
ENDBRANCH  29  32
ENDBRANCH  26  29
ENDBRANCH  23  26
ENDBRANCH   1  23
TORSDOF 11
ENDMDL
MODEL 2
REMARK VINA RESULT:    -3.876     29.398     31.551
REMARK INTER + INTRA:          -7.518
REMARK INTER:                  -7.253
REMARK INTRA:                  -0.265
REMARK UNBOUND:                -1.263
REMARK  Name = 8192
REMARK  11 active torsions:
REMARK  status: ('A' for Active; 'I' for Inactive)
REMARK    1  A    between atoms: C_2  and  C_3
REMARK    2  A    between atoms: C_2  and  C_4
REMARK    3  A    between atoms: C_3  and  C_5
REMARK    4  A    between atoms: C_4  and  C_6
REMARK    5  A    between atoms: C_5  and  C_7
REMARK    6  A    between atoms: C_6  and  C_8
REMARK    7  A    between atoms: C_7  and  C_9
REMARK    8  A    between atoms: C_8  and  C_10
REMARK    9  A    between atoms: C_9  and  C_11
REMARK   10  A    between atoms: C_10  and  C_12
REMARK   11  A    between atoms: C_11  and  C_13
REMARK                            x       y       z     vdW  Elec       q    Type
REMARK                         _______ _______ _______ _____ _____    ______ ____
ROOT
ATOM      1  C   UNL     1     -19.418 -12.589   6.745  0.00  0.00    +0.000 C 
ATOM      2  H   UNL     1     -19.279 -13.638   7.027  0.00  0.00    +0.000 HD
ATOM      3  H   UNL     1     -18.670 -12.003   7.294  0.00  0.00    +0.000 HD
ENDROOT
BRANCH   1   4
ATOM      4  C   UNL     1     -20.825 -12.130   7.141  0.00  0.00    +0.000 C 
ATOM      5  H   UNL     1     -20.842 -11.871   8.206  0.00  0.00    +0.000 HD
ATOM      6  H   UNL     1     -21.089 -11.224   6.583  0.00  0.00    +0.000 HD
BRANCH   4   7
ATOM      7  C   UNL     1     -21.862 -13.220   6.861  0.00  0.00    +0.000 C 
ATOM      8  H   UNL     1     -21.604 -14.116   7.439  0.00  0.00    +0.000 HD
ATOM      9  H   UNL     1     -21.816 -13.503   5.802  0.00  0.00    +0.000 HD
BRANCH   7  10
ATOM     10  C   UNL     1     -23.293 -12.800   7.205  0.00  0.00    +0.000 C 
ATOM     11  H   UNL     1     -23.682 -13.461   7.990  0.00  0.00    +0.000 HD
ATOM     12  H   UNL     1     -23.277 -11.787   7.626  0.00  0.00    +0.000 HD
BRANCH  10  13
ATOM     13  C   UNL     1     -24.243 -12.837   6.006  0.00  0.00    +0.000 C 
ATOM     14  H   UNL     1     -23.661 -12.856   5.077  0.00  0.00    +0.000 HD
ATOM     15  H   UNL     1     -24.846 -11.922   5.991  0.00  0.00    +0.000 HD
BRANCH  13  16
ATOM     16  C   UNL     1     -25.161 -14.058   6.065  0.00  0.00    +0.000 C 
ATOM     17  H   UNL     1     -24.710 -14.890   5.510  0.00  0.00    +0.000 HD
ATOM     18  H   UNL     1     -25.279 -14.387   7.104  0.00  0.00    +0.000 HD
BRANCH  16  19
ATOM     19  C   UNL     1     -26.533 -13.754   5.483  0.00  0.00    +0.000 C 
ATOM     20  H   UNL     1     -26.851 -14.544   4.795  0.00  0.00    +0.000 HD
ATOM     21  H   UNL     1     -27.283 -13.666   6.277  0.00  0.00    +0.000 HD
ATOM     22  H   UNL     1     -26.510 -12.810   4.932  0.00  0.00    +0.000 HD
ENDBRANCH  16  19
ENDBRANCH  13  16
ENDBRANCH  10  13
ENDBRANCH   7  10
ENDBRANCH   4   7
ENDBRANCH   1   4
BRANCH   1  23
ATOM     23  C   UNL     1     -19.188 -12.431   5.241  0.00  0.00    +0.000 C 
ATOM     24  H   UNL     1     -18.785 -13.367   4.832  0.00  0.00    +0.000 HD
ATOM     25  H   UNL     1     -20.151 -12.258   4.744  0.00  0.00    +0.000 HD
BRANCH  23  26
ATOM     26  C   UNL     1     -18.234 -11.286   4.885  0.00  0.00    +0.000 C 
ATOM     27  H   UNL     1     -18.369 -10.481   5.619  0.00  0.00    +0.000 HD
ATOM     28  H   UNL     1     -17.202 -11.641   5.003  0.00  0.00    +0.000 HD
BRANCH  26  29
ATOM     29  C   UNL     1     -18.393 -10.694   3.482  0.00  0.00    +0.000 C 
ATOM     30  H   UNL     1     -18.783  -9.672   3.569  0.00  0.00    +0.000 HD
ATOM     31  H   UNL     1     -19.146 -11.275   2.936  0.00  0.00    +0.000 HD
BRANCH  29  32
ATOM     32  C   UNL     1     -17.090 -10.670   2.679  0.00  0.00    +0.000 C 
ATOM     33  H   UNL     1     -16.299 -10.211   3.284  0.00  0.00    +0.000 HD
ATOM     34  H   UNL     1     -16.777 -11.699   2.462  0.00  0.00    +0.000 HD
BRANCH  32  36
ATOM     35 CL   UNL     1     -16.360  -8.367   1.438  0.00  0.00    +0.000 Cl
ATOM     36  C   UNL     1     -17.266  -9.896   1.378  0.00  0.00    +0.000 C 
ATOM     37  H   UNL     1     -18.318  -9.652   1.202  0.00  0.00    +0.000 HD
ATOM     38  H   UNL     1     -16.894 -10.470   0.523  0.00  0.00    +0.000 HD
ENDBRANCH  32  36
ENDBRANCH  29  32
ENDBRANCH  26  29
ENDBRANCH  23  26
ENDBRANCH   1  23
TORSDOF 11
ENDMDL
MODEL 3
REMARK VINA RESULT:    -3.872     28.950     30.327
REMARK INTER + INTRA:          -7.511
REMARK INTER:                  -6.836
REMARK INTRA:                  -0.676
REMARK UNBOUND:                -1.263
REMARK  Name = 8192
REMARK  11 active torsions:
REMARK  status: ('A' for Active; 'I' for Inactive)
REMARK    1  A    between atoms: C_2  and  C_3
REMARK    2  A    between atoms: C_2  and  C_4
REMARK    3  A    between atoms: C_3  and  C_5
REMARK    4  A    between atoms: C_4  and  C_6
REMARK    5  A    between atoms: C_5  and  C_7
REMARK    6  A    between atoms: C_6  and  C_8
REMARK    7  A    between atoms: C_7  and  C_9
REMARK    8  A    between atoms: C_8  and  C_10
REMARK    9  A    between atoms: C_9  and  C_11
REMARK   10  A    between atoms: C_10  and  C_12
REMARK   11  A    between atoms: C_11  and  C_13
REMARK                            x       y       z     vdW  Elec       q    Type
REMARK                         _______ _______ _______ _____ _____    ______ ____
ROOT
ATOM      1  C   UNL     1     -18.435 -10.208   3.294  0.00  0.00    +0.000 C 
ATOM      2  H   UNL     1     -18.608 -10.874   2.441  0.00  0.00    +0.000 HD
ATOM      3  H   UNL     1     -19.325  -9.575   3.397  0.00  0.00    +0.000 HD
ENDROOT
BRANCH   1   4
ATOM      4  C   UNL     1     -17.208  -9.332   3.024  0.00  0.00    +0.000 C 
ATOM      5  H   UNL     1     -17.468  -8.544   2.307  0.00  0.00    +0.000 HD
ATOM      6  H   UNL     1     -16.896  -8.836   3.951  0.00  0.00    +0.000 HD
BRANCH   4   7
ATOM      7  C   UNL     1     -16.045 -10.161   2.474  0.00  0.00    +0.000 C 
ATOM      8  H   UNL     1     -16.365 -11.207   2.379  0.00  0.00    +0.000 HD
ATOM      9  H   UNL     1     -15.216 -10.148   3.193  0.00  0.00    +0.000 HD
BRANCH   7  10
ATOM     10  C   UNL     1     -15.537  -9.671   1.116  0.00  0.00    +0.000 C 
ATOM     11  H   UNL     1     -14.621  -9.085   1.266  0.00  0.00    +0.000 HD
ATOM     12  H   UNL     1     -15.261 -10.538   0.503  0.00  0.00    +0.000 HD
BRANCH  10  13
ATOM     13  C   UNL     1     -16.556  -8.817   0.358  0.00  0.00    +0.000 C 
ATOM     14  H   UNL     1     -16.081  -7.886   0.025  0.00  0.00    +0.000 HD
ATOM     15  H   UNL     1     -17.373  -8.538   1.035  0.00  0.00    +0.000 HD
BRANCH  13  16
ATOM     16  C   UNL     1     -17.121  -9.567  -0.848  0.00  0.00    +0.000 C 
ATOM     17  H   UNL     1     -17.373  -8.857  -1.644  0.00  0.00    +0.000 HD
ATOM     18  H   UNL     1     -16.362 -10.249  -1.251  0.00  0.00    +0.000 HD
BRANCH  16  19
ATOM     19  C   UNL     1     -18.360 -10.367  -0.479  0.00  0.00    +0.000 C 
ATOM     20  H   UNL     1     -18.467 -10.445   0.608  0.00  0.00    +0.000 HD
ATOM     21  H   UNL     1     -19.264  -9.896  -0.880  0.00  0.00    +0.000 HD
ATOM     22  H   UNL     1     -18.294 -11.379  -0.888  0.00  0.00    +0.000 HD
ENDBRANCH  16  19
ENDBRANCH  13  16
ENDBRANCH  10  13
ENDBRANCH   7  10
ENDBRANCH   4   7
ENDBRANCH   1   4
BRANCH   1  23
ATOM     23  C   UNL     1     -18.250 -11.043   4.563  0.00  0.00    +0.000 C 
ATOM     24  H   UNL     1     -17.185 -11.076   4.826  0.00  0.00    +0.000 HD
ATOM     25  H   UNL     1     -18.766 -10.552   5.397  0.00  0.00    +0.000 HD
BRANCH  23  26
ATOM     26  C   UNL     1     -18.772 -12.477   4.432  0.00  0.00    +0.000 C 
ATOM     27  H   UNL     1     -19.656 -12.467   3.781  0.00  0.00    +0.000 HD
ATOM     28  H   UNL     1     -18.015 -13.079   3.914  0.00  0.00    +0.000 HD
BRANCH  26  29
ATOM     29  C   UNL     1     -19.143 -13.175   5.743  0.00  0.00    +0.000 C 
ATOM     30  H   UNL     1     -18.222 -13.464   6.266  0.00  0.00    +0.000 HD
ATOM     31  H   UNL     1     -19.678 -14.104   5.510  0.00  0.00    +0.000 HD
BRANCH  29  32
ATOM     32  C   UNL     1     -20.001 -12.314   6.672  0.00  0.00    +0.000 C 
ATOM     33  H   UNL     1     -19.351 -11.783   7.379  0.00  0.00    +0.000 HD
ATOM     34  H   UNL     1     -20.527 -11.553   6.081  0.00  0.00    +0.000 HD
BRANCH  32  36
ATOM     35 CL   UNL     1     -22.657 -12.547   7.189  0.00  0.00    +0.000 Cl
ATOM     36  C   UNL     1     -21.009 -13.167   7.433  0.00  0.00    +0.000 C 
ATOM     37  H   UNL     1     -20.805 -13.156   8.508  0.00  0.00    +0.000 HD
ATOM     38  H   UNL     1     -20.989 -14.205   7.086  0.00  0.00    +0.000 HD
ENDBRANCH  32  36
ENDBRANCH  29  32
ENDBRANCH  26  29
ENDBRANCH  23  26
ENDBRANCH   1  23
TORSDOF 11
ENDMDL
MODEL 4
REMARK VINA RESULT:    -3.808      4.363      7.134
REMARK INTER + INTRA:          -7.408
REMARK INTER:                  -6.437
REMARK INTRA:                  -0.971
REMARK UNBOUND:                -1.263
REMARK  Name = 8192
REMARK  11 active torsions:
REMARK  status: ('A' for Active; 'I' for Inactive)
REMARK    1  A    between atoms: C_2  and  C_3
REMARK    2  A    between atoms: C_2  and  C_4
REMARK    3  A    between atoms: C_3  and  C_5
REMARK    4  A    between atoms: C_4  and  C_6
REMARK    5  A    between atoms: C_5  and  C_7
REMARK    6  A    between atoms: C_6  and  C_8
REMARK    7  A    between atoms: C_7  and  C_9
REMARK    8  A    between atoms: C_8  and  C_10
REMARK    9  A    between atoms: C_9  and  C_11
REMARK   10  A    between atoms: C_10  and  C_12
REMARK   11  A    between atoms: C_11  and  C_13
REMARK                            x       y       z     vdW  Elec       q    Type
REMARK                         _______ _______ _______ _____ _____    ______ ____
ROOT
ATOM      1  C   UNL     1      -2.694  11.906  11.139  0.00  0.00    +0.000 C 
ATOM      2  H   UNL     1      -2.532  12.335  12.134  0.00  0.00    +0.000 HD
ATOM      3  H   UNL     1      -3.574  12.402  10.711  0.00  0.00    +0.000 HD
ENDROOT
BRANCH   1   4
ATOM      4  C   UNL     1      -2.960  10.402  11.263  0.00  0.00    +0.000 C 
ATOM      5  H   UNL     1      -4.042  10.219  11.276  0.00  0.00    +0.000 HD
ATOM      6  H   UNL     1      -2.554   9.881  10.388  0.00  0.00    +0.000 HD
BRANCH   4   7
ATOM      7  C   UNL     1      -2.328   9.831  12.534  0.00  0.00    +0.000 C 
ATOM      8  H   UNL     1      -2.754  10.341  13.407  0.00  0.00    +0.000 HD
ATOM      9  H   UNL     1      -1.252  10.048  12.535  0.00  0.00    +0.000 HD
BRANCH   7  10
ATOM     10  C   UNL     1      -2.533   8.322  12.690  0.00  0.00    +0.000 C 
ATOM     11  H   UNL     1      -3.343   8.000  12.024  0.00  0.00    +0.000 HD
ATOM     12  H   UNL     1      -1.626   7.802  12.359  0.00  0.00    +0.000 HD
BRANCH  10  13
ATOM     13  C   UNL     1      -2.867   7.899  14.122  0.00  0.00    +0.000 C 
ATOM     14  H   UNL     1      -2.090   7.221  14.497  0.00  0.00    +0.000 HD
ATOM     15  H   UNL     1      -3.811   7.340  14.126  0.00  0.00    +0.000 HD
BRANCH  13  16
ATOM     16  C   UNL     1      -2.982   9.111  15.046  0.00  0.00    +0.000 C 
ATOM     17  H   UNL     1      -2.836  10.033  14.470  0.00  0.00    +0.000 HD
ATOM     18  H   UNL     1      -3.988   9.156  15.480  0.00  0.00    +0.000 HD
BRANCH  16  19
ATOM     19  C   UNL     1      -1.960   9.056  16.170  0.00  0.00    +0.000 C 
ATOM     20  H   UNL     1      -1.621   8.030  16.343  0.00  0.00    +0.000 HD
ATOM     21  H   UNL     1      -1.085   9.672  15.934  0.00  0.00    +0.000 HD
ATOM     22  H   UNL     1      -2.397   9.431  17.100  0.00  0.00    +0.000 HD
ENDBRANCH  16  19
ENDBRANCH  13  16
ENDBRANCH  10  13
ENDBRANCH   7  10
ENDBRANCH   4   7
ENDBRANCH   1   4
BRANCH   1  23
ATOM     23  C   UNL     1      -1.473  12.181  10.260  0.00  0.00    +0.000 C 
ATOM     24  H   UNL     1      -1.333  11.348   9.559  0.00  0.00    +0.000 HD
ATOM     25  H   UNL     1      -1.657  13.077   9.655  0.00  0.00    +0.000 HD
BRANCH  23  26
ATOM     26  C   UNL     1      -0.179  12.378  11.057  0.00  0.00    +0.000 C 
ATOM     27  H   UNL     1       0.195  13.393  10.865  0.00  0.00    +0.000 HD
ATOM     28  H   UNL     1      -0.417  12.335  12.127  0.00  0.00    +0.000 HD
BRANCH  26  29
ATOM     29  C   UNL     1       0.946  11.383  10.763  0.00  0.00    +0.000 C 
ATOM     30  H   UNL     1       1.275  10.929  11.706  0.00  0.00    +0.000 HD
ATOM     31  H   UNL     1       1.806  11.929  10.358  0.00  0.00    +0.000 HD
BRANCH  29  32
ATOM     32  C   UNL     1       0.542  10.276   9.786  0.00  0.00    +0.000 C 
ATOM     33  H   UNL     1      -0.533  10.082   9.881  0.00  0.00    +0.000 HD
ATOM     34  H   UNL     1       0.720  10.614   8.758  0.00  0.00    +0.000 HD
BRANCH  32  36
ATOM     35 CL   UNL     1       0.228   7.681  10.522  0.00  0.00    +0.000 Cl
ATOM     36  C   UNL     1       1.327   8.997  10.054  0.00  0.00    +0.000 C 
ATOM     37  H   UNL     1       2.044   9.137  10.869  0.00  0.00    +0.000 HD
ATOM     38  H   UNL     1       1.873   8.674   9.162  0.00  0.00    +0.000 HD
ENDBRANCH  32  36
ENDBRANCH  29  32
ENDBRANCH  26  29
ENDBRANCH  23  26
ENDBRANCH   1  23
TORSDOF 11
ENDMDL
MODEL 5
REMARK VINA RESULT:    -3.805     13.444     15.244
REMARK INTER + INTRA:          -7.403
REMARK INTER:                  -6.919
REMARK INTRA:                  -0.485
REMARK UNBOUND:                -1.263
REMARK  Name = 8192
REMARK  11 active torsions:
REMARK  status: ('A' for Active; 'I' for Inactive)
REMARK    1  A    between atoms: C_2  and  C_3
REMARK    2  A    between atoms: C_2  and  C_4
REMARK    3  A    between atoms: C_3  and  C_5
REMARK    4  A    between atoms: C_4  and  C_6
REMARK    5  A    between atoms: C_5  and  C_7
REMARK    6  A    between atoms: C_6  and  C_8
REMARK    7  A    between atoms: C_7  and  C_9
REMARK    8  A    between atoms: C_8  and  C_10
REMARK    9  A    between atoms: C_9  and  C_11
REMARK   10  A    between atoms: C_10  and  C_12
REMARK   11  A    between atoms: C_11  and  C_13
REMARK                            x       y       z     vdW  Elec       q    Type
REMARK                         _______ _______ _______ _____ _____    ______ ____
ROOT
ATOM      1  C   UNL     1       3.163  -5.372  17.935  0.00  0.00    +0.000 C 
ATOM      2  H   UNL     1       3.903  -5.159  18.715  0.00  0.00    +0.000 HD
ATOM      3  H   UNL     1       3.678  -5.930  17.142  0.00  0.00    +0.000 HD
ENDROOT
BRANCH   1   4
ATOM      4  C   UNL     1       2.618  -4.057  17.369  0.00  0.00    +0.000 C 
ATOM      5  H   UNL     1       1.532  -4.013  17.518  0.00  0.00    +0.000 HD
ATOM      6  H   UNL     1       3.054  -3.211  17.913  0.00  0.00    +0.000 HD
BRANCH   4   7
ATOM      7  C   UNL     1       2.936  -3.921  15.878  0.00  0.00    +0.000 C 
ATOM      8  H   UNL     1       3.256  -2.892  15.672  0.00  0.00    +0.000 HD
ATOM      9  H   UNL     1       2.023  -4.091  15.293  0.00  0.00    +0.000 HD
BRANCH   7  10
ATOM     10  C   UNL     1       4.024  -4.886  15.399  0.00  0.00    +0.000 C 
ATOM     11  H   UNL     1       4.941  -4.706  15.973  0.00  0.00    +0.000 HD
ATOM     12  H   UNL     1       3.711  -5.914  15.617  0.00  0.00    +0.000 HD
BRANCH  10  13
ATOM     13  C   UNL     1       4.337  -4.757  13.906  0.00  0.00    +0.000 C 
ATOM     14  H   UNL     1       5.353  -4.364  13.776  0.00  0.00    +0.000 HD
ATOM     15  H   UNL     1       3.650  -4.033  13.452  0.00  0.00    +0.000 HD
BRANCH  13  16
ATOM     16  C   UNL     1       4.210  -6.104  13.195  0.00  0.00    +0.000 C 
ATOM     17  H   UNL     1       3.849  -5.951  12.171  0.00  0.00    +0.000 HD
ATOM     18  H   UNL     1       5.194  -6.582  13.124  0.00  0.00    +0.000 HD
BRANCH  16  19
ATOM     19  C   UNL     1       3.258  -7.035  13.928  0.00  0.00    +0.000 C 
ATOM     20  H   UNL     1       3.527  -8.083  13.759  0.00  0.00    +0.000 HD
ATOM     21  H   UNL     1       3.278  -6.845  15.007  0.00  0.00    +0.000 HD
ATOM     22  H   UNL     1       2.234  -6.885  13.575  0.00  0.00    +0.000 HD
ENDBRANCH  16  19
ENDBRANCH  13  16
ENDBRANCH  10  13
ENDBRANCH   7  10
ENDBRANCH   4   7
ENDBRANCH   1   4
BRANCH   1  23
ATOM     23  C   UNL     1       2.039  -6.230  18.519  0.00  0.00    +0.000 C 
ATOM     24  H   UNL     1       1.079  -5.913  18.095  0.00  0.00    +0.000 HD
ATOM     25  H   UNL     1       2.188  -7.275  18.217  0.00  0.00    +0.000 HD
BRANCH  23  26
ATOM     26  C   UNL     1       1.951  -6.164  20.047  0.00  0.00    +0.000 C 
ATOM     27  H   UNL     1       2.929  -6.439  20.464  0.00  0.00    +0.000 HD
ATOM     28  H   UNL     1       1.772  -5.122  20.342  0.00  0.00    +0.000 HD
BRANCH  26  29
ATOM     29  C   UNL     1       0.883  -7.049  20.694  0.00  0.00    +0.000 C 
ATOM     30  H   UNL     1       0.981  -6.985  21.785  0.00  0.00    +0.000 HD
ATOM     31  H   UNL     1       1.075  -8.093  20.421  0.00  0.00    +0.000 HD
BRANCH  29  32
ATOM     32  C   UNL     1      -0.546  -6.673  20.293  0.00  0.00    +0.000 C 
ATOM     33  H   UNL     1      -0.715  -5.611  20.506  0.00  0.00    +0.000 HD
ATOM     34  H   UNL     1      -0.669  -6.811  19.212  0.00  0.00    +0.000 HD
BRANCH  32  36
ATOM     35 CL   UNL     1      -2.859  -6.500  21.706  0.00  0.00    +0.000 Cl
ATOM     36  C   UNL     1      -1.565  -7.523  21.043  0.00  0.00    +0.000 C 
ATOM     37  H   UNL     1      -1.098  -8.052  21.880  0.00  0.00    +0.000 HD
ATOM     38  H   UNL     1      -2.029  -8.260  20.381  0.00  0.00    +0.000 HD
ENDBRANCH  32  36
ENDBRANCH  29  32
ENDBRANCH  26  29
ENDBRANCH  23  26
ENDBRANCH   1  23
TORSDOF 11
ENDMDL
MODEL 6
REMARK VINA RESULT:    -3.799     28.857     30.683
REMARK INTER + INTRA:          -7.394
REMARK INTER:                  -5.624
REMARK INTRA:                  -1.769
REMARK UNBOUND:                -1.263
REMARK  Name = 8192
REMARK  11 active torsions:
REMARK  status: ('A' for Active; 'I' for Inactive)
REMARK    1  A    between atoms: C_2  and  C_3
REMARK    2  A    between atoms: C_2  and  C_4
REMARK    3  A    between atoms: C_3  and  C_5
REMARK    4  A    between atoms: C_4  and  C_6
REMARK    5  A    between atoms: C_5  and  C_7
REMARK    6  A    between atoms: C_6  and  C_8
REMARK    7  A    between atoms: C_7  and  C_9
REMARK    8  A    between atoms: C_8  and  C_10
REMARK    9  A    between atoms: C_9  and  C_11
REMARK   10  A    between atoms: C_10  and  C_12
REMARK   11  A    between atoms: C_11  and  C_13
REMARK                            x       y       z     vdW  Elec       q    Type
REMARK                         _______ _______ _______ _____ _____    ______ ____
ROOT
ATOM      1  C   UNL     1     -16.873  -9.640   3.180  0.00  0.00    +0.000 C 
ATOM      2  H   UNL     1     -16.249 -10.540   3.153  0.00  0.00    +0.000 HD
ATOM      3  H   UNL     1     -16.555  -9.050   4.049  0.00  0.00    +0.000 HD
ENDROOT
BRANCH   1   4
ATOM      4  C   UNL     1     -18.344 -10.038   3.338  0.00  0.00    +0.000 C 
ATOM      5  H   UNL     1     -18.487 -10.549   4.298  0.00  0.00    +0.000 HD
ATOM      6  H   UNL     1     -18.971  -9.138   3.354  0.00  0.00    +0.000 HD
BRANCH   4   7
ATOM      7  C   UNL     1     -18.796 -10.952   2.197  0.00  0.00    +0.000 C 
ATOM      8  H   UNL     1     -18.365 -10.590   1.255  0.00  0.00    +0.000 HD
ATOM      9  H   UNL     1     -19.886 -10.890   2.090  0.00  0.00    +0.000 HD
BRANCH   7  10
ATOM     10  C   UNL     1     -18.396 -12.416   2.397  0.00  0.00    +0.000 C 
ATOM     11  H   UNL     1     -17.807 -12.504   3.319  0.00  0.00    +0.000 HD
ATOM     12  H   UNL     1     -19.302 -13.017   2.543  0.00  0.00    +0.000 HD
BRANCH  10  13
ATOM     13  C   UNL     1     -17.587 -12.990   1.232  0.00  0.00    +0.000 C 
ATOM     14  H   UNL     1     -17.712 -12.353   0.348  0.00  0.00    +0.000 HD
ATOM     15  H   UNL     1     -17.976 -13.982   0.972  0.00  0.00    +0.000 HD
BRANCH  13  16
ATOM     16  C   UNL     1     -16.104 -13.095   1.586  0.00  0.00    +0.000 C 
ATOM     17  H   UNL     1     -15.664 -13.970   1.092  0.00  0.00    +0.000 HD
ATOM     18  H   UNL     1     -15.569 -12.211   1.217  0.00  0.00    +0.000 HD
BRANCH  16  19
ATOM     19  C   UNL     1     -15.895 -13.210   3.087  0.00  0.00    +0.000 C 
ATOM     20  H   UNL     1     -16.779 -13.633   3.575  0.00  0.00    +0.000 HD
ATOM     21  H   UNL     1     -15.036 -13.851   3.315  0.00  0.00    +0.000 HD
ATOM     22  H   UNL     1     -15.706 -12.224   3.521  0.00  0.00    +0.000 HD
ENDBRANCH  16  19
ENDBRANCH  13  16
ENDBRANCH  10  13
ENDBRANCH   7  10
ENDBRANCH   4   7
ENDBRANCH   1   4
BRANCH   1  23
ATOM     23  C   UNL     1     -16.654  -8.829   1.902  0.00  0.00    +0.000 C 
ATOM     24  H   UNL     1     -17.590  -8.789   1.329  0.00  0.00    +0.000 HD
ATOM     25  H   UNL     1     -16.402  -7.795   2.168  0.00  0.00    +0.000 HD
BRANCH  23  26
ATOM     26  C   UNL     1     -15.549  -9.392   1.003  0.00  0.00    +0.000 C 
ATOM     27  H   UNL     1     -14.833  -8.587   0.786  0.00  0.00    +0.000 HD
ATOM     28  H   UNL     1     -14.994 -10.154   1.566  0.00  0.00    +0.000 HD
BRANCH  26  29
ATOM     29  C   UNL     1     -16.010 -10.001  -0.324  0.00  0.00    +0.000 C 
ATOM     30  H   UNL     1     -16.097 -11.089  -0.205  0.00  0.00    +0.000 HD
ATOM     31  H   UNL     1     -15.237  -9.827  -1.081  0.00  0.00    +0.000 HD
BRANCH  29  32
ATOM     32  C   UNL     1     -17.345  -9.440  -0.821  0.00  0.00    +0.000 C 
ATOM     33  H   UNL     1     -17.933  -9.090   0.035  0.00  0.00    +0.000 HD
ATOM     34  H   UNL     1     -17.157  -8.571  -1.463  0.00  0.00    +0.000 HD
BRANCH  32  36
ATOM     35 CL   UNL     1     -19.872 -10.307  -1.310  0.00  0.00    +0.000 Cl
ATOM     36  C   UNL     1     -18.127 -10.496  -1.593  0.00  0.00    +0.000 C 
ATOM     37  H   UNL     1     -17.847 -11.506  -1.277  0.00  0.00    +0.000 HD
ATOM     38  H   UNL     1     -17.953 -10.409  -2.670  0.00  0.00    +0.000 HD
ENDBRANCH  32  36
ENDBRANCH  29  32
ENDBRANCH  26  29
ENDBRANCH  23  26
ENDBRANCH   1  23
TORSDOF 11
ENDMDL
MODEL 7
REMARK VINA RESULT:    -3.782     28.939     31.330
REMARK INTER + INTRA:          -7.367
REMARK INTER:                  -6.246
REMARK INTRA:                  -1.121
REMARK UNBOUND:                -1.263
REMARK  Name = 8192
REMARK  11 active torsions:
REMARK  status: ('A' for Active; 'I' for Inactive)
REMARK    1  A    between atoms: C_2  and  C_3
REMARK    2  A    between atoms: C_2  and  C_4
REMARK    3  A    between atoms: C_3  and  C_5
REMARK    4  A    between atoms: C_4  and  C_6
REMARK    5  A    between atoms: C_5  and  C_7
REMARK    6  A    between atoms: C_6  and  C_8
REMARK    7  A    between atoms: C_7  and  C_9
REMARK    8  A    between atoms: C_8  and  C_10
REMARK    9  A    between atoms: C_9  and  C_11
REMARK   10  A    between atoms: C_10  and  C_12
REMARK   11  A    between atoms: C_11  and  C_13
REMARK                            x       y       z     vdW  Elec       q    Type
REMARK                         _______ _______ _______ _____ _____    ______ ____
ROOT
ATOM      1  C   UNL     1     -16.009 -11.054  -0.577  0.00  0.00    +0.000 C 
ATOM      2  H   UNL     1     -16.882 -11.254   0.055  0.00  0.00    +0.000 HD
ATOM      3  H   UNL     1     -15.539 -12.021  -0.796  0.00  0.00    +0.000 HD
ENDROOT
BRANCH   1   4
ATOM      4  C   UNL     1     -15.021 -10.158   0.176  0.00  0.00    +0.000 C 
ATOM      5  H   UNL     1     -14.023 -10.611   0.154  0.00  0.00    +0.000 HD
ATOM      6  H   UNL     1     -14.947  -9.186  -0.325  0.00  0.00    +0.000 HD
BRANCH   4   7
ATOM      7  C   UNL     1     -15.458  -9.950   1.628  0.00  0.00    +0.000 C 
ATOM      8  H   UNL     1     -14.572  -9.756   2.245  0.00  0.00    +0.000 HD
ATOM      9  H   UNL     1     -15.912 -10.874   2.008  0.00  0.00    +0.000 HD
BRANCH   7  10
ATOM     10  C   UNL     1     -16.450  -8.797   1.804  0.00  0.00    +0.000 C 
ATOM     11  H   UNL     1     -15.892  -7.872   2.003  0.00  0.00    +0.000 HD
ATOM     12  H   UNL     1     -16.990  -8.643   0.863  0.00  0.00    +0.000 HD
BRANCH  10  13
ATOM     13  C   UNL     1     -17.454  -9.026   2.936  0.00  0.00    +0.000 C 
ATOM     14  H   UNL     1     -18.405  -8.538   2.689  0.00  0.00    +0.000 HD
ATOM     15  H   UNL     1     -17.080  -8.558   3.855  0.00  0.00    +0.000 HD
BRANCH  13  16
ATOM     16  C   UNL     1     -17.688 -10.518   3.175  0.00  0.00    +0.000 C 
ATOM     17  H   UNL     1     -16.795 -11.085   2.887  0.00  0.00    +0.000 HD
ATOM     18  H   UNL     1     -17.859 -10.702   4.243  0.00  0.00    +0.000 HD
BRANCH  16  19
ATOM     19  C   UNL     1     -18.883 -11.029   2.386  0.00  0.00    +0.000 C 
ATOM     20  H   UNL     1     -19.231 -10.278   1.671  0.00  0.00    +0.000 HD
ATOM     21  H   UNL     1     -18.626 -11.939   1.833  0.00  0.00    +0.000 HD
ATOM     22  H   UNL     1     -19.710 -11.265   3.062  0.00  0.00    +0.000 HD
ENDBRANCH  16  19
ENDBRANCH  13  16
ENDBRANCH  10  13
ENDBRANCH   7  10
ENDBRANCH   4   7
ENDBRANCH   1   4
BRANCH   1  23
ATOM     23  C   UNL     1     -16.465 -10.399  -1.882  0.00  0.00    +0.000 C 
ATOM     24  H   UNL     1     -15.639  -9.812  -2.305  0.00  0.00    +0.000 HD
ATOM     25  H   UNL     1     -16.705 -11.180  -2.615  0.00  0.00    +0.000 HD
BRANCH  23  26
ATOM     26  C   UNL     1     -17.684  -9.487  -1.715  0.00  0.00    +0.000 C 
ATOM     27  H   UNL     1     -17.411  -8.661  -1.043  0.00  0.00    +0.000 HD
ATOM     28  H   UNL     1     -17.916  -9.030  -2.686  0.00  0.00    +0.000 HD
BRANCH  26  29
ATOM     29  C   UNL     1     -18.950 -10.155  -1.172  0.00  0.00    +0.000 C 
ATOM     30  H   UNL     1     -19.121  -9.810  -0.144  0.00  0.00    +0.000 HD
ATOM     31  H   UNL     1     -18.785 -11.237  -1.119  0.00  0.00    +0.000 HD
BRANCH  29  32
ATOM     32  C   UNL     1     -20.198  -9.872  -2.012  0.00  0.00    +0.000 C 
ATOM     33  H   UNL     1     -20.647  -8.926  -1.688  0.00  0.00    +0.000 HD
ATOM     34  H   UNL     1     -19.909  -9.751  -3.063  0.00  0.00    +0.000 HD
BRANCH  32  36
ATOM     35 CL   UNL     1     -21.533 -11.352  -0.167  0.00  0.00    +0.000 Cl
ATOM     36  C   UNL     1     -21.212 -11.002  -1.880  0.00  0.00    +0.000 C 
ATOM     37  H   UNL     1     -20.842 -11.921  -2.344  0.00  0.00    +0.000 HD
ATOM     38  H   UNL     1     -22.164 -10.735  -2.350  0.00  0.00    +0.000 HD
ENDBRANCH  32  36
ENDBRANCH  29  32
ENDBRANCH  26  29
ENDBRANCH  23  26
ENDBRANCH   1  23
TORSDOF 11
ENDMDL
MODEL 8
REMARK VINA RESULT:    -3.755     28.625     30.504
REMARK INTER + INTRA:          -7.322
REMARK INTER:                  -5.932
REMARK INTRA:                  -1.390
REMARK UNBOUND:                -1.263
REMARK  Name = 8192
REMARK  11 active torsions:
REMARK  status: ('A' for Active; 'I' for Inactive)
REMARK    1  A    between atoms: C_2  and  C_3
REMARK    2  A    between atoms: C_2  and  C_4
REMARK    3  A    between atoms: C_3  and  C_5
REMARK    4  A    between atoms: C_4  and  C_6
REMARK    5  A    between atoms: C_5  and  C_7
REMARK    6  A    between atoms: C_6  and  C_8
REMARK    7  A    between atoms: C_7  and  C_9
REMARK    8  A    between atoms: C_8  and  C_10
REMARK    9  A    between atoms: C_9  and  C_11
REMARK   10  A    between atoms: C_10  and  C_12
REMARK   11  A    between atoms: C_11  and  C_13
REMARK                            x       y       z     vdW  Elec       q    Type
REMARK                         _______ _______ _______ _____ _____    ______ ____
ROOT
ATOM      1  C   UNL     1     -16.654  -9.748   2.991  0.00  0.00    +0.000 C 
ATOM      2  H   UNL     1     -16.052 -10.572   2.594  0.00  0.00    +0.000 HD
ATOM      3  H   UNL     1     -16.161  -9.397   3.906  0.00  0.00    +0.000 HD
ENDROOT
BRANCH   1   4
ATOM      4  C   UNL     1     -18.062 -10.251   3.324  0.00  0.00    +0.000 C 
ATOM      5  H   UNL     1     -18.111 -10.532   4.383  0.00  0.00    +0.000 HD
ATOM      6  H   UNL     1     -18.789  -9.445   3.169  0.00  0.00    +0.000 HD
BRANCH   4   7
ATOM      7  C   UNL     1     -18.441 -11.453   2.456  0.00  0.00    +0.000 C 
ATOM      8  H   UNL     1     -18.808 -12.260   3.102  0.00  0.00    +0.000 HD
ATOM      9  H   UNL     1     -17.545 -11.834   1.951  0.00  0.00    +0.000 HD
BRANCH   7  10
ATOM     10  C   UNL     1     -19.508 -11.131   1.407  0.00  0.00    +0.000 C 
ATOM     11  H   UNL     1     -20.448 -11.624   1.688  0.00  0.00    +0.000 HD
ATOM     12  H   UNL     1     -19.703 -10.052   1.414  0.00  0.00    +0.000 HD
BRANCH  10  13
ATOM     13  C   UNL     1     -19.121 -11.568  -0.008  0.00  0.00    +0.000 C 
ATOM     14  H   UNL     1     -19.363 -12.629  -0.145  0.00  0.00    +0.000 HD
ATOM     15  H   UNL     1     -18.037 -11.465  -0.137  0.00  0.00    +0.000 HD
BRANCH  13  16
ATOM     16  C   UNL     1     -19.847 -10.734  -1.064  0.00  0.00    +0.000 C 
ATOM     17  H   UNL     1     -20.267 -11.392  -1.834  0.00  0.00    +0.000 HD
ATOM     18  H   UNL     1     -20.685 -10.197  -0.603  0.00  0.00    +0.000 HD
BRANCH  16  19
ATOM     19  C   UNL     1     -18.915  -9.728  -1.719  0.00  0.00    +0.000 C 
ATOM     20  H   UNL     1     -19.221  -8.702  -1.491  0.00  0.00    +0.000 HD
ATOM     21  H   UNL     1     -17.885  -9.865  -1.372  0.00  0.00    +0.000 HD
ATOM     22  H   UNL     1     -18.926  -9.853  -2.806  0.00  0.00    +0.000 HD
ENDBRANCH  16  19
ENDBRANCH  13  16
ENDBRANCH  10  13
ENDBRANCH   7  10
ENDBRANCH   4   7
ENDBRANCH   1   4
BRANCH   1  23
ATOM     23  C   UNL     1     -16.701  -8.613   1.966  0.00  0.00    +0.000 C 
ATOM     24  H   UNL     1     -17.746  -8.342   1.769  0.00  0.00    +0.000 HD
ATOM     25  H   UNL     1     -16.219  -7.723   2.390  0.00  0.00    +0.000 HD
BRANCH  23  26
ATOM     26  C   UNL     1     -16.021  -8.960   0.638  0.00  0.00    +0.000 C 
ATOM     27  H   UNL     1     -16.799  -9.220  -0.093  0.00  0.00    +0.000 HD
ATOM     28  H   UNL     1     -15.526  -8.059   0.252  0.00  0.00    +0.000 HD
BRANCH  26  29
ATOM     29  C   UNL     1     -15.000 -10.099   0.687  0.00  0.00    +0.000 C 
ATOM     30  H   UNL     1     -14.827 -10.377   1.734  0.00  0.00    +0.000 HD
ATOM     31  H   UNL     1     -14.043  -9.734   0.295  0.00  0.00    +0.000 HD
BRANCH  29  32
ATOM     32  C   UNL     1     -15.431 -11.339  -0.099  0.00  0.00    +0.000 C 
ATOM     33  H   UNL     1     -15.232 -12.236   0.499  0.00  0.00    +0.000 HD
ATOM     34  H   UNL     1     -16.513 -11.301  -0.276  0.00  0.00    +0.000 HD
BRANCH  32  36
ATOM     35 CL   UNL     1     -15.705 -10.793  -2.746  0.00  0.00    +0.000 Cl
ATOM     36  C   UNL     1     -14.692 -11.427  -1.429  0.00  0.00    +0.000 C 
ATOM     37  H   UNL     1     -14.440 -12.464  -1.674  0.00  0.00    +0.000 HD
ATOM     38  H   UNL     1     -13.768 -10.841  -1.407  0.00  0.00    +0.000 HD
ENDBRANCH  32  36
ENDBRANCH  29  32
ENDBRANCH  26  29
ENDBRANCH  23  26
ENDBRANCH   1  23
TORSDOF 11
ENDMDL
MODEL 9
REMARK VINA RESULT:    -3.653      3.095      6.541
REMARK INTER + INTRA:          -7.159
REMARK INTER:                  -6.564
REMARK INTRA:                  -0.595
REMARK UNBOUND:                -1.263
REMARK  Name = 8192
REMARK  11 active torsions:
REMARK  status: ('A' for Active; 'I' for Inactive)
REMARK    1  A    between atoms: C_2  and  C_3
REMARK    2  A    between atoms: C_2  and  C_4
REMARK    3  A    between atoms: C_3  and  C_5
REMARK    4  A    between atoms: C_4  and  C_6
REMARK    5  A    between atoms: C_5  and  C_7
REMARK    6  A    between atoms: C_6  and  C_8
REMARK    7  A    between atoms: C_7  and  C_9
REMARK    8  A    between atoms: C_8  and  C_10
REMARK    9  A    between atoms: C_9  and  C_11
REMARK   10  A    between atoms: C_10  and  C_12
REMARK   11  A    between atoms: C_11  and  C_13
REMARK                            x       y       z     vdW  Elec       q    Type
REMARK                         _______ _______ _______ _____ _____    ______ ____
ROOT
ATOM      1  C   UNL     1      -1.453  10.190  15.666  0.00  0.00    +0.000 C 
ATOM      2  H   UNL     1      -1.014  10.127  14.665  0.00  0.00    +0.000 HD
ATOM      3  H   UNL     1      -1.838  11.210  15.789  0.00  0.00    +0.000 HD
ENDROOT
BRANCH   1   4
ATOM      4  C   UNL     1      -0.375   9.915  16.720  0.00  0.00    +0.000 C 
ATOM      5  H   UNL     1       0.573   9.678  16.223  0.00  0.00    +0.000 HD
ATOM      6  H   UNL     1      -0.208  10.816  17.322  0.00  0.00    +0.000 HD
BRANCH   4   7
ATOM      7  C   UNL     1      -0.778   8.758  17.637  0.00  0.00    +0.000 C 
ATOM      8  H   UNL     1      -0.235   7.854  17.333  0.00  0.00    +0.000 HD
ATOM      9  H   UNL     1      -1.846   8.544  17.505  0.00  0.00    +0.000 HD
BRANCH   7  10
ATOM     10  C   UNL     1      -0.502   9.031  19.117  0.00  0.00    +0.000 C 
ATOM     11  H   UNL     1       0.139   9.918  19.205  0.00  0.00    +0.000 HD
ATOM     12  H   UNL     1      -1.447   9.274  19.619  0.00  0.00    +0.000 HD
BRANCH  10  13
ATOM     13  C   UNL     1       0.168   7.859  19.837  0.00  0.00    +0.000 C 
ATOM     14  H   UNL     1      -0.571   7.336  20.456  0.00  0.00    +0.000 HD
ATOM     15  H   UNL     1       0.943   8.241  20.513  0.00  0.00    +0.000 HD
BRANCH  13  16
ATOM     16  C   UNL     1       0.791   6.880  18.841  0.00  0.00    +0.000 C 
ATOM     17  H   UNL     1       0.416   5.868  19.031  0.00  0.00    +0.000 HD
ATOM     18  H   UNL     1       0.497   7.150  17.820  0.00  0.00    +0.000 HD
BRANCH  16  19
ATOM     19  C   UNL     1       2.308   6.878  18.935  0.00  0.00    +0.000 C 
ATOM     20  H   UNL     1       2.656   6.130  19.655  0.00  0.00    +0.000 HD
ATOM     21  H   UNL     1       2.760   6.655  17.963  0.00  0.00    +0.000 HD
ATOM     22  H   UNL     1       2.670   7.858  19.261  0.00  0.00    +0.000 HD
ENDBRANCH  16  19
ENDBRANCH  13  16
ENDBRANCH  10  13
ENDBRANCH   7  10
ENDBRANCH   4   7
ENDBRANCH   1   4
BRANCH   1  23
ATOM     23  C   UNL     1      -2.605   9.190  15.781  0.00  0.00    +0.000 C 
ATOM     24  H   UNL     1      -2.471   8.579  16.683  0.00  0.00    +0.000 HD
ATOM     25  H   UNL     1      -3.548   9.737  15.907  0.00  0.00    +0.000 HD
BRANCH  23  26
ATOM     26  C   UNL     1      -2.730   8.261  14.569  0.00  0.00    +0.000 C 
ATOM     27  H   UNL     1      -1.776   7.736  14.433  0.00  0.00    +0.000 HD
ATOM     28  H   UNL     1      -3.477   7.488  14.796  0.00  0.00    +0.000 HD
BRANCH  26  29
ATOM     29  C   UNL     1      -3.106   8.934  13.246  0.00  0.00    +0.000 C 
ATOM     30  H   UNL     1      -3.220  10.012  13.415  0.00  0.00    +0.000 HD
ATOM     31  H   UNL     1      -4.085   8.559  12.924  0.00  0.00    +0.000 HD
BRANCH  29  32
ATOM     32  C   UNL     1      -2.082   8.704  12.132  0.00  0.00    +0.000 C 
ATOM     33  H   UNL     1      -1.183   8.239  12.555  0.00  0.00    +0.000 HD
ATOM     34  H   UNL     1      -2.495   8.003  11.397  0.00  0.00    +0.000 HD
BRANCH  32  36
ATOM     35 CL   UNL     1      -3.143  10.729  10.666  0.00  0.00    +0.000 Cl
ATOM     36  C   UNL     1      -1.715  10.016  11.449  0.00  0.00    +0.000 C 
ATOM     37  H   UNL     1      -0.955   9.861  10.677  0.00  0.00    +0.000 HD
ATOM     38  H   UNL     1      -1.332  10.744  12.171  0.00  0.00    +0.000 HD
ENDBRANCH  32  36
ENDBRANCH  29  32
ENDBRANCH  26  29
ENDBRANCH  23  26
ENDBRANCH   1  23
TORSDOF 11
ENDMDL
MODEL 10
REMARK VINA RESULT:    -3.592     28.775     31.179
REMARK INTER + INTRA:          -7.059
REMARK INTER:                  -5.797
REMARK INTRA:                  -1.263
REMARK UNBOUND:                -1.263
REMARK  Name = 8192
REMARK  11 active torsions:
REMARK  status: ('A' for Active; 'I' for Inactive)
REMARK    1  A    between atoms: C_2  and  C_3
REMARK    2  A    between atoms: C_2  and  C_4
REMARK    3  A    between atoms: C_3  and  C_5
REMARK    4  A    between atoms: C_4  and  C_6
REMARK    5  A    between atoms: C_5  and  C_7
REMARK    6  A    between atoms: C_6  and  C_8
REMARK    7  A    between atoms: C_7  and  C_9
REMARK    8  A    between atoms: C_8  and  C_10
REMARK    9  A    between atoms: C_9  and  C_11
REMARK   10  A    between atoms: C_10  and  C_12
REMARK   11  A    between atoms: C_11  and  C_13
REMARK                            x       y       z     vdW  Elec       q    Type
REMARK                         _______ _______ _______ _____ _____    ______ ____
ROOT
ATOM      1  C   UNL     1     -17.383  -9.518  -1.406  0.00  0.00    +0.000 C 
ATOM      2  H   UNL     1     -16.977  -9.958  -2.323  0.00  0.00    +0.000 HD
ATOM      3  H   UNL     1     -17.512  -8.444  -1.591  0.00  0.00    +0.000 HD
ENDROOT
BRANCH   1   4
ATOM      4  C   UNL     1     -16.397  -9.728  -0.253  0.00  0.00    +0.000 C 
ATOM      5  H   UNL     1     -16.648 -10.651   0.284  0.00  0.00    +0.000 HD
ATOM      6  H   UNL     1     -15.383  -9.850  -0.651  0.00  0.00    +0.000 HD
BRANCH   4   7
ATOM      7  C   UNL     1     -16.422  -8.546   0.720  0.00  0.00    +0.000 C 
ATOM      8  H   UNL     1     -17.256  -7.883   0.455  0.00  0.00    +0.000 HD
ATOM      9  H   UNL     1     -15.502  -7.960   0.604  0.00  0.00    +0.000 HD
BRANCH   7  10
ATOM     10  C   UNL     1     -16.567  -8.967   2.184  0.00  0.00    +0.000 C 
ATOM     11  H   UNL     1     -16.009  -8.265   2.816  0.00  0.00    +0.000 HD
ATOM     12  H   UNL     1     -17.621  -8.886   2.477  0.00  0.00    +0.000 HD
BRANCH  10  13
ATOM     13  C   UNL     1     -16.071 -10.388   2.460  0.00  0.00    +0.000 C 
ATOM     14  H   UNL     1     -14.974 -10.397   2.485  0.00  0.00    +0.000 HD
ATOM     15  H   UNL     1     -16.380 -11.047   1.640  0.00  0.00    +0.000 HD
BRANCH  13  16
ATOM     16  C   UNL     1     -16.621 -10.920   3.784  0.00  0.00    +0.000 C 
ATOM     17  H   UNL     1     -16.744 -12.008   3.726  0.00  0.00    +0.000 HD
ATOM     18  H   UNL     1     -15.909 -10.716   4.592  0.00  0.00    +0.000 HD
BRANCH  16  19
ATOM     19  C   UNL     1     -17.958 -10.283   4.129  0.00  0.00    +0.000 C 
ATOM     20  H   UNL     1     -18.304  -9.633   3.319  0.00  0.00    +0.000 HD
ATOM     21  H   UNL     1     -18.721 -11.048   4.306  0.00  0.00    +0.000 HD
ATOM     22  H   UNL     1     -17.866  -9.678   5.036  0.00  0.00    +0.000 HD
ENDBRANCH  16  19
ENDBRANCH  13  16
ENDBRANCH  10  13
ENDBRANCH   7  10
ENDBRANCH   4   7
ENDBRANCH   1   4
BRANCH   1  23
ATOM     23  C   UNL     1     -18.740 -10.151  -1.095  0.00  0.00    +0.000 C 
ATOM     24  H   UNL     1     -19.389  -9.407  -0.615  0.00  0.00    +0.000 HD
ATOM     25  H   UNL     1     -19.230 -10.437  -2.035  0.00  0.00    +0.000 HD
BRANCH  23  26
ATOM     26  C   UNL     1     -18.647 -11.383  -0.190  0.00  0.00    +0.000 C 
ATOM     27  H   UNL     1     -18.928 -12.268  -0.777  0.00  0.00    +0.000 HD
ATOM     28  H   UNL     1     -17.598 -11.526   0.100  0.00  0.00    +0.000 HD
BRANCH  26  29
ATOM     29  C   UNL     1     -19.506 -11.349   1.077  0.00  0.00    +0.000 C 
ATOM     30  H   UNL     1     -19.614 -10.308   1.406  0.00  0.00    +0.000 HD
ATOM     31  H   UNL     1     -18.978 -11.880   1.878  0.00  0.00    +0.000 HD
BRANCH  29  32
ATOM     32  C   UNL     1     -20.895 -11.965   0.889  0.00  0.00    +0.000 C 
ATOM     33  H   UNL     1     -21.658 -11.244   1.205  0.00  0.00    +0.000 HD
ATOM     34  H   UNL     1     -21.061 -12.170  -0.175  0.00  0.00    +0.000 HD
BRANCH  32  36
ATOM     35 CL   UNL     1     -19.831 -13.301   3.001  0.00  0.00    +0.000 Cl
ATOM     36  C   UNL     1     -21.033 -13.253   1.693  0.00  0.00    +0.000 C 
ATOM     37  H   UNL     1     -20.872 -14.132   1.061  0.00  0.00    +0.000 HD
ATOM     38  H   UNL     1     -22.025 -13.330   2.149  0.00  0.00    +0.000 HD
ENDBRANCH  32  36
ENDBRANCH  29  32
ENDBRANCH  26  29
ENDBRANCH  23  26
ENDBRANCH   1  23
TORSDOF 11
ENDMDL
