MODEL 1
REMARK VINA RESULT:    -4.869      0.000      0.000
REMARK INTER + INTRA:          -7.663
REMARK INTER:                  -7.065
REMARK INTRA:                  -0.598
REMARK UNBOUND:                -0.517
REMARK  Name = 8914
REMARK  9 active torsions:
REMARK  status: ('A' for Active; 'I' for Inactive)
REMARK    1  A    between atoms: O_1  and  C_9
REMARK    2  A    between atoms: C_2  and  C_3
REMARK    3  A    between atoms: C_2  and  C_4
REMARK    4  A    between atoms: C_3  and  C_5
REMARK    5  A    between atoms: C_4  and  C_6
REMARK    6  A    between atoms: C_5  and  C_7
REMARK    7  A    between atoms: C_6  and  C_8
REMARK    8  A    between atoms: C_7  and  C_9
REMARK    9  A    between atoms: C_8  and  C_10
REMARK                            x       y       z     vdW  Elec       q    Type
REMARK                         _______ _______ _______ _____ _____    ______ ____
ROOT
ATOM      1  C   UNL     1       5.595  -1.391  -2.263  0.00  0.00    +0.000 C 
ATOM      2  H   UNL     1       4.994  -1.729  -1.408  0.00  0.00    +0.000 HD
ATOM      3  H   UNL     1       4.935  -1.413  -3.140  0.00  0.00    +0.000 HD
ENDROOT
BRANCH   1   4
ATOM      4  C   UNL     1       6.758  -2.361  -2.481  0.00  0.00    +0.000 C 
ATOM      5  H   UNL     1       6.849  -2.590  -3.550  0.00  0.00    +0.000 HD
ATOM      6  H   UNL     1       6.547  -3.305  -1.965  0.00  0.00    +0.000 HD
BRANCH   4   7
ATOM      7  C   UNL     1       8.073  -1.774  -1.963  0.00  0.00    +0.000 C 
ATOM      8  H   UNL     1       7.915  -0.735  -1.651  0.00  0.00    +0.000 HD
ATOM      9  H   UNL     1       8.403  -2.331  -1.077  0.00  0.00    +0.000 HD
BRANCH   7  10
ATOM     10  C   UNL     1       9.166  -1.828  -3.034  0.00  0.00    +0.000 C 
ATOM     11  H   UNL     1      10.141  -1.584  -2.594  0.00  0.00    +0.000 HD
ATOM     12  H   UNL     1       9.260  -2.851  -3.421  0.00  0.00    +0.000 HD
BRANCH  10  13
ATOM     13  C   UNL     1       8.885  -0.877  -4.191  0.00  0.00    +0.000 C 
ATOM     14  H   UNL     1       8.038  -1.222  -4.794  0.00  0.00    +0.000 HD
ATOM     15  H   UNL     1       8.656   0.127  -3.822  0.00  0.00    +0.000 HD
BRANCH  13  16
ATOM     16  O   UNL     1      10.027  -0.787  -5.032  0.00  0.00    +0.000 OA
ATOM     17  H   UNL     1       9.987   0.070  -5.489  0.00  0.00    +0.000 HD
ENDBRANCH  13  16
ENDBRANCH  10  13
ENDBRANCH   7  10
ENDBRANCH   4   7
ENDBRANCH   1   4
BRANCH   1  18
ATOM     18  C   UNL     1       6.040   0.054  -2.017  0.00  0.00    +0.000 C 
ATOM     19  H   UNL     1       5.479   0.454  -1.163  0.00  0.00    +0.000 HD
ATOM     20  H   UNL     1       7.095   0.043  -1.714  0.00  0.00    +0.000 HD
BRANCH  18  21
ATOM     21  C   UNL     1       5.883   1.013  -3.199  0.00  0.00    +0.000 C 
ATOM     22  H   UNL     1       6.864   1.170  -3.667  0.00  0.00    +0.000 HD
ATOM     23  H   UNL     1       5.556   1.989  -2.818  0.00  0.00    +0.000 HD
BRANCH  21  24
ATOM     24  C   UNL     1       4.889   0.525  -4.252  0.00  0.00    +0.000 C 
ATOM     25  H   UNL     1       4.359  -0.360  -3.879  0.00  0.00    +0.000 HD
ATOM     26  H   UNL     1       4.136   1.299  -4.441  0.00  0.00    +0.000 HD
BRANCH  24  27
ATOM     27  C   UNL     1       5.588   0.183  -5.559  0.00  0.00    +0.000 C 
ATOM     28  H   UNL     1       5.453  -0.877  -5.795  0.00  0.00    +0.000 HD
ATOM     29  H   UNL     1       5.180   0.770  -6.388  0.00  0.00    +0.000 HD
ATOM     30  H   UNL     1       6.663   0.382  -5.493  0.00  0.00    +0.000 HD
ENDBRANCH  24  27
ENDBRANCH  21  24
ENDBRANCH  18  21
ENDBRANCH   1  18
TORSDOF 9
ENDMDL
MODEL 2
REMARK VINA RESULT:    -4.657      1.539      2.060
REMARK INTER + INTRA:          -7.352
REMARK INTER:                  -6.915
REMARK INTRA:                  -0.437
REMARK UNBOUND:                -0.517
REMARK  Name = 8914
REMARK  9 active torsions:
REMARK  status: ('A' for Active; 'I' for Inactive)
REMARK    1  A    between atoms: O_1  and  C_9
REMARK    2  A    between atoms: C_2  and  C_3
REMARK    3  A    between atoms: C_2  and  C_4
REMARK    4  A    between atoms: C_3  and  C_5
REMARK    5  A    between atoms: C_4  and  C_6
REMARK    6  A    between atoms: C_5  and  C_7
REMARK    7  A    between atoms: C_6  and  C_8
REMARK    8  A    between atoms: C_7  and  C_9
REMARK    9  A    between atoms: C_8  and  C_10
REMARK                            x       y       z     vdW  Elec       q    Type
REMARK                         _______ _______ _______ _____ _____    ______ ____
ROOT
ATOM      1  C   UNL     1       8.464  -0.081  -2.362  0.00  0.00    +0.000 C 
ATOM      2  H   UNL     1       9.318   0.556  -2.626  0.00  0.00    +0.000 HD
ATOM      3  H   UNL     1       8.568  -0.322  -1.296  0.00  0.00    +0.000 HD
ENDROOT
BRANCH   1   4
ATOM      4  C   UNL     1       8.521  -1.372  -3.180  0.00  0.00    +0.000 C 
ATOM      5  H   UNL     1       7.502  -1.701  -3.419  0.00  0.00    +0.000 HD
ATOM      6  H   UNL     1       8.984  -2.165  -2.580  0.00  0.00    +0.000 HD
BRANCH   4   7
ATOM      7  C   UNL     1       9.317  -1.176  -4.473  0.00  0.00    +0.000 C 
ATOM      8  H   UNL     1       8.720  -1.518  -5.327  0.00  0.00    +0.000 HD
ATOM      9  H   UNL     1       9.518  -0.108  -4.624  0.00  0.00    +0.000 HD
BRANCH   7  10
ATOM     10  C   UNL     1      10.642  -1.942  -4.432  0.00  0.00    +0.000 C 
ATOM     11  H   UNL     1      10.715  -2.523  -3.504  0.00  0.00    +0.000 HD
ATOM     12  H   UNL     1      10.673  -2.677  -5.248  0.00  0.00    +0.000 HD
BRANCH  10  13
ATOM     13  C   UNL     1      11.846  -1.017  -4.543  0.00  0.00    +0.000 C 
ATOM     14  H   UNL     1      12.080  -0.549  -3.581  0.00  0.00    +0.000 HD
ATOM     15  H   UNL     1      12.731  -1.569  -4.879  0.00  0.00    +0.000 HD
BRANCH  13  16
ATOM     16  O   UNL     1      11.584   0.009  -5.490  0.00  0.00    +0.000 OA
ATOM     17  H   UNL     1      10.891  -0.316  -6.090  0.00  0.00    +0.000 HD
ENDBRANCH  13  16
ENDBRANCH  10  13
ENDBRANCH   7  10
ENDBRANCH   4   7
ENDBRANCH   1   4
BRANCH   1  18
ATOM     18  C   UNL     1       7.170   0.714  -2.564  0.00  0.00    +0.000 C 
ATOM     19  H   UNL     1       6.912   1.211  -1.620  0.00  0.00    +0.000 HD
ATOM     20  H   UNL     1       7.366   1.514  -3.289  0.00  0.00    +0.000 HD
BRANCH  18  21
ATOM     21  C   UNL     1       5.958  -0.090  -3.041  0.00  0.00    +0.000 C 
ATOM     22  H   UNL     1       5.332  -0.341  -2.175  0.00  0.00    +0.000 HD
ATOM     23  H   UNL     1       6.311  -1.041  -3.461  0.00  0.00    +0.000 HD
BRANCH  21  24
ATOM     24  C   UNL     1       5.115   0.641  -4.085  0.00  0.00    +0.000 C 
ATOM     25  H   UNL     1       4.050   0.452  -3.900  0.00  0.00    +0.000 HD
ATOM     26  H   UNL     1       5.273   1.722  -4.000  0.00  0.00    +0.000 HD
BRANCH  24  27
ATOM     27  C   UNL     1       5.470   0.196  -5.496  0.00  0.00    +0.000 C 
ATOM     28  H   UNL     1       4.772   0.630  -6.218  0.00  0.00    +0.000 HD
ATOM     29  H   UNL     1       6.481   0.517  -5.766  0.00  0.00    +0.000 HD
ATOM     30  H   UNL     1       5.420  -0.894  -5.588  0.00  0.00    +0.000 HD
ENDBRANCH  24  27
ENDBRANCH  21  24
ENDBRANCH  18  21
ENDBRANCH   1  18
TORSDOF 9
ENDMDL
MODEL 3
REMARK VINA RESULT:    -4.368      2.032      3.251
REMARK INTER + INTRA:          -6.927
REMARK INTER:                  -6.145
REMARK INTRA:                  -0.783
REMARK UNBOUND:                -0.517
REMARK  Name = 8914
REMARK  9 active torsions:
REMARK  status: ('A' for Active; 'I' for Inactive)
REMARK    1  A    between atoms: O_1  and  C_9
REMARK    2  A    between atoms: C_2  and  C_3
REMARK    3  A    between atoms: C_2  and  C_4
REMARK    4  A    between atoms: C_3  and  C_5
REMARK    5  A    between atoms: C_4  and  C_6
REMARK    6  A    between atoms: C_5  and  C_7
REMARK    7  A    between atoms: C_6  and  C_8
REMARK    8  A    between atoms: C_7  and  C_9
REMARK    9  A    between atoms: C_8  and  C_10
REMARK                            x       y       z     vdW  Elec       q    Type
REMARK                         _______ _______ _______ _____ _____    ______ ____
ROOT
ATOM      1  C   UNL     1       5.849   0.917  -3.186  0.00  0.00    +0.000 C 
ATOM      2  H   UNL     1       6.418   1.195  -4.082  0.00  0.00    +0.000 HD
ATOM      3  H   UNL     1       4.864   1.392  -3.279  0.00  0.00    +0.000 HD
ENDROOT
BRANCH   1   4
ATOM      4  C   UNL     1       6.557   1.461  -1.945  0.00  0.00    +0.000 C 
ATOM      5  H   UNL     1       5.924   2.215  -1.462  0.00  0.00    +0.000 HD
ATOM      6  H   UNL     1       7.486   1.962  -2.244  0.00  0.00    +0.000 HD
BRANCH   4   7
ATOM      7  C   UNL     1       6.876   0.341  -0.952  0.00  0.00    +0.000 C 
ATOM      8  H   UNL     1       6.356   0.531  -0.004  0.00  0.00    +0.000 HD
ATOM      9  H   UNL     1       6.503  -0.615  -1.340  0.00  0.00    +0.000 HD
BRANCH   7  10
ATOM     10  C   UNL     1       8.382   0.234  -0.698  0.00  0.00    +0.000 C 
ATOM     11  H   UNL     1       8.939   0.541  -1.592  0.00  0.00    +0.000 HD
ATOM     12  H   UNL     1       8.678   0.934   0.094  0.00  0.00    +0.000 HD
BRANCH  10  13
ATOM     13  C   UNL     1       8.801  -1.176  -0.304  0.00  0.00    +0.000 C 
ATOM     14  H   UNL     1       9.888  -1.302  -0.368  0.00  0.00    +0.000 HD
ATOM     15  H   UNL     1       8.491  -1.402   0.721  0.00  0.00    +0.000 HD
BRANCH  13  16
ATOM     16  O   UNL     1       8.188  -2.123  -1.168  0.00  0.00    +0.000 OA
ATOM     17  H   UNL     1       8.510  -3.004  -0.912  0.00  0.00    +0.000 HD
ENDBRANCH  13  16
ENDBRANCH  10  13
ENDBRANCH   7  10
ENDBRANCH   4   7
ENDBRANCH   1   4
BRANCH   1  18
ATOM     18  C   UNL     1       5.664  -0.604  -3.168  0.00  0.00    +0.000 C 
ATOM     19  H   UNL     1       5.902  -0.975  -2.163  0.00  0.00    +0.000 HD
ATOM     20  H   UNL     1       4.602  -0.825  -3.334  0.00  0.00    +0.000 HD
BRANCH  18  21
ATOM     21  C   UNL     1       6.491  -1.390  -4.189  0.00  0.00    +0.000 C 
ATOM     22  H   UNL     1       5.820  -1.799  -4.955  0.00  0.00    +0.000 HD
ATOM     23  H   UNL     1       6.950  -2.249  -3.682  0.00  0.00    +0.000 HD
BRANCH  21  24
ATOM     24  C   UNL     1       7.583  -0.558  -4.859  0.00  0.00    +0.000 C 
ATOM     25  H   UNL     1       7.502  -0.649  -5.949  0.00  0.00    +0.000 HD
ATOM     26  H   UNL     1       7.449   0.501  -4.610  0.00  0.00    +0.000 HD
BRANCH  24  27
ATOM     27  C   UNL     1       8.969  -1.001  -4.415  0.00  0.00    +0.000 C 
ATOM     28  H   UNL     1       9.734  -0.559  -5.062  0.00  0.00    +0.000 HD
ATOM     29  H   UNL     1       9.172  -0.686  -3.387  0.00  0.00    +0.000 HD
ATOM     30  H   UNL     1       9.069  -2.090  -4.468  0.00  0.00    +0.000 HD
ENDBRANCH  24  27
ENDBRANCH  21  24
ENDBRANCH  18  21
ENDBRANCH   1  18
TORSDOF 9
ENDMDL
MODEL 4
REMARK VINA RESULT:    -4.043      2.218      4.512
REMARK INTER + INTRA:          -6.452
REMARK INTER:                  -5.999
REMARK INTRA:                  -0.453
REMARK UNBOUND:                -0.517
REMARK  Name = 8914
REMARK  9 active torsions:
REMARK  status: ('A' for Active; 'I' for Inactive)
REMARK    1  A    between atoms: O_1  and  C_9
REMARK    2  A    between atoms: C_2  and  C_3
REMARK    3  A    between atoms: C_2  and  C_4
REMARK    4  A    between atoms: C_3  and  C_5
REMARK    5  A    between atoms: C_4  and  C_6
REMARK    6  A    between atoms: C_5  and  C_7
REMARK    7  A    between atoms: C_6  and  C_8
REMARK    8  A    between atoms: C_7  and  C_9
REMARK    9  A    between atoms: C_8  and  C_10
REMARK                            x       y       z     vdW  Elec       q    Type
REMARK                         _______ _______ _______ _____ _____    ______ ____
ROOT
ATOM      1  C   UNL     1       9.062   0.343  -2.188  0.00  0.00    +0.000 C 
ATOM      2  H   UNL     1       9.363  -0.305  -1.354  0.00  0.00    +0.000 HD
ATOM      3  H   UNL     1       9.712   1.227  -2.151  0.00  0.00    +0.000 HD
ENDROOT
BRANCH   1   4
ATOM      4  C   UNL     1       7.608   0.776  -1.996  0.00  0.00    +0.000 C 
ATOM      5  H   UNL     1       7.547   1.871  -2.005  0.00  0.00    +0.000 HD
ATOM      6  H   UNL     1       7.253   0.440  -1.014  0.00  0.00    +0.000 HD
BRANCH   4   7
ATOM      7  C   UNL     1       6.708   0.200  -3.092  0.00  0.00    +0.000 C 
ATOM      8  H   UNL     1       6.159   1.013  -3.582  0.00  0.00    +0.000 HD
ATOM      9  H   UNL     1       7.324  -0.285  -3.859  0.00  0.00    +0.000 HD
BRANCH   7  10
ATOM     10  C   UNL     1       5.716  -0.816  -2.519  0.00  0.00    +0.000 C 
ATOM     11  H   UNL     1       5.634  -0.694  -1.432  0.00  0.00    +0.000 HD
ATOM     12  H   UNL     1       4.711  -0.623  -2.918  0.00  0.00    +0.000 HD
BRANCH  10  13
ATOM     13  C   UNL     1       6.114  -2.252  -2.835  0.00  0.00    +0.000 C 
ATOM     14  H   UNL     1       5.261  -2.933  -2.741  0.00  0.00    +0.000 HD
ATOM     15  H   UNL     1       6.504  -2.332  -3.855  0.00  0.00    +0.000 HD
BRANCH  13  16
ATOM     16  O   UNL     1       7.132  -2.681  -1.941  0.00  0.00    +0.000 OA
ATOM     17  H   UNL     1       6.724  -3.294  -1.306  0.00  0.00    +0.000 HD
ENDBRANCH  13  16
ENDBRANCH  10  13
ENDBRANCH   7  10
ENDBRANCH   4   7
ENDBRANCH   1   4
BRANCH   1  18
ATOM     18  C   UNL     1       9.311  -0.398  -3.506  0.00  0.00    +0.000 C 
ATOM     19  H   UNL     1       8.352  -0.527  -4.023  0.00  0.00    +0.000 HD
ATOM     20  H   UNL     1       9.925   0.243  -4.152  0.00  0.00    +0.000 HD
BRANCH  18  21
ATOM     21  C   UNL     1       9.992  -1.764  -3.388  0.00  0.00    +0.000 C 
ATOM     22  H   UNL     1       9.229  -2.551  -3.449  0.00  0.00    +0.000 HD
ATOM     23  H   UNL     1      10.448  -1.844  -2.392  0.00  0.00    +0.000 HD
BRANCH  21  24
ATOM     24  C   UNL     1      11.061  -2.006  -4.452  0.00  0.00    +0.000 C 
ATOM     25  H   UNL     1      11.675  -2.871  -4.172  0.00  0.00    +0.000 HD
ATOM     26  H   UNL     1      10.584  -2.243  -5.410  0.00  0.00    +0.000 HD
BRANCH  24  27
ATOM     27  C   UNL     1      11.954  -0.787  -4.630  0.00  0.00    +0.000 C 
ATOM     28  H   UNL     1      12.959  -0.996  -4.252  0.00  0.00    +0.000 HD
ATOM     29  H   UNL     1      12.038  -0.512  -5.685  0.00  0.00    +0.000 HD
ATOM     30  H   UNL     1      11.556   0.073  -4.081  0.00  0.00    +0.000 HD
ENDBRANCH  24  27
ENDBRANCH  21  24
ENDBRANCH  18  21
ENDBRANCH   1  18
TORSDOF 9
ENDMDL
MODEL 5
REMARK VINA RESULT:    -4.017      4.087      5.293
REMARK INTER + INTRA:          -6.412
REMARK INTER:                  -6.100
REMARK INTRA:                  -0.312
REMARK UNBOUND:                -0.517
REMARK  Name = 8914
REMARK  9 active torsions:
REMARK  status: ('A' for Active; 'I' for Inactive)
REMARK    1  A    between atoms: O_1  and  C_9
REMARK    2  A    between atoms: C_2  and  C_3
REMARK    3  A    between atoms: C_2  and  C_4
REMARK    4  A    between atoms: C_3  and  C_5
REMARK    5  A    between atoms: C_4  and  C_6
REMARK    6  A    between atoms: C_5  and  C_7
REMARK    7  A    between atoms: C_6  and  C_8
REMARK    8  A    between atoms: C_7  and  C_9
REMARK    9  A    between atoms: C_8  and  C_10
REMARK                            x       y       z     vdW  Elec       q    Type
REMARK                         _______ _______ _______ _____ _____    ______ ____
ROOT
ATOM      1  C   UNL     1       6.825   1.136  -2.022  0.00  0.00    +0.000 C 
ATOM      2  H   UNL     1       6.723   2.038  -2.640  0.00  0.00    +0.000 HD
ATOM      3  H   UNL     1       5.976   0.487  -2.269  0.00  0.00    +0.000 HD
ENDROOT
BRANCH   1   4
ATOM      4  C   UNL     1       6.754   1.523  -0.544  0.00  0.00    +0.000 C 
ATOM      5  H   UNL     1       6.787   0.618   0.074  0.00  0.00    +0.000 HD
ATOM      6  H   UNL     1       5.796   2.018  -0.342  0.00  0.00    +0.000 HD
BRANCH   4   7
ATOM      7  C   UNL     1       7.905   2.455  -0.158  0.00  0.00    +0.000 C 
ATOM      8  H   UNL     1       8.540   1.965   0.590  0.00  0.00    +0.000 HD
ATOM      9  H   UNL     1       8.532   2.652  -1.036  0.00  0.00    +0.000 HD
BRANCH   7  10
ATOM     10  C   UNL     1       7.383   3.781   0.402  0.00  0.00    +0.000 C 
ATOM     11  H   UNL     1       6.397   4.009  -0.021  0.00  0.00    +0.000 HD
ATOM     12  H   UNL     1       7.231   3.694   1.486  0.00  0.00    +0.000 HD
BRANCH  10  13
ATOM     13  C   UNL     1       8.331   4.939   0.119  0.00  0.00    +0.000 C 
ATOM     14  H   UNL     1       9.368   4.596   0.042  0.00  0.00    +0.000 HD
ATOM     15  H   UNL     1       8.066   5.439  -0.818  0.00  0.00    +0.000 HD
BRANCH  13  16
ATOM     16  O   UNL     1       8.251   5.898   1.165  0.00  0.00    +0.000 OA
ATOM     17  H   UNL     1       8.896   6.598   0.970  0.00  0.00    +0.000 HD
ENDBRANCH  13  16
ENDBRANCH  10  13
ENDBRANCH   7  10
ENDBRANCH   4   7
ENDBRANCH   1   4
BRANCH   1  18
ATOM     18  C   UNL     1       8.124   0.418  -2.404  0.00  0.00    +0.000 C 
ATOM     19  H   UNL     1       8.672   1.041  -3.121  0.00  0.00    +0.000 HD
ATOM     20  H   UNL     1       8.756   0.348  -1.510  0.00  0.00    +0.000 HD
BRANCH  18  21
ATOM     21  C   UNL     1       7.962  -0.984  -2.998  0.00  0.00    +0.000 C 
ATOM     22  H   UNL     1       8.944  -1.349  -3.326  0.00  0.00    +0.000 HD
ATOM     23  H   UNL     1       7.336  -0.915  -3.897  0.00  0.00    +0.000 HD
BRANCH  21  24
ATOM     24  C   UNL     1       7.342  -1.989  -2.028  0.00  0.00    +0.000 C 
ATOM     25  H   UNL     1       8.030  -2.830  -1.876  0.00  0.00    +0.000 HD
ATOM     26  H   UNL     1       7.187  -1.516  -1.052  0.00  0.00    +0.000 HD
BRANCH  24  27
ATOM     27  C   UNL     1       6.010  -2.510  -2.546  0.00  0.00    +0.000 C 
ATOM     28  H   UNL     1       6.045  -2.627  -3.633  0.00  0.00    +0.000 HD
ATOM     29  H   UNL     1       5.773  -3.485  -2.108  0.00  0.00    +0.000 HD
ATOM     30  H   UNL     1       5.197  -1.818  -2.305  0.00  0.00    +0.000 HD
ENDBRANCH  24  27
ENDBRANCH  21  24
ENDBRANCH  18  21
ENDBRANCH   1  18
TORSDOF 9
ENDMDL
MODEL 6
REMARK VINA RESULT:    -3.989     15.067     16.056
REMARK INTER + INTRA:          -6.373
REMARK INTER:                  -6.120
REMARK INTRA:                  -0.253
REMARK UNBOUND:                -0.517
REMARK  Name = 8914
REMARK  9 active torsions:
REMARK  status: ('A' for Active; 'I' for Inactive)
REMARK    1  A    between atoms: O_1  and  C_9
REMARK    2  A    between atoms: C_2  and  C_3
REMARK    3  A    between atoms: C_2  and  C_4
REMARK    4  A    between atoms: C_3  and  C_5
REMARK    5  A    between atoms: C_4  and  C_6
REMARK    6  A    between atoms: C_5  and  C_7
REMARK    7  A    between atoms: C_6  and  C_8
REMARK    8  A    between atoms: C_7  and  C_9
REMARK    9  A    between atoms: C_8  and  C_10
REMARK                            x       y       z     vdW  Elec       q    Type
REMARK                         _______ _______ _______ _____ _____    ______ ____
ROOT
ATOM      1  C   UNL     1      -0.822 -12.130  -9.238  0.00  0.00    +0.000 C 
ATOM      2  H   UNL     1      -0.022 -11.692  -9.848  0.00  0.00    +0.000 HD
ATOM      3  H   UNL     1      -1.690 -11.465  -9.332  0.00  0.00    +0.000 HD
ENDROOT
BRANCH   1   4
ATOM      4  C   UNL     1      -0.377 -12.177  -7.775  0.00  0.00    +0.000 C 
ATOM      5  H   UNL     1      -0.411 -11.167  -7.349  0.00  0.00    +0.000 HD
ATOM      6  H   UNL     1       0.664 -12.517  -7.721  0.00  0.00    +0.000 HD
BRANCH   4   7
ATOM      7  C   UNL     1      -1.266 -13.114  -6.955  0.00  0.00    +0.000 C 
ATOM      8  H   UNL     1      -2.308 -12.776  -7.012  0.00  0.00    +0.000 HD
ATOM      9  H   UNL     1      -1.230 -14.125  -7.379  0.00  0.00    +0.000 HD
BRANCH   7  10
ATOM     10  C   UNL     1      -0.822 -13.161  -5.490  0.00  0.00    +0.000 C 
ATOM     11  H   UNL     1       0.213 -12.810  -5.397  0.00  0.00    +0.000 HD
ATOM     12  H   UNL     1      -1.429 -12.467  -4.894  0.00  0.00    +0.000 HD
BRANCH  10  13
ATOM     13  C   UNL     1      -0.934 -14.560  -4.899  0.00  0.00    +0.000 C 
ATOM     14  H   UNL     1      -1.876 -14.690  -4.355  0.00  0.00    +0.000 HD
ATOM     15  H   UNL     1      -0.886 -15.320  -5.686  0.00  0.00    +0.000 HD
BRANCH  13  16
ATOM     16  O   UNL     1       0.140 -14.793  -3.998  0.00  0.00    +0.000 OA
ATOM     17  H   UNL     1       0.541 -13.931  -3.792  0.00  0.00    +0.000 HD
ENDBRANCH  13  16
ENDBRANCH  10  13
ENDBRANCH   7  10
ENDBRANCH   4   7
ENDBRANCH   1   4
BRANCH   1  18
ATOM     18  C   UNL     1      -1.187 -13.503  -9.811  0.00  0.00    +0.000 C 
ATOM     19  H   UNL     1      -0.657 -14.275  -9.239  0.00  0.00    +0.000 HD
ATOM     20  H   UNL     1      -2.258 -13.675  -9.641  0.00  0.00    +0.000 HD
BRANCH  18  21
ATOM     21  C   UNL     1      -0.892 -13.708 -11.300  0.00  0.00    +0.000 C 
ATOM     22  H   UNL     1      -1.773 -13.412 -11.883  0.00  0.00    +0.000 HD
ATOM     23  H   UNL     1      -0.737 -14.779 -11.483  0.00  0.00    +0.000 HD
BRANCH  21  24
ATOM     24  C   UNL     1       0.329 -12.930 -11.790  0.00  0.00    +0.000 C 
ATOM     25  H   UNL     1       0.262 -11.887 -11.460  0.00  0.00    +0.000 HD
ATOM     26  H   UNL     1       1.240 -13.352 -11.350  0.00  0.00    +0.000 HD
BRANCH  24  27
ATOM     27  C   UNL     1       0.443 -12.976 -13.306  0.00  0.00    +0.000 C 
ATOM     28  H   UNL     1       0.887 -13.924 -13.625  0.00  0.00    +0.000 HD
ATOM     29  H   UNL     1      -0.541 -12.886 -13.777  0.00  0.00    +0.000 HD
ATOM     30  H   UNL     1       1.077 -12.163 -13.677  0.00  0.00    +0.000 HD
ENDBRANCH  24  27
ENDBRANCH  21  24
ENDBRANCH  18  21
ENDBRANCH   1  18
TORSDOF 9
ENDMDL
MODEL 7
REMARK VINA RESULT:    -3.973      3.200      3.808
REMARK INTER + INTRA:          -6.348
REMARK INTER:                  -5.988
REMARK INTRA:                  -0.361
REMARK UNBOUND:                -0.517
REMARK  Name = 8914
REMARK  9 active torsions:
REMARK  status: ('A' for Active; 'I' for Inactive)
REMARK    1  A    between atoms: O_1  and  C_9
REMARK    2  A    between atoms: C_2  and  C_3
REMARK    3  A    between atoms: C_2  and  C_4
REMARK    4  A    between atoms: C_3  and  C_5
REMARK    5  A    between atoms: C_4  and  C_6
REMARK    6  A    between atoms: C_5  and  C_7
REMARK    7  A    between atoms: C_6  and  C_8
REMARK    8  A    between atoms: C_7  and  C_9
REMARK    9  A    between atoms: C_8  and  C_10
REMARK                            x       y       z     vdW  Elec       q    Type
REMARK                         _______ _______ _______ _____ _____    ______ ____
ROOT
ATOM      1  C   UNL     1       6.676   1.543  -1.623  0.00  0.00    +0.000 C 
ATOM      2  H   UNL     1       6.448   2.445  -2.205  0.00  0.00    +0.000 HD
ATOM      3  H   UNL     1       5.716   1.142  -1.273  0.00  0.00    +0.000 HD
ENDROOT
BRANCH   1   4
ATOM      4  C   UNL     1       7.535   1.922  -0.415  0.00  0.00    +0.000 C 
ATOM      5  H   UNL     1       7.137   1.438   0.485  0.00  0.00    +0.000 HD
ATOM      6  H   UNL     1       7.478   3.005  -0.252  0.00  0.00    +0.000 HD
BRANCH   4   7
ATOM      7  C   UNL     1       8.995   1.510  -0.621  0.00  0.00    +0.000 C 
ATOM      8  H   UNL     1       9.080   0.903  -1.531  0.00  0.00    +0.000 HD
ATOM      9  H   UNL     1       9.614   2.403  -0.768  0.00  0.00    +0.000 HD
BRANCH   7  10
ATOM     10  C   UNL     1       9.522   0.715   0.577  0.00  0.00    +0.000 C 
ATOM     11  H   UNL     1      10.616   0.641   0.529  0.00  0.00    +0.000 HD
ATOM     12  H   UNL     1       9.299   1.252   1.508  0.00  0.00    +0.000 HD
BRANCH  10  13
ATOM     13  C   UNL     1       8.926  -0.684   0.648  0.00  0.00    +0.000 C 
ATOM     14  H   UNL     1       8.291  -0.892  -0.220  0.00  0.00    +0.000 HD
ATOM     15  H   UNL     1       9.715  -1.442   0.683  0.00  0.00    +0.000 HD
BRANCH  13  16
ATOM     16  O   UNL     1       8.138  -0.816   1.823  0.00  0.00    +0.000 OA
ATOM     17  H   UNL     1       7.744  -1.704   1.813  0.00  0.00    +0.000 HD
ENDBRANCH  13  16
ENDBRANCH  10  13
ENDBRANCH   7  10
ENDBRANCH   4   7
ENDBRANCH   1   4
BRANCH   1  18
ATOM     18  C   UNL     1       7.336   0.511  -2.543  0.00  0.00    +0.000 C 
ATOM     19  H   UNL     1       8.089   1.020  -3.158  0.00  0.00    +0.000 HD
ATOM     20  H   UNL     1       7.882  -0.209  -1.921  0.00  0.00    +0.000 HD
BRANCH  18  21
ATOM     21  C   UNL     1       6.391  -0.263  -3.467  0.00  0.00    +0.000 C 
ATOM     22  H   UNL     1       5.888  -1.048  -2.889  0.00  0.00    +0.000 HD
ATOM     23  H   UNL     1       6.989  -0.770  -4.235  0.00  0.00    +0.000 HD
BRANCH  21  24
ATOM     24  C   UNL     1       5.344   0.620  -4.146  0.00  0.00    +0.000 C 
ATOM     25  H   UNL     1       4.368   0.470  -3.670  0.00  0.00    +0.000 HD
ATOM     26  H   UNL     1       5.609   1.676  -4.018  0.00  0.00    +0.000 HD
BRANCH  24  27
ATOM     27  C   UNL     1       5.237   0.312  -5.631  0.00  0.00    +0.000 C 
ATOM     28  H   UNL     1       5.499   1.195  -6.222  0.00  0.00    +0.000 HD
ATOM     29  H   UNL     1       5.915  -0.499  -5.914  0.00  0.00    +0.000 HD
ATOM     30  H   UNL     1       4.217   0.016  -5.898  0.00  0.00    +0.000 HD
ENDBRANCH  24  27
ENDBRANCH  21  24
ENDBRANCH  18  21
ENDBRANCH   1  18
TORSDOF 9
ENDMDL
MODEL 8
REMARK VINA RESULT:    -3.857     16.337     17.373
REMARK INTER + INTRA:          -6.179
REMARK INTER:                  -5.977
REMARK INTRA:                  -0.201
REMARK UNBOUND:                -0.517
REMARK  Name = 8914
REMARK  9 active torsions:
REMARK  status: ('A' for Active; 'I' for Inactive)
REMARK    1  A    between atoms: O_1  and  C_9
REMARK    2  A    between atoms: C_2  and  C_3
REMARK    3  A    between atoms: C_2  and  C_4
REMARK    4  A    between atoms: C_3  and  C_5
REMARK    5  A    between atoms: C_4  and  C_6
REMARK    6  A    between atoms: C_5  and  C_7
REMARK    7  A    between atoms: C_6  and  C_8
REMARK    8  A    between atoms: C_7  and  C_9
REMARK    9  A    between atoms: C_8  and  C_10
REMARK                            x       y       z     vdW  Elec       q    Type
REMARK                         _______ _______ _______ _____ _____    ______ ____
ROOT
ATOM      1  C   UNL     1      -1.381 -13.837 -10.008  0.00  0.00    +0.000 C 
ATOM      2  H   UNL     1      -2.433 -13.554  -9.878  0.00  0.00    +0.000 HD
ATOM      3  H   UNL     1      -1.134 -14.519  -9.184  0.00  0.00    +0.000 HD
ENDROOT
BRANCH   1   4
ATOM      4  C   UNL     1      -0.503 -12.588  -9.911  0.00  0.00    +0.000 C 
ATOM      5  H   UNL     1      -0.915 -11.800 -10.553  0.00  0.00    +0.000 HD
ATOM      6  H   UNL     1       0.502 -12.818 -10.284  0.00  0.00    +0.000 HD
BRANCH   4   7
ATOM      7  C   UNL     1      -0.411 -12.085  -8.468  0.00  0.00    +0.000 C 
ATOM      8  H   UNL     1       0.625 -12.163  -8.117  0.00  0.00    +0.000 HD
ATOM      9  H   UNL     1      -0.688 -11.024  -8.428  0.00  0.00    +0.000 HD
BRANCH   7  10
ATOM     10  C   UNL     1      -1.330 -12.885  -7.540  0.00  0.00    +0.000 C 
ATOM     11  H   UNL     1      -2.356 -12.503  -7.602  0.00  0.00    +0.000 HD
ATOM     12  H   UNL     1      -1.379 -13.930  -7.875  0.00  0.00    +0.000 HD
BRANCH  10  13
ATOM     13  C   UNL     1      -0.863 -12.843  -6.091  0.00  0.00    +0.000 C 
ATOM     14  H   UNL     1      -1.690 -12.603  -5.413  0.00  0.00    +0.000 HD
ATOM     15  H   UNL     1      -0.442 -13.807  -5.790  0.00  0.00    +0.000 HD
BRANCH  13  16
ATOM     16  O   UNL     1       0.146 -11.855  -5.936  0.00  0.00    +0.000 OA
ATOM     17  H   UNL     1      -0.256 -11.095  -5.481  0.00  0.00    +0.000 HD
ENDBRANCH  13  16
ENDBRANCH  10  13
ENDBRANCH   7  10
ENDBRANCH   4   7
ENDBRANCH   1   4
BRANCH   1  18
ATOM     18  C   UNL     1      -1.229 -14.589 -11.334  0.00  0.00    +0.000 C 
ATOM     19  H   UNL     1      -2.046 -14.290 -12.003  0.00  0.00    +0.000 HD
ATOM     20  H   UNL     1      -0.300 -14.259 -11.815  0.00  0.00    +0.000 HD
BRANCH  18  21
ATOM     21  C   UNL     1      -1.210 -16.118 -11.238  0.00  0.00    +0.000 C 
ATOM     22  H   UNL     1      -2.159 -16.461 -10.806  0.00  0.00    +0.000 HD
ATOM     23  H   UNL     1      -0.419 -16.415 -10.538  0.00  0.00    +0.000 HD
BRANCH  21  24
ATOM     24  C   UNL     1      -0.982 -16.809 -12.581  0.00  0.00    +0.000 C 
ATOM     25  H   UNL     1      -1.301 -16.149 -13.397  0.00  0.00    +0.000 HD
ATOM     26  H   UNL     1       0.087 -17.006 -12.721  0.00  0.00    +0.000 HD
BRANCH  24  27
ATOM     27  C   UNL     1      -1.745 -18.123 -12.665  0.00  0.00    +0.000 C 
ATOM     28  H   UNL     1      -2.634 -18.006 -13.292  0.00  0.00    +0.000 HD
ATOM     29  H   UNL     1      -1.123 -18.911 -13.101  0.00  0.00    +0.000 HD
ATOM     30  H   UNL     1      -2.070 -18.452 -11.672  0.00  0.00    +0.000 HD
ENDBRANCH  24  27
ENDBRANCH  21  24
ENDBRANCH  18  21
ENDBRANCH   1  18
TORSDOF 9
ENDMDL
MODEL 9
REMARK VINA RESULT:    -3.820      3.447      4.421
REMARK INTER + INTRA:          -6.124
REMARK INTER:                  -5.858
REMARK INTRA:                  -0.266
REMARK UNBOUND:                -0.517
REMARK  Name = 8914
REMARK  9 active torsions:
REMARK  status: ('A' for Active; 'I' for Inactive)
REMARK    1  A    between atoms: O_1  and  C_9
REMARK    2  A    between atoms: C_2  and  C_3
REMARK    3  A    between atoms: C_2  and  C_4
REMARK    4  A    between atoms: C_3  and  C_5
REMARK    5  A    between atoms: C_4  and  C_6
REMARK    6  A    between atoms: C_5  and  C_7
REMARK    7  A    between atoms: C_6  and  C_8
REMARK    8  A    between atoms: C_7  and  C_9
REMARK    9  A    between atoms: C_8  and  C_10
REMARK                            x       y       z     vdW  Elec       q    Type
REMARK                         _______ _______ _______ _____ _____    ______ ____
ROOT
ATOM      1  C   UNL     1       8.817   0.635  -0.088  0.00  0.00    +0.000 C 
ATOM      2  H   UNL     1       9.845   0.514   0.276  0.00  0.00    +0.000 HD
ATOM      3  H   UNL     1       8.156   0.466   0.771  0.00  0.00    +0.000 HD
ENDROOT
BRANCH   1   4
ATOM      4  C   UNL     1       8.532  -0.418  -1.161  0.00  0.00    +0.000 C 
ATOM      5  H   UNL     1       7.509  -0.795  -1.042  0.00  0.00    +0.000 HD
ATOM      6  H   UNL     1       9.208  -1.271  -1.024  0.00  0.00    +0.000 HD
BRANCH   4   7
ATOM      7  C   UNL     1       8.711   0.159  -2.567  0.00  0.00    +0.000 C 
ATOM      8  H   UNL     1       8.841   1.246  -2.504  0.00  0.00    +0.000 HD
ATOM      9  H   UNL     1       9.621  -0.251  -3.022  0.00  0.00    +0.000 HD
BRANCH   7  10
ATOM     10  C   UNL     1       7.507  -0.162  -3.457  0.00  0.00    +0.000 C 
ATOM     11  H   UNL     1       6.819  -0.839  -2.934  0.00  0.00    +0.000 HD
ATOM     12  H   UNL     1       6.934   0.753  -3.654  0.00  0.00    +0.000 HD
BRANCH  10  13
ATOM     13  C   UNL     1       7.921  -0.792  -4.781  0.00  0.00    +0.000 C 
ATOM     14  H   UNL     1       7.761  -1.875  -4.774  0.00  0.00    +0.000 HD
ATOM     15  H   UNL     1       7.346  -0.366  -5.610  0.00  0.00    +0.000 HD
BRANCH  13  16
ATOM     16  O   UNL     1       9.297  -0.542  -5.027  0.00  0.00    +0.000 OA
ATOM     17  H   UNL     1       9.803  -1.273  -4.632  0.00  0.00    +0.000 HD
ENDBRANCH  13  16
ENDBRANCH  10  13
ENDBRANCH   7  10
ENDBRANCH   4   7
ENDBRANCH   1   4
BRANCH   1  18
ATOM     18  C   UNL     1       8.630   2.074  -0.580  0.00  0.00    +0.000 C 
ATOM     19  H   UNL     1       9.609   2.570  -0.596  0.00  0.00    +0.000 HD
ATOM     20  H   UNL     1       8.284   2.042  -1.620  0.00  0.00    +0.000 HD
BRANCH  18  21
ATOM     21  C   UNL     1       7.658   2.937   0.231  0.00  0.00    +0.000 C 
ATOM     22  H   UNL     1       7.688   2.620   1.281  0.00  0.00    +0.000 HD
ATOM     23  H   UNL     1       6.638   2.746  -0.127  0.00  0.00    +0.000 HD
BRANCH  21  24
ATOM     24  C   UNL     1       7.953   4.433   0.141  0.00  0.00    +0.000 C 
ATOM     25  H   UNL     1       8.886   4.595  -0.411  0.00  0.00    +0.000 HD
ATOM     26  H   UNL     1       7.154   4.937  -0.415  0.00  0.00    +0.000 HD
BRANCH  24  27
ATOM     27  C   UNL     1       8.067   5.060   1.523  0.00  0.00    +0.000 C 
ATOM     28  H   UNL     1       7.220   4.758   2.147  0.00  0.00    +0.000 HD
ATOM     29  H   UNL     1       8.987   4.742   2.023  0.00  0.00    +0.000 HD
ATOM     30  H   UNL     1       8.070   6.153   1.459  0.00  0.00    +0.000 HD
ENDBRANCH  24  27
ENDBRANCH  21  24
ENDBRANCH  18  21
ENDBRANCH   1  18
TORSDOF 9
ENDMDL
MODEL 10
REMARK VINA RESULT:    -3.703     23.135     24.668
REMARK INTER + INTRA:          -5.951
REMARK INTER:                  -5.434
REMARK INTRA:                  -0.517
REMARK UNBOUND:                -0.517
REMARK  Name = 8914
REMARK  9 active torsions:
REMARK  status: ('A' for Active; 'I' for Inactive)
REMARK    1  A    between atoms: O_1  and  C_9
REMARK    2  A    between atoms: C_2  and  C_3
REMARK    3  A    between atoms: C_2  and  C_4
REMARK    4  A    between atoms: C_3  and  C_5
REMARK    5  A    between atoms: C_4  and  C_6
REMARK    6  A    between atoms: C_5  and  C_7
REMARK    7  A    between atoms: C_6  and  C_8
REMARK    8  A    between atoms: C_7  and  C_9
REMARK    9  A    between atoms: C_8  and  C_10
REMARK                            x       y       z     vdW  Elec       q    Type
REMARK                         _______ _______ _______ _____ _____    ______ ____
ROOT
ATOM      1  C   UNL     1       6.434 -10.344 -26.936  0.00  0.00    +0.000 C 
ATOM      2  H   UNL     1       6.119 -11.008 -27.752  0.00  0.00    +0.000 HD
ATOM      3  H   UNL     1       6.854  -9.445 -27.404  0.00  0.00    +0.000 HD
ENDROOT
BRANCH   1   4
ATOM      4  C   UNL     1       7.518 -11.037 -26.108  0.00  0.00    +0.000 C 
ATOM      5  H   UNL     1       7.145 -11.216 -25.092  0.00  0.00    +0.000 HD
ATOM      6  H   UNL     1       8.389 -10.376 -26.022  0.00  0.00    +0.000 HD
BRANCH   4   7
ATOM      7  C   UNL     1       7.940 -12.363 -26.744  0.00  0.00    +0.000 C 
ATOM      8  H   UNL     1       7.365 -12.529 -27.664  0.00  0.00    +0.000 HD
ATOM      9  H   UNL     1       8.999 -12.317 -27.028  0.00  0.00    +0.000 HD
BRANCH   7  10
ATOM     10  C   UNL     1       7.721 -13.535 -25.784  0.00  0.00    +0.000 C 
ATOM     11  H   UNL     1       8.105 -14.464 -26.226  0.00  0.00    +0.000 HD
ATOM     12  H   UNL     1       8.301 -13.379 -24.865  0.00  0.00    +0.000 HD
BRANCH  10  13
ATOM     13  C   UNL     1       6.252 -13.720 -25.426  0.00  0.00    +0.000 C 
ATOM     14  H   UNL     1       5.634 -12.923 -25.854  0.00  0.00    +0.000 HD
ATOM     15  H   UNL     1       5.879 -14.680 -25.798  0.00  0.00    +0.000 HD
BRANCH  13  16
ATOM     16  O   UNL     1       6.092 -13.703 -24.014  0.00  0.00    +0.000 OA
ATOM     17  H   UNL     1       6.902 -13.326 -23.632  0.00  0.00    +0.000 HD
ENDBRANCH  13  16
ENDBRANCH  10  13
ENDBRANCH   7  10
ENDBRANCH   4   7
ENDBRANCH   1   4
BRANCH   1  18
ATOM     18  C   UNL     1       5.201  -9.946 -26.118  0.00  0.00    +0.000 C 
ATOM     19  H   UNL     1       5.006  -8.877 -26.274  0.00  0.00    +0.000 HD
ATOM     20  H   UNL     1       4.331 -10.480 -26.521  0.00  0.00    +0.000 HD
BRANCH  18  21
ATOM     21  C   UNL     1       5.282 -10.213 -24.612  0.00  0.00    +0.000 C 
ATOM     22  H   UNL     1       5.541  -9.279 -24.096  0.00  0.00    +0.000 HD
ATOM     23  H   UNL     1       6.104 -10.916 -24.424  0.00  0.00    +0.000 HD
BRANCH  21  24
ATOM     24  C   UNL     1       3.990 -10.779 -24.024  0.00  0.00    +0.000 C 
ATOM     25  H   UNL     1       3.473 -11.384 -24.778  0.00  0.00    +0.000 HD
ATOM     26  H   UNL     1       4.223 -11.439 -23.181  0.00  0.00    +0.000 HD
BRANCH  24  27
ATOM     27  C   UNL     1       3.066  -9.669 -23.545  0.00  0.00    +0.000 C 
ATOM     28  H   UNL     1       2.242  -9.530 -24.252  0.00  0.00    +0.000 HD
ATOM     29  H   UNL     1       2.637  -9.909 -22.567  0.00  0.00    +0.000 HD
ATOM     30  H   UNL     1       3.605  -8.719 -23.460  0.00  0.00    +0.000 HD
ENDBRANCH  24  27
ENDBRANCH  21  24
ENDBRANCH  18  21
ENDBRANCH   1  18
TORSDOF 9
ENDMDL
