MODEL 1
REMARK VINA RESULT:    -3.841      0.000      0.000
REMARK INTER + INTRA:          -4.750
REMARK INTER:                  -4.740
REMARK INTRA:                  -0.011
REMARK UNBOUND:                -0.011
REMARK  Name = 6276
REMARK  5 active torsions:
REMARK  status: ('A' for Active; 'I' for Inactive)
REMARK    1  A    between atoms: O_1  and  C_5
REMARK    2  A    between atoms: C_2  and  C_3
REMARK    3  A    between atoms: C_2  and  C_4
REMARK    4  A    between atoms: C_3  and  C_5
REMARK    5  A    between atoms: C_4  and  C_6
REMARK                            x       y       z     vdW  Elec       q    Type
REMARK                         _______ _______ _______ _____ _____    ______ ____
ROOT
ATOM      1  C   UNL     1      10.970   7.297  -4.567  0.00  0.00    +0.000 C 
ATOM      2  H   UNL     1      10.538   6.723  -3.739  0.00  0.00    +0.000 HD
ATOM      3  H   UNL     1      11.386   6.573  -5.280  0.00  0.00    +0.000 HD
ENDROOT
BRANCH   1   4
ATOM      4  C   UNL     1      12.089   8.193  -4.042  0.00  0.00    +0.000 C 
ATOM      5  H   UNL     1      12.032   8.274  -2.949  0.00  0.00    +0.000 HD
ATOM      6  H   UNL     1      11.965   9.214  -4.424  0.00  0.00    +0.000 HD
BRANCH   4   7
ATOM      7  C   UNL     1      13.463   7.670  -4.439  0.00  0.00    +0.000 C 
ATOM      8  H   UNL     1      13.392   6.899  -5.213  0.00  0.00    +0.000 HD
ATOM      9  H   UNL     1      13.986   7.248  -3.576  0.00  0.00    +0.000 HD
BRANCH   7  10
ATOM     10  O   UNL     1      14.237   8.748  -4.944  0.00  0.00    +0.000 OA
ATOM     11  H   UNL     1      13.811   9.575  -4.659  0.00  0.00    +0.000 HD
ENDBRANCH   7  10
ENDBRANCH   4   7
ENDBRANCH   1   4
BRANCH   1  12
ATOM     12  C   UNL     1       9.877   8.116  -5.252  0.00  0.00    +0.000 C 
ATOM     13  H   UNL     1       9.410   8.792  -4.527  0.00  0.00    +0.000 HD
ATOM     14  H   UNL     1      10.315   8.738  -6.040  0.00  0.00    +0.000 HD
BRANCH  12  15
ATOM     15  C   UNL     1       8.810   7.221  -5.862  0.00  0.00    +0.000 C 
ATOM     16  H   UNL     1       7.854   7.747  -5.943  0.00  0.00    +0.000 HD
ATOM     17  H   UNL     1       9.104   6.886  -6.862  0.00  0.00    +0.000 HD
ATOM     18  H   UNL     1       8.658   6.334  -5.238  0.00  0.00    +0.000 HD
ENDBRANCH  12  15
ENDBRANCH   1  12
TORSDOF 5
ENDMDL
MODEL 2
REMARK VINA RESULT:    -3.713      9.981     10.622
REMARK INTER + INTRA:          -4.592
REMARK INTER:                  -4.550
REMARK INTRA:                  -0.043
REMARK UNBOUND:                -0.011
REMARK  Name = 6276
REMARK  5 active torsions:
REMARK  status: ('A' for Active; 'I' for Inactive)
REMARK    1  A    between atoms: O_1  and  C_5
REMARK    2  A    between atoms: C_2  and  C_3
REMARK    3  A    between atoms: C_2  and  C_4
REMARK    4  A    between atoms: C_3  and  C_5
REMARK    5  A    between atoms: C_4  and  C_6
REMARK                            x       y       z     vdW  Elec       q    Type
REMARK                         _______ _______ _______ _____ _____    ______ ____
ROOT
ATOM      1  C   UNL     1       6.951  -1.229  -4.245  0.00  0.00    +0.000 C 
ATOM      2  H   UNL     1       7.246  -1.967  -5.000  0.00  0.00    +0.000 HD
ATOM      3  H   UNL     1       7.860  -0.691  -3.945  0.00  0.00    +0.000 HD
ENDROOT
BRANCH   1   4
ATOM      4  C   UNL     1       6.359  -1.944  -3.032  0.00  0.00    +0.000 C 
ATOM      5  H   UNL     1       6.115  -2.983  -3.285  0.00  0.00    +0.000 HD
ATOM      6  H   UNL     1       5.410  -1.475  -2.745  0.00  0.00    +0.000 HD
BRANCH   4   7
ATOM      7  C   UNL     1       7.313  -1.922  -1.846  0.00  0.00    +0.000 C 
ATOM      8  H   UNL     1       6.861  -2.373  -0.956  0.00  0.00    +0.000 HD
ATOM      9  H   UNL     1       7.611  -0.898  -1.601  0.00  0.00    +0.000 HD
BRANCH   7  10
ATOM     10  O   UNL     1       8.481  -2.656  -2.182  0.00  0.00    +0.000 OA
ATOM     11  H   UNL     1       9.250  -2.132  -1.897  0.00  0.00    +0.000 HD
ENDBRANCH   7  10
ENDBRANCH   4   7
ENDBRANCH   1   4
BRANCH   1  12
ATOM     12  C   UNL     1       5.952  -0.244  -4.851  0.00  0.00    +0.000 C 
ATOM     13  H   UNL     1       6.441   0.347  -5.634  0.00  0.00    +0.000 HD
ATOM     14  H   UNL     1       5.128  -0.790  -5.323  0.00  0.00    +0.000 HD
BRANCH  12  15
ATOM     15  C   UNL     1       5.386   0.694  -3.797  0.00  0.00    +0.000 C 
ATOM     16  H   UNL     1       6.103   1.481  -3.544  0.00  0.00    +0.000 HD
ATOM     17  H   UNL     1       4.464   1.170  -4.149  0.00  0.00    +0.000 HD
ATOM     18  H   UNL     1       5.154   0.140  -2.882  0.00  0.00    +0.000 HD
ENDBRANCH  12  15
ENDBRANCH   1  12
TORSDOF 5
ENDMDL
MODEL 3
REMARK VINA RESULT:    -3.556      9.253      9.441
REMARK INTER + INTRA:          -4.398
REMARK INTER:                  -4.307
REMARK INTRA:                  -0.090
REMARK UNBOUND:                -0.011
REMARK  Name = 6276
REMARK  5 active torsions:
REMARK  status: ('A' for Active; 'I' for Inactive)
REMARK    1  A    between atoms: O_1  and  C_5
REMARK    2  A    between atoms: C_2  and  C_3
REMARK    3  A    between atoms: C_2  and  C_4
REMARK    4  A    between atoms: C_3  and  C_5
REMARK    5  A    between atoms: C_4  and  C_6
REMARK                            x       y       z     vdW  Elec       q    Type
REMARK                         _______ _______ _______ _____ _____    ______ ____
ROOT
ATOM      1  C   UNL     1       6.688  -1.134  -4.072  0.00  0.00    +0.000 C 
ATOM      2  H   UNL     1       6.290  -1.902  -3.398  0.00  0.00    +0.000 HD
ATOM      3  H   UNL     1       6.812  -1.601  -5.057  0.00  0.00    +0.000 HD
ENDROOT
BRANCH   1   4
ATOM      4  C   UNL     1       8.044  -0.656  -3.560  0.00  0.00    +0.000 C 
ATOM      5  H   UNL     1       8.260  -1.098  -2.580  0.00  0.00    +0.000 HD
ATOM      6  H   UNL     1       8.025   0.430  -3.400  0.00  0.00    +0.000 HD
BRANCH   4   7
ATOM      7  C   UNL     1       9.165  -1.003  -4.529  0.00  0.00    +0.000 C 
ATOM      8  H   UNL     1       9.232  -2.083  -4.699  0.00  0.00    +0.000 HD
ATOM      9  H   UNL     1      10.132  -0.651  -4.155  0.00  0.00    +0.000 HD
BRANCH   7  10
ATOM     10  O   UNL     1       8.912  -0.365  -5.773  0.00  0.00    +0.000 OA
ATOM     11  H   UNL     1       8.051   0.082  -5.704  0.00  0.00    +0.000 HD
ENDBRANCH   7  10
ENDBRANCH   4   7
ENDBRANCH   1   4
BRANCH   1  12
ATOM     12  C   UNL     1       5.694   0.023  -4.177  0.00  0.00    +0.000 C 
ATOM     13  H   UNL     1       4.792  -0.208  -3.601  0.00  0.00    +0.000 HD
ATOM     14  H   UNL     1       6.131   0.930  -3.746  0.00  0.00    +0.000 HD
BRANCH  12  15
ATOM     15  C   UNL     1       5.309   0.296  -5.623  0.00  0.00    +0.000 C 
ATOM     16  H   UNL     1       5.520  -0.571  -6.256  0.00  0.00    +0.000 HD
ATOM     17  H   UNL     1       4.243   0.531  -5.707  0.00  0.00    +0.000 HD
ATOM     18  H   UNL     1       5.877   1.147  -6.011  0.00  0.00    +0.000 HD
ENDBRANCH  12  15
ENDBRANCH   1  12
TORSDOF 5
ENDMDL
MODEL 4
REMARK VINA RESULT:    -3.263     24.422     25.260
REMARK INTER + INTRA:          -4.036
REMARK INTER:                  -4.024
REMARK INTRA:                  -0.012
REMARK UNBOUND:                -0.011
REMARK  Name = 6276
REMARK  5 active torsions:
REMARK  status: ('A' for Active; 'I' for Inactive)
REMARK    1  A    between atoms: O_1  and  C_5
REMARK    2  A    between atoms: C_2  and  C_3
REMARK    3  A    between atoms: C_2  and  C_4
REMARK    4  A    between atoms: C_3  and  C_5
REMARK    5  A    between atoms: C_4  and  C_6
REMARK                            x       y       z     vdW  Elec       q    Type
REMARK                         _______ _______ _______ _____ _____    ______ ____
ROOT
ATOM      1  C   UNL     1      -0.761 -13.194 -10.341  0.00  0.00    +0.000 C 
ATOM      2  H   UNL     1      -0.611 -14.218  -9.980  0.00  0.00    +0.000 HD
ATOM      3  H   UNL     1      -1.829 -13.082 -10.565  0.00  0.00    +0.000 HD
ENDROOT
BRANCH   1   4
ATOM      4  C   UNL     1       0.052 -12.975 -11.616  0.00  0.00    +0.000 C 
ATOM      5  H   UNL     1       1.125 -12.974 -11.387  0.00  0.00    +0.000 HD
ATOM      6  H   UNL     1      -0.165 -11.985 -12.035  0.00  0.00    +0.000 HD
BRANCH   4   7
ATOM      7  C   UNL     1      -0.242 -14.042 -12.661  0.00  0.00    +0.000 C 
ATOM      8  H   UNL     1       0.030 -15.041 -12.305  0.00  0.00    +0.000 HD
ATOM      9  H   UNL     1       0.304 -13.844 -13.588  0.00  0.00    +0.000 HD
BRANCH   7  10
ATOM     10  O   UNL     1      -1.632 -14.028 -12.952  0.00  0.00    +0.000 OA
ATOM     11  H   UNL     1      -1.737 -13.726 -13.871  0.00  0.00    +0.000 HD
ENDBRANCH   7  10
ENDBRANCH   4   7
ENDBRANCH   1   4
BRANCH   1  12
ATOM     12  C   UNL     1      -0.363 -12.200  -9.251  0.00  0.00    +0.000 C 
ATOM     13  H   UNL     1       0.729 -12.117  -9.204  0.00  0.00    +0.000 HD
ATOM     14  H   UNL     1      -0.754 -11.205  -9.492  0.00  0.00    +0.000 HD
BRANCH  12  15
ATOM     15  C   UNL     1      -0.891 -12.625  -7.890  0.00  0.00    +0.000 C 
ATOM     16  H   UNL     1      -0.273 -12.219  -7.084  0.00  0.00    +0.000 HD
ATOM     17  H   UNL     1      -1.919 -12.277  -7.743  0.00  0.00    +0.000 HD
ATOM     18  H   UNL     1      -0.887 -13.717  -7.806  0.00  0.00    +0.000 HD
ENDBRANCH  12  15
ENDBRANCH   1  12
TORSDOF 5
ENDMDL
MODEL 5
REMARK VINA RESULT:    -3.254     32.946     33.351
REMARK INTER + INTRA:          -4.026
REMARK INTER:                  -3.977
REMARK INTRA:                  -0.049
REMARK UNBOUND:                -0.011
REMARK  Name = 6276
REMARK  5 active torsions:
REMARK  status: ('A' for Active; 'I' for Inactive)
REMARK    1  A    between atoms: O_1  and  C_5
REMARK    2  A    between atoms: C_2  and  C_3
REMARK    3  A    between atoms: C_2  and  C_4
REMARK    4  A    between atoms: C_3  and  C_5
REMARK    5  A    between atoms: C_4  and  C_6
REMARK                            x       y       z     vdW  Elec       q    Type
REMARK                         _______ _______ _______ _____ _____    ______ ____
ROOT
ATOM      1  C   UNL     1      -1.293  -8.283  20.942  0.00  0.00    +0.000 C 
ATOM      2  H   UNL     1      -0.226  -8.199  20.708  0.00  0.00    +0.000 HD
ATOM      3  H   UNL     1      -1.386  -8.280  22.036  0.00  0.00    +0.000 HD
ENDROOT
BRANCH   1   4
ATOM      4  C   UNL     1      -1.838  -9.598  20.388  0.00  0.00    +0.000 C 
ATOM      5  H   UNL     1      -2.155 -10.254  21.208  0.00  0.00    +0.000 HD
ATOM      6  H   UNL     1      -1.045 -10.141  19.860  0.00  0.00    +0.000 HD
BRANCH   4   7
ATOM      7  C   UNL     1      -3.009  -9.367  19.443  0.00  0.00    +0.000 C 
ATOM      8  H   UNL     1      -2.680  -9.311  18.400  0.00  0.00    +0.000 HD
ATOM      9  H   UNL     1      -3.536  -8.441  19.690  0.00  0.00    +0.000 HD
BRANCH   7  10
ATOM     10  O   UNL     1      -3.923 -10.446  19.572  0.00  0.00    +0.000 OA
ATOM     11  H   UNL     1      -4.528 -10.234  20.303  0.00  0.00    +0.000 HD
ENDBRANCH   7  10
ENDBRANCH   4   7
ENDBRANCH   1   4
BRANCH   1  12
ATOM     12  C   UNL     1      -2.043  -7.083  20.365  0.00  0.00    +0.000 C 
ATOM     13  H   UNL     1      -1.344  -6.428  19.834  0.00  0.00    +0.000 HD
ATOM     14  H   UNL     1      -2.786  -7.424  19.635  0.00  0.00    +0.000 HD
BRANCH  12  15
ATOM     15  C   UNL     1      -2.746  -6.289  21.454  0.00  0.00    +0.000 C 
ATOM     16  H   UNL     1      -3.186  -5.372  21.051  0.00  0.00    +0.000 HD
ATOM     17  H   UNL     1      -3.545  -6.878  21.916  0.00  0.00    +0.000 HD
ATOM     18  H   UNL     1      -2.035  -6.009  22.238  0.00  0.00    +0.000 HD
ENDBRANCH  12  15
ENDBRANCH   1  12
TORSDOF 5
ENDMDL
MODEL 6
REMARK VINA RESULT:    -3.197     26.915     27.599
REMARK INTER + INTRA:          -3.955
REMARK INTER:                  -3.915
REMARK INTRA:                  -0.040
REMARK UNBOUND:                -0.011
REMARK  Name = 6276
REMARK  5 active torsions:
REMARK  status: ('A' for Active; 'I' for Inactive)
REMARK    1  A    between atoms: O_1  and  C_5
REMARK    2  A    between atoms: C_2  and  C_3
REMARK    3  A    between atoms: C_2  and  C_4
REMARK    4  A    between atoms: C_3  and  C_5
REMARK    5  A    between atoms: C_4  and  C_6
REMARK                            x       y       z     vdW  Elec       q    Type
REMARK                         _______ _______ _______ _____ _____    ______ ____
ROOT
ATOM      1  C   UNL     1       4.983  -9.973 -25.301  0.00  0.00    +0.000 C 
ATOM      2  H   UNL     1       4.679  -8.968 -25.617  0.00  0.00    +0.000 HD
ATOM      3  H   UNL     1       4.865 -10.635 -26.169  0.00  0.00    +0.000 HD
ENDROOT
BRANCH   1   4
ATOM      4  C   UNL     1       4.078 -10.451 -24.168  0.00  0.00    +0.000 C 
ATOM      5  H   UNL     1       4.680 -10.805 -23.323  0.00  0.00    +0.000 HD
ATOM      6  H   UNL     1       3.487 -11.315 -24.498  0.00  0.00    +0.000 HD
BRANCH   4   7
ATOM      7  C   UNL     1       3.140  -9.349 -23.695  0.00  0.00    +0.000 C 
ATOM      8  H   UNL     1       3.301  -9.109 -22.639  0.00  0.00    +0.000 HD
ATOM      9  H   UNL     1       2.093  -9.641 -23.828  0.00  0.00    +0.000 HD
BRANCH   7  10
ATOM     10  O   UNL     1       3.377  -8.181 -24.466  0.00  0.00    +0.000 OA
ATOM     11  H   UNL     1       2.791  -8.216 -25.242  0.00  0.00    +0.000 HD
ENDBRANCH   7  10
ENDBRANCH   4   7
ENDBRANCH   1   4
BRANCH   1  12
ATOM     12  C   UNL     1       6.449  -9.955 -24.870  0.00  0.00    +0.000 C 
ATOM     13  H   UNL     1       6.695  -8.982 -24.430  0.00  0.00    +0.000 HD
ATOM     14  H   UNL     1       6.621 -10.713 -24.098  0.00  0.00    +0.000 HD
BRANCH  12  15
ATOM     15  C   UNL     1       7.378 -10.223 -26.044  0.00  0.00    +0.000 C 
ATOM     16  H   UNL     1       8.271  -9.592 -25.991  0.00  0.00    +0.000 HD
ATOM     17  H   UNL     1       7.697 -11.270 -26.060  0.00  0.00    +0.000 HD
ATOM     18  H   UNL     1       6.866 -10.010 -26.988  0.00  0.00    +0.000 HD
ENDBRANCH  12  15
ENDBRANCH   1  12
TORSDOF 5
ENDMDL
MODEL 7
REMARK VINA RESULT:    -3.183      2.202      2.284
REMARK INTER + INTRA:          -3.939
REMARK INTER:                  -3.891
REMARK INTRA:                  -0.048
REMARK UNBOUND:                -0.011
REMARK  Name = 6276
REMARK  5 active torsions:
REMARK  status: ('A' for Active; 'I' for Inactive)
REMARK    1  A    between atoms: O_1  and  C_5
REMARK    2  A    between atoms: C_2  and  C_3
REMARK    3  A    between atoms: C_2  and  C_4
REMARK    4  A    between atoms: C_3  and  C_5
REMARK    5  A    between atoms: C_4  and  C_6
REMARK                            x       y       z     vdW  Elec       q    Type
REMARK                         _______ _______ _______ _____ _____    ______ ____
ROOT
ATOM      1  C   UNL     1      10.723   8.310  -4.246  0.00  0.00    +0.000 C 
ATOM      2  H   UNL     1      11.710   8.554  -4.655  0.00  0.00    +0.000 HD
ATOM      3  H   UNL     1      10.562   8.960  -3.377  0.00  0.00    +0.000 HD
ENDROOT
BRANCH   1   4
ATOM      4  C   UNL     1      10.699   6.849  -3.801  0.00  0.00    +0.000 C 
ATOM      5  H   UNL     1       9.982   6.279  -4.404  0.00  0.00    +0.000 HD
ATOM      6  H   UNL     1      10.343   6.776  -2.766  0.00  0.00    +0.000 HD
BRANCH   4   7
ATOM      7  C   UNL     1      12.075   6.206  -3.909  0.00  0.00    +0.000 C 
ATOM      8  H   UNL     1      12.670   6.373  -3.004  0.00  0.00    +0.000 HD
ATOM      9  H   UNL     1      12.628   6.604  -4.765  0.00  0.00    +0.000 HD
BRANCH   7  10
ATOM     10  O   UNL     1      11.915   4.807  -4.094  0.00  0.00    +0.000 OA
ATOM     11  H   UNL     1      12.060   4.378  -3.234  0.00  0.00    +0.000 HD
ENDBRANCH   7  10
ENDBRANCH   4   7
ENDBRANCH   1   4
BRANCH   1  12
ATOM     12  C   UNL     1       9.647   8.588  -5.296  0.00  0.00    +0.000 C 
ATOM     13  H   UNL     1       8.898   9.276  -4.887  0.00  0.00    +0.000 HD
ATOM     14  H   UNL     1      10.095   9.078  -6.168  0.00  0.00    +0.000 HD
BRANCH  12  15
ATOM     15  C   UNL     1       8.961   7.308  -5.743  0.00  0.00    +0.000 C 
ATOM     16  H   UNL     1       8.045   7.132  -5.170  0.00  0.00    +0.000 HD
ATOM     17  H   UNL     1       8.698   7.354  -6.805  0.00  0.00    +0.000 HD
ATOM     18  H   UNL     1       9.625   6.450  -5.595  0.00  0.00    +0.000 HD
ENDBRANCH  12  15
ENDBRANCH   1  12
TORSDOF 5
ENDMDL
MODEL 8
REMARK VINA RESULT:    -3.138      7.051      7.514
REMARK INTER + INTRA:          -3.882
REMARK INTER:                  -3.876
REMARK INTRA:                  -0.006
REMARK UNBOUND:                -0.011
REMARK  Name = 6276
REMARK  5 active torsions:
REMARK  status: ('A' for Active; 'I' for Inactive)
REMARK    1  A    between atoms: O_1  and  C_5
REMARK    2  A    between atoms: C_2  and  C_3
REMARK    3  A    between atoms: C_2  and  C_4
REMARK    4  A    between atoms: C_3  and  C_5
REMARK    5  A    between atoms: C_4  and  C_6
REMARK                            x       y       z     vdW  Elec       q    Type
REMARK                         _______ _______ _______ _____ _____    ______ ____
ROOT
ATOM      1  C   UNL     1       6.951   4.082   0.180  0.00  0.00    +0.000 C 
ATOM      2  H   UNL     1       6.768   4.631  -0.752  0.00  0.00    +0.000 HD
ATOM      3  H   UNL     1       6.044   4.172   0.791  0.00  0.00    +0.000 HD
ENDROOT
BRANCH   1   4
ATOM      4  C   UNL     1       8.130   4.709   0.921  0.00  0.00    +0.000 C 
ATOM      5  H   UNL     1       8.889   3.949   1.142  0.00  0.00    +0.000 HD
ATOM      6  H   UNL     1       7.800   5.094   1.895  0.00  0.00    +0.000 HD
BRANCH   4   7
ATOM      7  C   UNL     1       8.762   5.838   0.120  0.00  0.00    +0.000 C 
ATOM      8  H   UNL     1       8.147   6.114  -0.743  0.00  0.00    +0.000 HD
ATOM      9  H   UNL     1       9.756   5.555  -0.240  0.00  0.00    +0.000 HD
BRANCH   7  10
ATOM     10  O   UNL     1       8.901   6.976   0.959  0.00  0.00    +0.000 OA
ATOM     11  H   UNL     1       8.143   6.987   1.567  0.00  0.00    +0.000 HD
ENDBRANCH   7  10
ENDBRANCH   4   7
ENDBRANCH   1   4
BRANCH   1  12
ATOM     12  C   UNL     1       7.211   2.609  -0.133  0.00  0.00    +0.000 C 
ATOM     13  H   UNL     1       6.552   1.978   0.474  0.00  0.00    +0.000 HD
ATOM     14  H   UNL     1       6.979   2.404  -1.184  0.00  0.00    +0.000 HD
BRANCH  12  15
ATOM     15  C   UNL     1       8.658   2.229   0.139  0.00  0.00    +0.000 C 
ATOM     16  H   UNL     1       9.124   1.795  -0.751  0.00  0.00    +0.000 HD
ATOM     17  H   UNL     1       9.243   3.104   0.441  0.00  0.00    +0.000 HD
ATOM     18  H   UNL     1       8.711   1.491   0.946  0.00  0.00    +0.000 HD
ENDBRANCH  12  15
ENDBRANCH   1  12
TORSDOF 5
ENDMDL
MODEL 9
REMARK VINA RESULT:    -3.116     31.170     31.498
REMARK INTER + INTRA:          -3.855
REMARK INTER:                  -3.845
REMARK INTRA:                  -0.011
REMARK UNBOUND:                -0.011
REMARK  Name = 6276
REMARK  5 active torsions:
REMARK  status: ('A' for Active; 'I' for Inactive)
REMARK    1  A    between atoms: O_1  and  C_5
REMARK    2  A    between atoms: C_2  and  C_3
REMARK    3  A    between atoms: C_2  and  C_4
REMARK    4  A    between atoms: C_3  and  C_5
REMARK    5  A    between atoms: C_4  and  C_6
REMARK                            x       y       z     vdW  Elec       q    Type
REMARK                         _______ _______ _______ _____ _____    ______ ____
ROOT
ATOM      1  C   UNL     1      -0.311  -7.161  21.056  0.00  0.00    +0.000 C 
ATOM      2  H   UNL     1      -0.300  -6.797  22.090  0.00  0.00    +0.000 HD
ATOM      3  H   UNL     1      -0.176  -8.250  21.095  0.00  0.00    +0.000 HD
ENDROOT
BRANCH   1   4
ATOM      4  C   UNL     1       0.843  -6.532  20.278  0.00  0.00    +0.000 C 
ATOM      5  H   UNL     1       0.473  -5.721  19.638  0.00  0.00    +0.000 HD
ATOM      6  H   UNL     1       1.285  -7.271  19.598  0.00  0.00    +0.000 HD
BRANCH   4   7
ATOM      7  C   UNL     1       1.920  -5.992  21.208  0.00  0.00    +0.000 C 
ATOM      8  H   UNL     1       2.671  -6.755  21.441  0.00  0.00    +0.000 HD
ATOM      9  H   UNL     1       1.486  -5.635  22.147  0.00  0.00    +0.000 HD
BRANCH   7  10
ATOM     10  O   UNL     1       2.568  -4.898  20.574  0.00  0.00    +0.000 OA
ATOM     11  H   UNL     1       2.890  -5.207  19.711  0.00  0.00    +0.000 HD
ENDBRANCH   7  10
ENDBRANCH   4   7
ENDBRANCH   1   4
BRANCH   1  12
ATOM     12  C   UNL     1      -1.658  -6.837  20.411  0.00  0.00    +0.000 C 
ATOM     13  H   UNL     1      -1.521  -6.100  19.612  0.00  0.00    +0.000 HD
ATOM     14  H   UNL     1      -2.078  -7.739  19.951  0.00  0.00    +0.000 HD
BRANCH  12  15
ATOM     15  C   UNL     1      -2.647  -6.294  21.430  0.00  0.00    +0.000 C 
ATOM     16  H   UNL     1      -2.707  -6.947  22.307  0.00  0.00    +0.000 HD
ATOM     17  H   UNL     1      -2.355  -5.294  21.766  0.00  0.00    +0.000 HD
ATOM     18  H   UNL     1      -3.647  -6.226  20.989  0.00  0.00    +0.000 HD
ENDBRANCH  12  15
ENDBRANCH   1  12
TORSDOF 5
ENDMDL
MODEL 10
REMARK VINA RESULT:    -3.103      9.528     10.471
REMARK INTER + INTRA:          -3.839
REMARK INTER:                  -3.795
REMARK INTRA:                  -0.044
REMARK UNBOUND:                -0.011
REMARK  Name = 6276
REMARK  5 active torsions:
REMARK  status: ('A' for Active; 'I' for Inactive)
REMARK    1  A    between atoms: O_1  and  C_5
REMARK    2  A    between atoms: C_2  and  C_3
REMARK    3  A    between atoms: C_2  and  C_4
REMARK    4  A    between atoms: C_3  and  C_5
REMARK    5  A    between atoms: C_4  and  C_6
REMARK                            x       y       z     vdW  Elec       q    Type
REMARK                         _______ _______ _______ _____ _____    ______ ____
ROOT
ATOM      1  C   UNL     1       6.277   0.835  -3.154  0.00  0.00    +0.000 C 
ATOM      2  H   UNL     1       5.703   1.548  -3.755  0.00  0.00    +0.000 HD
ATOM      3  H   UNL     1       7.218   0.646  -3.686  0.00  0.00    +0.000 HD
ENDROOT
BRANCH   1   4
ATOM      4  C   UNL     1       5.497  -0.471  -3.021  0.00  0.00    +0.000 C 
ATOM      5  H   UNL     1       4.638  -0.472  -3.703  0.00  0.00    +0.000 HD
ATOM      6  H   UNL     1       5.076  -0.558  -2.011  0.00  0.00    +0.000 HD
BRANCH   4   7
ATOM      7  C   UNL     1       6.373  -1.682  -3.308  0.00  0.00    +0.000 C 
ATOM      8  H   UNL     1       7.423  -1.487  -3.065  0.00  0.00    +0.000 HD
ATOM      9  H   UNL     1       6.310  -1.971  -4.362  0.00  0.00    +0.000 HD
BRANCH   7  10
ATOM     10  O   UNL     1       5.921  -2.774  -2.521  0.00  0.00    +0.000 OA
ATOM     11  H   UNL     1       6.377  -2.727  -1.663  0.00  0.00    +0.000 HD
ENDBRANCH   7  10
ENDBRANCH   4   7
ENDBRANCH   1   4
BRANCH   1  12
ATOM     12  C   UNL     1       6.580   1.443  -1.785  0.00  0.00    +0.000 C 
ATOM     13  H   UNL     1       6.451   2.530  -1.824  0.00  0.00    +0.000 HD
ATOM     14  H   UNL     1       5.872   1.059  -1.041  0.00  0.00    +0.000 HD
BRANCH  12  15
ATOM     15  C   UNL     1       7.996   1.122  -1.333  0.00  0.00    +0.000 C 
ATOM     16  H   UNL     1       8.009   0.251  -0.670  0.00  0.00    +0.000 HD
ATOM     17  H   UNL     1       8.642   0.909  -2.191  0.00  0.00    +0.000 HD
ATOM     18  H   UNL     1       8.422   1.971  -0.790  0.00  0.00    +0.000 HD
ENDBRANCH  12  15
ENDBRANCH   1  12
TORSDOF 5
ENDMDL
