MODEL 1
REMARK VINA RESULT:    -4.239      0.000      0.000
REMARK INTER + INTRA:          -6.499
REMARK INTER:                  -6.091
REMARK INTRA:                  -0.408
REMARK UNBOUND:                -0.279
REMARK  Name = 12741
REMARK  9 active torsions:
REMARK  status: ('A' for Active; 'I' for Inactive)
REMARK    1  A    between atoms: C_2  and  C_3
REMARK    2  A    between atoms: C_2  and  C_4
REMARK    3  A    between atoms: C_3  and  C_5
REMARK    4  A    between atoms: C_4  and  C_6
REMARK    5  A    between atoms: C_5  and  C_7
REMARK    6  A    between atoms: C_6  and  C_8
REMARK    7  A    between atoms: C_7  and  C_9
REMARK    8  A    between atoms: C_8  and  C_10
REMARK    9  A    between atoms: C_10  and  C_11
REMARK                            x       y       z     vdW  Elec       q    Type
REMARK                         _______ _______ _______ _____ _____    ______ ____
ROOT
ATOM      1  C   UNL     1      -1.227 -12.207  -8.979  0.00  0.00    +0.000 C 
ATOM      2  H   UNL     1      -2.189 -12.728  -8.907  0.00  0.00    +0.000 HD
ATOM      3  H   UNL     1      -1.446 -11.147  -9.161  0.00  0.00    +0.000 HD
ENDROOT
BRANCH   1   4
ATOM      4  C   UNL     1      -0.421 -12.772 -10.149  0.00  0.00    +0.000 C 
ATOM      5  H   UNL     1       0.510 -13.213  -9.776  0.00  0.00    +0.000 HD
ATOM      6  H   UNL     1      -0.144 -11.958 -10.830  0.00  0.00    +0.000 HD
BRANCH   4   7
ATOM      7  C   UNL     1      -1.221 -13.827 -10.916  0.00  0.00    +0.000 C 
ATOM      8  H   UNL     1      -1.142 -14.793 -10.403  0.00  0.00    +0.000 HD
ATOM      9  H   UNL     1      -2.281 -13.551 -10.923  0.00  0.00    +0.000 HD
BRANCH   7  10
ATOM     10  C   UNL     1      -0.720 -13.966 -12.354  0.00  0.00    +0.000 C 
ATOM     11  H   UNL     1      -0.342 -14.982 -12.520  0.00  0.00    +0.000 HD
ATOM     12  H   UNL     1      -1.549 -13.810 -13.054  0.00  0.00    +0.000 HD
BRANCH  10  13
ATOM     13  C   UNL     1       0.387 -12.970 -12.657  0.00  0.00    +0.000 C 
ATOM     14  H   UNL     1       0.426 -12.184 -11.895  0.00  0.00    +0.000 HD
ATOM     15  H   UNL     1       0.215 -12.495 -13.627  0.00  0.00    +0.000 HD
ATOM     16  H   UNL     1       1.364 -13.465 -12.689  0.00  0.00    +0.000 HD
ENDBRANCH  10  13
ENDBRANCH   7  10
ENDBRANCH   4   7
ENDBRANCH   1   4
BRANCH   1  17
ATOM     17  C   UNL     1      -0.466 -12.349  -7.659  0.00  0.00    +0.000 C 
ATOM     18  H   UNL     1      -0.271 -11.356  -7.236  0.00  0.00    +0.000 HD
ATOM     19  H   UNL     1       0.508 -12.817  -7.847  0.00  0.00    +0.000 HD
BRANCH  17  20
ATOM     20  C   UNL     1      -1.253 -13.187  -6.650  0.00  0.00    +0.000 C 
ATOM     21  H   UNL     1      -0.652 -13.340  -5.746  0.00  0.00    +0.000 HD
ATOM     22  H   UNL     1      -2.153 -12.640  -6.341  0.00  0.00    +0.000 HD
BRANCH  20  23
ATOM     23  C   UNL     1      -1.651 -14.537  -7.239  0.00  0.00    +0.000 C 
ATOM     24  H   UNL     1      -0.915 -15.299  -6.959  0.00  0.00    +0.000 HD
ATOM     25  H   UNL     1      -1.687 -14.471  -8.332  0.00  0.00    +0.000 HD
BRANCH  23  27
ATOM     26  O   UNL     1      -3.743 -15.735  -7.425  0.00  0.00    +0.000 OA
ATOM     27  C   UNL     1      -3.014 -15.004  -6.758  0.00  0.00    +0.000 C 
BRANCH  27  28
ATOM     28  C   UNL     1      -3.439 -14.518  -5.396  0.00  0.00    +0.000 C 
ATOM     29  H   UNL     1      -2.795 -13.692  -5.085  0.00  0.00    +0.000 HD
ATOM     30  H   UNL     1      -4.481 -14.191  -5.433  0.00  0.00    +0.000 HD
ATOM     31  H   UNL     1      -3.348 -15.330  -4.669  0.00  0.00    +0.000 HD
ENDBRANCH  27  28
ENDBRANCH  23  27
ENDBRANCH  20  23
ENDBRANCH  17  20
ENDBRANCH   1  17
TORSDOF 9
ENDMDL
MODEL 2
REMARK VINA RESULT:    -4.081      3.484      5.606
REMARK INTER + INTRA:          -6.268
REMARK INTER:                  -5.898
REMARK INTRA:                  -0.371
REMARK UNBOUND:                -0.279
REMARK  Name = 12741
REMARK  9 active torsions:
REMARK  status: ('A' for Active; 'I' for Inactive)
REMARK    1  A    between atoms: C_2  and  C_3
REMARK    2  A    between atoms: C_2  and  C_4
REMARK    3  A    between atoms: C_3  and  C_5
REMARK    4  A    between atoms: C_4  and  C_6
REMARK    5  A    between atoms: C_5  and  C_7
REMARK    6  A    between atoms: C_6  and  C_8
REMARK    7  A    between atoms: C_7  and  C_9
REMARK    8  A    between atoms: C_8  and  C_10
REMARK    9  A    between atoms: C_10  and  C_11
REMARK                            x       y       z     vdW  Elec       q    Type
REMARK                         _______ _______ _______ _____ _____    ______ ____
ROOT
ATOM      1  C   UNL     1      -1.559 -15.367 -10.022  0.00  0.00    +0.000 C 
ATOM      2  H   UNL     1      -2.560 -15.813 -10.042  0.00  0.00    +0.000 HD
ATOM      3  H   UNL     1      -0.859 -16.156  -9.718  0.00  0.00    +0.000 HD
ENDROOT
BRANCH   1   4
ATOM      4  C   UNL     1      -1.523 -14.230  -9.000  0.00  0.00    +0.000 C 
ATOM      5  H   UNL     1      -0.993 -14.561  -8.099  0.00  0.00    +0.000 HD
ATOM      6  H   UNL     1      -2.546 -13.977  -8.698  0.00  0.00    +0.000 HD
BRANCH   4   7
ATOM      7  C   UNL     1      -0.839 -12.988  -9.573  0.00  0.00    +0.000 C 
ATOM      8  H   UNL     1       0.047 -13.287 -10.146  0.00  0.00    +0.000 HD
ATOM      9  H   UNL     1      -1.518 -12.484 -10.270  0.00  0.00    +0.000 HD
BRANCH   7  10
ATOM     10  C   UNL     1      -0.430 -12.017  -8.465  0.00  0.00    +0.000 C 
ATOM     11  H   UNL     1       0.645 -11.815  -8.525  0.00  0.00    +0.000 HD
ATOM     12  H   UNL     1      -0.949 -11.061  -8.598  0.00  0.00    +0.000 HD
BRANCH  10  13
ATOM     13  C   UNL     1      -0.753 -12.576  -7.089  0.00  0.00    +0.000 C 
ATOM     14  H   UNL     1      -1.588 -12.034  -6.633  0.00  0.00    +0.000 HD
ATOM     15  H   UNL     1       0.114 -12.482  -6.429  0.00  0.00    +0.000 HD
ATOM     16  H   UNL     1      -1.023 -13.635  -7.148  0.00  0.00    +0.000 HD
ENDBRANCH  10  13
ENDBRANCH   7  10
ENDBRANCH   4   7
ENDBRANCH   1   4
BRANCH   1  17
ATOM     17  C   UNL     1      -1.189 -14.869 -11.421  0.00  0.00    +0.000 C 
ATOM     18  H   UNL     1      -0.353 -14.163 -11.352  0.00  0.00    +0.000 HD
ATOM     19  H   UNL     1      -2.038 -14.322 -11.850  0.00  0.00    +0.000 HD
BRANCH  17  20
ATOM     20  C   UNL     1      -0.803 -16.028 -12.341  0.00  0.00    +0.000 C 
ATOM     21  H   UNL     1      -1.114 -15.804 -13.369  0.00  0.00    +0.000 HD
ATOM     22  H   UNL     1       0.289 -16.136 -12.358  0.00  0.00    +0.000 HD
BRANCH  20  23
ATOM     23  C   UNL     1      -1.441 -17.336 -11.883  0.00  0.00    +0.000 C 
ATOM     24  H   UNL     1      -2.306 -17.127 -11.242  0.00  0.00    +0.000 HD
ATOM     25  H   UNL     1      -0.716 -17.924 -11.309  0.00  0.00    +0.000 HD
BRANCH  23  27
ATOM     26  O   UNL     1      -1.945 -17.785 -14.204  0.00  0.00    +0.000 OA
ATOM     27  C   UNL     1      -1.915 -18.192 -13.045  0.00  0.00    +0.000 C 
BRANCH  27  28
ATOM     28  C   UNL     1      -2.357 -19.591 -12.702  0.00  0.00    +0.000 C 
ATOM     29  H   UNL     1      -1.920 -19.889 -11.746  0.00  0.00    +0.000 HD
ATOM     30  H   UNL     1      -3.447 -19.627 -12.646  0.00  0.00    +0.000 HD
ATOM     31  H   UNL     1      -2.019 -20.285 -13.476  0.00  0.00    +0.000 HD
ENDBRANCH  27  28
ENDBRANCH  23  27
ENDBRANCH  20  23
ENDBRANCH  17  20
ENDBRANCH   1  17
TORSDOF 9
ENDMDL
MODEL 3
REMARK VINA RESULT:    -4.019     27.050     28.581
REMARK INTER + INTRA:          -6.177
REMARK INTER:                  -5.665
REMARK INTRA:                  -0.512
REMARK UNBOUND:                -0.279
REMARK  Name = 12741
REMARK  9 active torsions:
REMARK  status: ('A' for Active; 'I' for Inactive)
REMARK    1  A    between atoms: C_2  and  C_3
REMARK    2  A    between atoms: C_2  and  C_4
REMARK    3  A    between atoms: C_3  and  C_5
REMARK    4  A    between atoms: C_4  and  C_6
REMARK    5  A    between atoms: C_5  and  C_7
REMARK    6  A    between atoms: C_6  and  C_8
REMARK    7  A    between atoms: C_7  and  C_9
REMARK    8  A    between atoms: C_8  and  C_10
REMARK    9  A    between atoms: C_10  and  C_11
REMARK                            x       y       z     vdW  Elec       q    Type
REMARK                         _______ _______ _______ _____ _____    ______ ____
ROOT
ATOM      1  C   UNL     1       3.612  12.397 -10.679  0.00  0.00    +0.000 C 
ATOM      2  H   UNL     1       3.889  11.580 -10.002  0.00  0.00    +0.000 HD
ATOM      3  H   UNL     1       4.478  13.066 -10.750  0.00  0.00    +0.000 HD
ENDROOT
BRANCH   1   4
ATOM      4  C   UNL     1       2.420  13.161 -10.102  0.00  0.00    +0.000 C 
ATOM      5  H   UNL     1       1.731  12.459  -9.619  0.00  0.00    +0.000 HD
ATOM      6  H   UNL     1       1.869  13.648 -10.915  0.00  0.00    +0.000 HD
BRANCH   4   7
ATOM      7  C   UNL     1       2.873  14.216  -9.090  0.00  0.00    +0.000 C 
ATOM      8  H   UNL     1       2.351  15.161  -9.286  0.00  0.00    +0.000 HD
ATOM      9  H   UNL     1       2.596  13.897  -8.079  0.00  0.00    +0.000 HD
BRANCH   7  10
ATOM     10  C   UNL     1       4.383  14.440  -9.160  0.00  0.00    +0.000 C 
ATOM     11  H   UNL     1       4.880  13.526  -9.508  0.00  0.00    +0.000 HD
ATOM     12  H   UNL     1       4.610  15.229  -9.885  0.00  0.00    +0.000 HD
BRANCH  10  13
ATOM     13  C   UNL     1       4.952  14.826  -7.804  0.00  0.00    +0.000 C 
ATOM     14  H   UNL     1       4.239  15.437  -7.240  0.00  0.00    +0.000 HD
ATOM     15  H   UNL     1       5.871  15.406  -7.930  0.00  0.00    +0.000 HD
ATOM     16  H   UNL     1       5.188  13.938  -7.209  0.00  0.00    +0.000 HD
ENDBRANCH  10  13
ENDBRANCH   7  10
ENDBRANCH   4   7
ENDBRANCH   1   4
BRANCH   1  17
ATOM     17  C   UNL     1       3.292  11.830 -12.064  0.00  0.00    +0.000 C 
ATOM     18  H   UNL     1       2.351  12.258 -12.429  0.00  0.00    +0.000 HD
ATOM     19  H   UNL     1       3.146  10.745 -11.990  0.00  0.00    +0.000 HD
BRANCH  17  20
ATOM     20  C   UNL     1       4.410  12.133 -13.062  0.00  0.00    +0.000 C 
ATOM     21  H   UNL     1       5.163  11.335 -13.029  0.00  0.00    +0.000 HD
ATOM     22  H   UNL     1       4.002  12.139 -14.081  0.00  0.00    +0.000 HD
BRANCH  20  23
ATOM     23  C   UNL     1       5.070  13.476 -12.766  0.00  0.00    +0.000 C 
ATOM     24  H   UNL     1       5.753  13.378 -11.914  0.00  0.00    +0.000 HD
ATOM     25  H   UNL     1       4.306  14.220 -12.516  0.00  0.00    +0.000 HD
BRANCH  23  27
ATOM     26  O   UNL     1       6.095  15.203 -14.112  0.00  0.00    +0.000 OA
ATOM     27  C   UNL     1       5.867  14.007 -13.945  0.00  0.00    +0.000 C 
BRANCH  27  28
ATOM     28  C   UNL     1       6.375  12.976 -14.920  0.00  0.00    +0.000 C 
ATOM     29  H   UNL     1       6.254  11.978 -14.493  0.00  0.00    +0.000 HD
ATOM     30  H   UNL     1       5.820  13.055 -15.858  0.00  0.00    +0.000 HD
ATOM     31  H   UNL     1       7.436  13.149 -15.121  0.00  0.00    +0.000 HD
ENDBRANCH  27  28
ENDBRANCH  23  27
ENDBRANCH  20  23
ENDBRANCH  17  20
ENDBRANCH   1  17
TORSDOF 9
ENDMDL
MODEL 4
REMARK VINA RESULT:    -4.018     18.429     21.957
REMARK INTER + INTRA:          -6.176
REMARK INTER:                  -5.858
REMARK INTRA:                  -0.319
REMARK UNBOUND:                -0.279
REMARK  Name = 12741
REMARK  9 active torsions:
REMARK  status: ('A' for Active; 'I' for Inactive)
REMARK    1  A    between atoms: C_2  and  C_3
REMARK    2  A    between atoms: C_2  and  C_4
REMARK    3  A    between atoms: C_3  and  C_5
REMARK    4  A    between atoms: C_4  and  C_6
REMARK    5  A    between atoms: C_5  and  C_7
REMARK    6  A    between atoms: C_6  and  C_8
REMARK    7  A    between atoms: C_7  and  C_9
REMARK    8  A    between atoms: C_8  and  C_10
REMARK    9  A    between atoms: C_10  and  C_11
REMARK                            x       y       z     vdW  Elec       q    Type
REMARK                         _______ _______ _______ _____ _____    ______ ____
ROOT
ATOM      1  C   UNL     1     -18.880 -12.498   4.076  0.00  0.00    +0.000 C 
ATOM      2  H   UNL     1     -19.872 -12.905   3.847  0.00  0.00    +0.000 HD
ATOM      3  H   UNL     1     -18.152 -13.298   3.892  0.00  0.00    +0.000 HD
ENDROOT
BRANCH   1   4
ATOM      4  C   UNL     1     -18.822 -12.081   5.546  0.00  0.00    +0.000 C 
ATOM      5  H   UNL     1     -18.829 -10.987   5.619  0.00  0.00    +0.000 HD
ATOM      6  H   UNL     1     -17.881 -12.429   5.989  0.00  0.00    +0.000 HD
BRANCH   4   7
ATOM      7  C   UNL     1     -20.000 -12.657   6.335  0.00  0.00    +0.000 C 
ATOM      8  H   UNL     1     -20.851 -11.968   6.280  0.00  0.00    +0.000 HD
ATOM      9  H   UNL     1     -20.319 -13.601   5.879  0.00  0.00    +0.000 HD
BRANCH   7  10
ATOM     10  C   UNL     1     -19.625 -12.897   7.797  0.00  0.00    +0.000 C 
ATOM     11  H   UNL     1     -18.797 -12.237   8.082  0.00  0.00    +0.000 HD
ATOM     12  H   UNL     1     -20.474 -12.651   8.444  0.00  0.00    +0.000 HD
BRANCH  10  13
ATOM     13  C   UNL     1     -19.213 -14.341   8.037  0.00  0.00    +0.000 C 
ATOM     14  H   UNL     1     -19.346 -14.941   7.131  0.00  0.00    +0.000 HD
ATOM     15  H   UNL     1     -19.824 -14.782   8.830  0.00  0.00    +0.000 HD
ATOM     16  H   UNL     1     -18.162 -14.404   8.340  0.00  0.00    +0.000 HD
ENDBRANCH  10  13
ENDBRANCH   7  10
ENDBRANCH   4   7
ENDBRANCH   1   4
BRANCH   1  17
ATOM     17  C   UNL     1     -18.582 -11.317   3.150  0.00  0.00    +0.000 C 
ATOM     18  H   UNL     1     -19.520 -10.925   2.739  0.00  0.00    +0.000 HD
ATOM     19  H   UNL     1     -17.976 -11.660   2.303  0.00  0.00    +0.000 HD
BRANCH  17  20
ATOM     20  C   UNL     1     -17.846 -10.200   3.891  0.00  0.00    +0.000 C 
ATOM     21  H   UNL     1     -18.485  -9.798   4.687  0.00  0.00    +0.000 HD
ATOM     22  H   UNL     1     -16.954 -10.610   4.382  0.00  0.00    +0.000 HD
BRANCH  20  23
ATOM     23  C   UNL     1     -17.438  -9.078   2.941  0.00  0.00    +0.000 C 
ATOM     24  H   UNL     1     -17.067  -8.220   3.513  0.00  0.00    +0.000 HD
ATOM     25  H   UNL     1     -18.302  -8.756   2.351  0.00  0.00    +0.000 HD
BRANCH  23  27
ATOM     26  O   UNL     1     -15.442 -10.274   2.283  0.00  0.00    +0.000 OA
ATOM     27  C   UNL     1     -16.347  -9.502   1.973  0.00  0.00    +0.000 C 
BRANCH  27  28
ATOM     28  C   UNL     1     -16.428  -8.918   0.586  0.00  0.00    +0.000 C 
ATOM     29  H   UNL     1     -15.804  -9.501  -0.094  0.00  0.00    +0.000 HD
ATOM     30  H   UNL     1     -17.466  -8.924   0.246  0.00  0.00    +0.000 HD
ATOM     31  H   UNL     1     -16.067  -7.885   0.599  0.00  0.00    +0.000 HD
ENDBRANCH  27  28
ENDBRANCH  23  27
ENDBRANCH  20  23
ENDBRANCH  17  20
ENDBRANCH   1  17
TORSDOF 9
ENDMDL
MODEL 5
REMARK VINA RESULT:    -3.998     32.409     34.074
REMARK INTER + INTRA:          -6.147
REMARK INTER:                  -5.612
REMARK INTRA:                  -0.534
REMARK UNBOUND:                -0.279
REMARK  Name = 12741
REMARK  9 active torsions:
REMARK  status: ('A' for Active; 'I' for Inactive)
REMARK    1  A    between atoms: C_2  and  C_3
REMARK    2  A    between atoms: C_2  and  C_4
REMARK    3  A    between atoms: C_3  and  C_5
REMARK    4  A    between atoms: C_4  and  C_6
REMARK    5  A    between atoms: C_5  and  C_7
REMARK    6  A    between atoms: C_6  and  C_8
REMARK    7  A    between atoms: C_7  and  C_9
REMARK    8  A    between atoms: C_8  and  C_10
REMARK    9  A    between atoms: C_10  and  C_11
REMARK                            x       y       z     vdW  Elec       q    Type
REMARK                         _______ _______ _______ _____ _____    ______ ____
ROOT
ATOM      1  C   UNL     1      -1.488  10.575  15.559  0.00  0.00    +0.000 C 
ATOM      2  H   UNL     1      -1.624  11.654  15.700  0.00  0.00    +0.000 HD
ATOM      3  H   UNL     1      -0.415  10.400  15.412  0.00  0.00    +0.000 HD
ENDROOT
BRANCH   1   4
ATOM      4  C   UNL     1      -2.256  10.118  14.318  0.00  0.00    +0.000 C 
ATOM      5  H   UNL     1      -1.715   9.298  13.831  0.00  0.00    +0.000 HD
ATOM      6  H   UNL     1      -2.310  10.942  13.597  0.00  0.00    +0.000 HD
BRANCH   4   7
ATOM      7  C   UNL     1      -3.671   9.660  14.676  0.00  0.00    +0.000 C 
ATOM      8  H   UNL     1      -3.765   9.576  15.766  0.00  0.00    +0.000 HD
ATOM      9  H   UNL     1      -4.394  10.414  14.346  0.00  0.00    +0.000 HD
BRANCH   7  10
ATOM     10  C   UNL     1      -4.001   8.316  14.027  0.00  0.00    +0.000 C 
ATOM     11  H   UNL     1      -4.569   7.693  14.727  0.00  0.00    +0.000 HD
ATOM     12  H   UNL     1      -4.633   8.474  13.145  0.00  0.00    +0.000 HD
BRANCH  10  13
ATOM     13  C   UNL     1      -2.741   7.573  13.613  0.00  0.00    +0.000 C 
ATOM     14  H   UNL     1      -2.526   6.752  14.304  0.00  0.00    +0.000 HD
ATOM     15  H   UNL     1      -1.883   8.252  13.614  0.00  0.00    +0.000 HD
ATOM     16  H   UNL     1      -2.843   7.156  12.605  0.00  0.00    +0.000 HD
ENDBRANCH  10  13
ENDBRANCH   7  10
ENDBRANCH   4   7
ENDBRANCH   1   4
BRANCH   1  17
ATOM     17  C   UNL     1      -1.959   9.830  16.810  0.00  0.00    +0.000 C 
ATOM     18  H   UNL     1      -2.954   9.403  16.632  0.00  0.00    +0.000 HD
ATOM     19  H   UNL     1      -2.057  10.538  17.642  0.00  0.00    +0.000 HD
BRANCH  17  20
ATOM     20  C   UNL     1      -0.987   8.715  17.193  0.00  0.00    +0.000 C 
ATOM     21  H   UNL     1      -1.531   7.769  17.302  0.00  0.00    +0.000 HD
ATOM     22  H   UNL     1      -0.259   8.568  16.385  0.00  0.00    +0.000 HD
BRANCH  20  23
ATOM     23  C   UNL     1      -0.253   9.039  18.491  0.00  0.00    +0.000 C 
ATOM     24  H   UNL     1      -0.729   9.894  18.986  0.00  0.00    +0.000 HD
ATOM     25  H   UNL     1       0.790   9.297  18.276  0.00  0.00    +0.000 HD
BRANCH  23  27
ATOM     26  O   UNL     1      -0.311   8.025  20.686  0.00  0.00    +0.000 OA
ATOM     27  C   UNL     1      -0.252   7.875  19.467  0.00  0.00    +0.000 C 
BRANCH  27  28
ATOM     28  C   UNL     1      -0.172   6.499  18.857  0.00  0.00    +0.000 C 
ATOM     29  H   UNL     1       0.088   5.771  19.629  0.00  0.00    +0.000 HD
ATOM     30  H   UNL     1      -1.133   6.244  18.405  0.00  0.00    +0.000 HD
ATOM     31  H   UNL     1       0.600   6.483  18.082  0.00  0.00    +0.000 HD
ENDBRANCH  27  28
ENDBRANCH  23  27
ENDBRANCH  20  23
ENDBRANCH  17  20
ENDBRANCH   1  17
TORSDOF 9
ENDMDL
MODEL 6
REMARK VINA RESULT:    -3.977     31.931     33.823
REMARK INTER + INTRA:          -6.116
REMARK INTER:                  -5.768
REMARK INTRA:                  -0.348
REMARK UNBOUND:                -0.279
REMARK  Name = 12741
REMARK  9 active torsions:
REMARK  status: ('A' for Active; 'I' for Inactive)
REMARK    1  A    between atoms: C_2  and  C_3
REMARK    2  A    between atoms: C_2  and  C_4
REMARK    3  A    between atoms: C_3  and  C_5
REMARK    4  A    between atoms: C_4  and  C_6
REMARK    5  A    between atoms: C_5  and  C_7
REMARK    6  A    between atoms: C_6  and  C_8
REMARK    7  A    between atoms: C_7  and  C_9
REMARK    8  A    between atoms: C_8  and  C_10
REMARK    9  A    between atoms: C_10  and  C_11
REMARK                            x       y       z     vdW  Elec       q    Type
REMARK                         _______ _______ _______ _____ _____    ______ ____
ROOT
ATOM      1  C   UNL     1      -1.251  10.220  17.173  0.00  0.00    +0.000 C 
ATOM      2  H   UNL     1      -0.568  10.683  16.450  0.00  0.00    +0.000 HD
ATOM      3  H   UNL     1      -1.117  10.745  18.127  0.00  0.00    +0.000 HD
ENDROOT
BRANCH   1   4
ATOM      4  C   UNL     1      -0.890   8.744  17.347  0.00  0.00    +0.000 C 
ATOM      5  H   UNL     1      -0.442   8.362  16.423  0.00  0.00    +0.000 HD
ATOM      6  H   UNL     1      -1.803   8.163  17.528  0.00  0.00    +0.000 HD
BRANCH   4   7
ATOM      7  C   UNL     1       0.081   8.542  18.513  0.00  0.00    +0.000 C 
ATOM      8  H   UNL     1       1.003   9.105  18.324  0.00  0.00    +0.000 HD
ATOM      9  H   UNL     1      -0.361   8.944  19.431  0.00  0.00    +0.000 HD
BRANCH   7  10
ATOM     10  C   UNL     1       0.412   7.063  18.709  0.00  0.00    +0.000 C 
ATOM     11  H   UNL     1      -0.153   6.664  19.560  0.00  0.00    +0.000 HD
ATOM     12  H   UNL     1       0.111   6.493  17.823  0.00  0.00    +0.000 HD
BRANCH  10  13
ATOM     13  C   UNL     1       1.897   6.854  18.959  0.00  0.00    +0.000 C 
ATOM     14  H   UNL     1       2.190   5.823  18.733  0.00  0.00    +0.000 HD
ATOM     15  H   UNL     1       2.137   7.053  20.007  0.00  0.00    +0.000 HD
ATOM     16  H   UNL     1       2.499   7.526  18.338  0.00  0.00    +0.000 HD
ENDBRANCH  10  13
ENDBRANCH   7  10
ENDBRANCH   4   7
ENDBRANCH   1   4
BRANCH   1  17
ATOM     17  C   UNL     1      -2.695  10.387  16.697  0.00  0.00    +0.000 C 
ATOM     18  H   UNL     1      -2.856  11.420  16.365  0.00  0.00    +0.000 HD
ATOM     19  H   UNL     1      -3.380  10.207  17.535  0.00  0.00    +0.000 HD
BRANCH  17  20
ATOM     20  C   UNL     1      -3.019   9.428  15.551  0.00  0.00    +0.000 C 
ATOM     21  H   UNL     1      -2.470   8.488  15.688  0.00  0.00    +0.000 HD
ATOM     22  H   UNL     1      -4.086   9.175  15.573  0.00  0.00    +0.000 HD
BRANCH  20  23
ATOM     23  C   UNL     1      -2.665  10.039  14.198  0.00  0.00    +0.000 C 
ATOM     24  H   UNL     1      -1.711  10.574  14.267  0.00  0.00    +0.000 HD
ATOM     25  H   UNL     1      -3.442  10.750  13.895  0.00  0.00    +0.000 HD
BRANCH  23  27
ATOM     26  O   UNL     1      -2.328   9.285  11.926  0.00  0.00    +0.000 OA
ATOM     27  C   UNL     1      -2.538   8.995  13.102  0.00  0.00    +0.000 C 
BRANCH  27  28
ATOM     28  C   UNL     1      -2.685   7.559  13.534  0.00  0.00    +0.000 C 
ATOM     29  H   UNL     1      -2.153   7.403  14.474  0.00  0.00    +0.000 HD
ATOM     30  H   UNL     1      -3.744   7.320  13.655  0.00  0.00    +0.000 HD
ATOM     31  H   UNL     1      -2.258   6.900  12.773  0.00  0.00    +0.000 HD
ENDBRANCH  27  28
ENDBRANCH  23  27
ENDBRANCH  20  23
ENDBRANCH  17  20
ENDBRANCH   1  17
TORSDOF 9
ENDMDL
MODEL 7
REMARK VINA RESULT:    -3.943     26.414     28.217
REMARK INTER + INTRA:          -6.066
REMARK INTER:                  -5.781
REMARK INTRA:                  -0.284
REMARK UNBOUND:                -0.279
REMARK  Name = 12741
REMARK  9 active torsions:
REMARK  status: ('A' for Active; 'I' for Inactive)
REMARK    1  A    between atoms: C_2  and  C_3
REMARK    2  A    between atoms: C_2  and  C_4
REMARK    3  A    between atoms: C_3  and  C_5
REMARK    4  A    between atoms: C_4  and  C_6
REMARK    5  A    between atoms: C_5  and  C_7
REMARK    6  A    between atoms: C_6  and  C_8
REMARK    7  A    between atoms: C_7  and  C_9
REMARK    8  A    between atoms: C_8  and  C_10
REMARK    9  A    between atoms: C_10  and  C_11
REMARK                            x       y       z     vdW  Elec       q    Type
REMARK                         _______ _______ _______ _____ _____    ______ ____
ROOT
ATOM      1  C   UNL     1       3.600  -5.307  15.804  0.00  0.00    +0.000 C 
ATOM      2  H   UNL     1       4.486  -5.836  16.177  0.00  0.00    +0.000 HD
ATOM      3  H   UNL     1       2.855  -6.068  15.542  0.00  0.00    +0.000 HD
ENDROOT
BRANCH   1   4
ATOM      4  C   UNL     1       3.970  -4.502  14.557  0.00  0.00    +0.000 C 
ATOM      5  H   UNL     1       3.172  -4.592  13.811  0.00  0.00    +0.000 HD
ATOM      6  H   UNL     1       4.880  -4.918  14.109  0.00  0.00    +0.000 HD
BRANCH   4   7
ATOM      7  C   UNL     1       4.196  -3.027  14.895  0.00  0.00    +0.000 C 
ATOM      8  H   UNL     1       3.272  -2.597  15.301  0.00  0.00    +0.000 HD
ATOM      9  H   UNL     1       4.961  -2.943  15.674  0.00  0.00    +0.000 HD
BRANCH   7  10
ATOM     10  C   UNL     1       4.633  -2.236  13.662  0.00  0.00    +0.000 C 
ATOM     11  H   UNL     1       4.538  -2.860  12.766  0.00  0.00    +0.000 HD
ATOM     12  H   UNL     1       3.978  -1.368  13.525  0.00  0.00    +0.000 HD
BRANCH  10  13
ATOM     13  C   UNL     1       6.073  -1.763  13.785  0.00  0.00    +0.000 C 
ATOM     14  H   UNL     1       6.739  -2.597  14.028  0.00  0.00    +0.000 HD
ATOM     15  H   UNL     1       6.159  -1.017  14.580  0.00  0.00    +0.000 HD
ATOM     16  H   UNL     1       6.418  -1.308  12.851  0.00  0.00    +0.000 HD
ENDBRANCH  10  13
ENDBRANCH   7  10
ENDBRANCH   4   7
ENDBRANCH   1   4
BRANCH   1  17
ATOM     17  C   UNL     1       3.041  -4.403  16.904  0.00  0.00    +0.000 C 
ATOM     18  H   UNL     1       2.166  -3.860  16.526  0.00  0.00    +0.000 HD
ATOM     19  H   UNL     1       3.793  -3.653  17.178  0.00  0.00    +0.000 HD
BRANCH  17  20
ATOM     20  C   UNL     1       2.644  -5.210  18.141  0.00  0.00    +0.000 C 
ATOM     21  H   UNL     1       1.556  -5.346  18.162  0.00  0.00    +0.000 HD
ATOM     22  H   UNL     1       3.085  -6.214  18.081  0.00  0.00    +0.000 HD
BRANCH  20  23
ATOM     23  C   UNL     1       3.104  -4.524  19.424  0.00  0.00    +0.000 C 
ATOM     24  H   UNL     1       2.643  -3.532  19.503  0.00  0.00    +0.000 HD
ATOM     25  H   UNL     1       4.193  -4.403  19.412  0.00  0.00    +0.000 HD
BRANCH  23  27
ATOM     26  O   UNL     1       3.349  -5.204  21.731  0.00  0.00    +0.000 OA
ATOM     27  C   UNL     1       2.737  -5.311  20.670  0.00  0.00    +0.000 C 
BRANCH  27  28
ATOM     28  C   UNL     1       1.565  -6.249  20.541  0.00  0.00    +0.000 C 
ATOM     29  H   UNL     1       0.689  -5.809  21.021  0.00  0.00    +0.000 HD
ATOM     30  H   UNL     1       1.362  -6.437  19.483  0.00  0.00    +0.000 HD
ATOM     31  H   UNL     1       1.797  -7.199  21.031  0.00  0.00    +0.000 HD
ENDBRANCH  27  28
ENDBRANCH  23  27
ENDBRANCH  20  23
ENDBRANCH  17  20
ENDBRANCH   1  17
TORSDOF 9
ENDMDL
MODEL 8
REMARK VINA RESULT:    -3.931      3.183      4.862
REMARK INTER + INTRA:          -6.049
REMARK INTER:                  -5.601
REMARK INTRA:                  -0.448
REMARK UNBOUND:                -0.279
REMARK  Name = 12741
REMARK  9 active torsions:
REMARK  status: ('A' for Active; 'I' for Inactive)
REMARK    1  A    between atoms: C_2  and  C_3
REMARK    2  A    between atoms: C_2  and  C_4
REMARK    3  A    between atoms: C_3  and  C_5
REMARK    4  A    between atoms: C_4  and  C_6
REMARK    5  A    between atoms: C_5  and  C_7
REMARK    6  A    between atoms: C_6  and  C_8
REMARK    7  A    between atoms: C_7  and  C_9
REMARK    8  A    between atoms: C_8  and  C_10
REMARK    9  A    between atoms: C_10  and  C_11
REMARK                            x       y       z     vdW  Elec       q    Type
REMARK                         _______ _______ _______ _____ _____    ______ ____
ROOT
ATOM      1  C   UNL     1      -1.321 -16.462 -11.296  0.00  0.00    +0.000 C 
ATOM      2  H   UNL     1      -0.540 -16.409 -10.528  0.00  0.00    +0.000 HD
ATOM      3  H   UNL     1      -2.283 -16.317 -10.789  0.00  0.00    +0.000 HD
ENDROOT
BRANCH   1   4
ATOM      4  C   UNL     1      -1.295 -17.838 -11.961  0.00  0.00    +0.000 C 
ATOM      5  H   UNL     1      -1.974 -18.517 -11.431  0.00  0.00    +0.000 HD
ATOM      6  H   UNL     1      -0.288 -18.264 -11.884  0.00  0.00    +0.000 HD
BRANCH   4   7
ATOM      7  C   UNL     1      -1.701 -17.751 -13.434  0.00  0.00    +0.000 C 
ATOM      8  H   UNL     1      -2.790 -17.847 -13.522  0.00  0.00    +0.000 HD
ATOM      9  H   UNL     1      -1.430 -16.767 -13.831  0.00  0.00    +0.000 HD
BRANCH   7  10
ATOM     10  C   UNL     1      -1.021 -18.841 -14.262  0.00  0.00    +0.000 C 
ATOM     11  H   UNL     1      -1.650 -19.739 -14.285  0.00  0.00    +0.000 HD
ATOM     12  H   UNL     1      -0.901 -18.502 -15.298  0.00  0.00    +0.000 HD
BRANCH  10  13
ATOM     13  C   UNL     1       0.341 -19.205 -13.694  0.00  0.00    +0.000 C 
ATOM     14  H   UNL     1       1.049 -19.443 -14.495  0.00  0.00    +0.000 HD
ATOM     15  H   UNL     1       0.258 -20.080 -13.042  0.00  0.00    +0.000 HD
ATOM     16  H   UNL     1       0.754 -18.379 -13.105  0.00  0.00    +0.000 HD
ENDBRANCH  10  13
ENDBRANCH   7  10
ENDBRANCH   4   7
ENDBRANCH   1   4
BRANCH   1  17
ATOM     17  C   UNL     1      -1.111 -15.345 -12.320  0.00  0.00    +0.000 C 
ATOM     18  H   UNL     1      -2.020 -15.219 -12.920  0.00  0.00    +0.000 HD
ATOM     19  H   UNL     1      -0.306 -15.627 -13.009  0.00  0.00    +0.000 HD
BRANCH  17  20
ATOM     20  C   UNL     1      -0.765 -14.021 -11.637  0.00  0.00    +0.000 C 
ATOM     21  H   UNL     1       0.234 -14.084 -11.190  0.00  0.00    +0.000 HD
ATOM     22  H   UNL     1      -0.724 -13.220 -12.387  0.00  0.00    +0.000 HD
BRANCH  20  23
ATOM     23  C   UNL     1      -1.790 -13.666 -10.563  0.00  0.00    +0.000 C 
ATOM     24  H   UNL     1      -2.529 -14.470 -10.470  0.00  0.00    +0.000 HD
ATOM     25  H   UNL     1      -2.311 -12.742 -10.836  0.00  0.00    +0.000 HD
BRANCH  23  27
ATOM     26  O   UNL     1      -1.199 -14.296  -8.305  0.00  0.00    +0.000 OA
ATOM     27  C   UNL     1      -1.155 -13.454  -9.199  0.00  0.00    +0.000 C 
BRANCH  27  28
ATOM     28  C   UNL     1      -0.455 -12.136  -8.991  0.00  0.00    +0.000 C 
ATOM     29  H   UNL     1       0.415 -12.075  -9.649  0.00  0.00    +0.000 HD
ATOM     30  H   UNL     1      -1.147 -11.317  -9.202  0.00  0.00    +0.000 HD
ATOM     31  H   UNL     1      -0.119 -12.057  -7.953  0.00  0.00    +0.000 HD
ENDBRANCH  27  28
ENDBRANCH  23  27
ENDBRANCH  20  23
ENDBRANCH  17  20
ENDBRANCH   1  17
TORSDOF 9
ENDMDL
MODEL 9
REMARK VINA RESULT:    -3.735     26.832     28.607
REMARK INTER + INTRA:          -5.761
REMARK INTER:                  -5.482
REMARK INTRA:                  -0.279
REMARK UNBOUND:                -0.279
REMARK  Name = 12741
REMARK  9 active torsions:
REMARK  status: ('A' for Active; 'I' for Inactive)
REMARK    1  A    between atoms: C_2  and  C_3
REMARK    2  A    between atoms: C_2  and  C_4
REMARK    3  A    between atoms: C_3  and  C_5
REMARK    4  A    between atoms: C_4  and  C_6
REMARK    5  A    between atoms: C_5  and  C_7
REMARK    6  A    between atoms: C_6  and  C_8
REMARK    7  A    between atoms: C_7  and  C_9
REMARK    8  A    between atoms: C_8  and  C_10
REMARK    9  A    between atoms: C_10  and  C_11
REMARK                            x       y       z     vdW  Elec       q    Type
REMARK                         _______ _______ _______ _____ _____    ______ ____
ROOT
ATOM      1  C   UNL     1       5.926  -2.075  13.539  0.00  0.00    +0.000 C 
ATOM      2  H   UNL     1       5.888  -1.279  12.785  0.00  0.00    +0.000 HD
ATOM      3  H   UNL     1       6.174  -3.005  13.014  0.00  0.00    +0.000 HD
ENDROOT
BRANCH   1   4
ATOM      4  C   UNL     1       4.558  -2.213  14.209  0.00  0.00    +0.000 C 
ATOM      5  H   UNL     1       3.767  -2.021  13.475  0.00  0.00    +0.000 HD
ATOM      6  H   UNL     1       4.459  -1.458  14.998  0.00  0.00    +0.000 HD
BRANCH   4   7
ATOM      7  C   UNL     1       4.373  -3.607  14.812  0.00  0.00    +0.000 C 
ATOM      8  H   UNL     1       4.163  -4.329  14.013  0.00  0.00    +0.000 HD
ATOM      9  H   UNL     1       5.304  -3.923  15.297  0.00  0.00    +0.000 HD
BRANCH   7  10
ATOM     10  C   UNL     1       3.235  -3.624  15.832  0.00  0.00    +0.000 C 
ATOM     11  H   UNL     1       3.226  -2.684  16.397  0.00  0.00    +0.000 HD
ATOM     12  H   UNL     1       2.272  -3.701  15.315  0.00  0.00    +0.000 HD
BRANCH  10  13
ATOM     13  C   UNL     1       3.376  -4.784  16.805  0.00  0.00    +0.000 C 
ATOM     14  H   UNL     1       3.579  -4.422  17.818  0.00  0.00    +0.000 HD
ATOM     15  H   UNL     1       4.203  -5.433  16.503  0.00  0.00    +0.000 HD
ATOM     16  H   UNL     1       2.462  -5.387  16.832  0.00  0.00    +0.000 HD
ENDBRANCH  10  13
ENDBRANCH   7  10
ENDBRANCH   4   7
ENDBRANCH   1   4
BRANCH   1  17
ATOM     17  C   UNL     1       7.018  -1.761  14.564  0.00  0.00    +0.000 C 
ATOM     18  H   UNL     1       7.722  -2.601  14.621  0.00  0.00    +0.000 HD
ATOM     19  H   UNL     1       6.567  -1.650  15.557  0.00  0.00    +0.000 HD
BRANCH  17  20
ATOM     20  C   UNL     1       7.777  -0.485  14.196  0.00  0.00    +0.000 C 
ATOM     21  H   UNL     1       8.767  -0.743  13.801  0.00  0.00    +0.000 HD
ATOM     22  H   UNL     1       7.245   0.040  13.393  0.00  0.00    +0.000 HD
BRANCH  20  23
ATOM     23  C   UNL     1       7.927   0.438  15.401  0.00  0.00    +0.000 C 
ATOM     24  H   UNL     1       7.154   0.211  16.145  0.00  0.00    +0.000 HD
ATOM     25  H   UNL     1       7.814   1.482  15.088  0.00  0.00    +0.000 HD
BRANCH  23  27
ATOM     26  O   UNL     1      10.294   0.859  15.660  0.00  0.00    +0.000 OA
ATOM     27  C   UNL     1       9.281   0.301  16.077  0.00  0.00    +0.000 C 
BRANCH  27  28
ATOM     28  C   UNL     1       9.323  -0.570  17.305  0.00  0.00    +0.000 C 
ATOM     29  H   UNL     1      10.246  -1.154  17.308  0.00  0.00    +0.000 HD
ATOM     30  H   UNL     1       9.270   0.056  18.199  0.00  0.00    +0.000 HD
ATOM     31  H   UNL     1       8.471  -1.255  17.302  0.00  0.00    +0.000 HD
ENDBRANCH  27  28
ENDBRANCH  23  27
ENDBRANCH  20  23
ENDBRANCH  17  20
ENDBRANCH   1  17
TORSDOF 9
ENDMDL
MODEL 10
REMARK VINA RESULT:    -3.728     20.333     23.619
REMARK INTER + INTRA:          -5.749
REMARK INTER:                  -5.486
REMARK INTRA:                  -0.264
REMARK UNBOUND:                -0.279
REMARK  Name = 12741
REMARK  9 active torsions:
REMARK  status: ('A' for Active; 'I' for Inactive)
REMARK    1  A    between atoms: C_2  and  C_3
REMARK    2  A    between atoms: C_2  and  C_4
REMARK    3  A    between atoms: C_3  and  C_5
REMARK    4  A    between atoms: C_4  and  C_6
REMARK    5  A    between atoms: C_5  and  C_7
REMARK    6  A    between atoms: C_6  and  C_8
REMARK    7  A    between atoms: C_7  and  C_9
REMARK    8  A    between atoms: C_8  and  C_10
REMARK    9  A    between atoms: C_10  and  C_11
REMARK                            x       y       z     vdW  Elec       q    Type
REMARK                         _______ _______ _______ _____ _____    ______ ____
ROOT
ATOM      1  C   UNL     1     -19.664 -12.954   6.151  0.00  0.00    +0.000 C 
ATOM      2  H   UNL     1     -20.116 -13.609   5.396  0.00  0.00    +0.000 HD
ATOM      3  H   UNL     1     -18.953 -13.562   6.723  0.00  0.00    +0.000 HD
ENDROOT
BRANCH   1   4
ATOM      4  C   UNL     1     -20.751 -12.422   7.086  0.00  0.00    +0.000 C 
ATOM      5  H   UNL     1     -21.069 -11.427   6.753  0.00  0.00    +0.000 HD
ATOM      6  H   UNL     1     -20.341 -12.308   8.097  0.00  0.00    +0.000 HD
BRANCH   4   7
ATOM      7  C   UNL     1     -21.957 -13.361   7.129  0.00  0.00    +0.000 C 
ATOM      8  H   UNL     1     -21.963 -13.994   6.232  0.00  0.00    +0.000 HD
ATOM      9  H   UNL     1     -21.872 -14.028   7.994  0.00  0.00    +0.000 HD
BRANCH   7  10
ATOM     10  C   UNL     1     -23.268 -12.579   7.213  0.00  0.00    +0.000 C 
ATOM     11  H   UNL     1     -23.760 -12.779   8.172  0.00  0.00    +0.000 HD
ATOM     12  H   UNL     1     -23.063 -11.503   7.171  0.00  0.00    +0.000 HD
BRANCH  10  13
ATOM     13  C   UNL     1     -24.214 -12.954   6.084  0.00  0.00    +0.000 C 
ATOM     14  H   UNL     1     -23.736 -13.650   5.387  0.00  0.00    +0.000 HD
ATOM     15  H   UNL     1     -24.508 -12.061   5.524  0.00  0.00    +0.000 HD
ATOM     16  H   UNL     1     -25.122 -13.427   6.473  0.00  0.00    +0.000 HD
ENDBRANCH  10  13
ENDBRANCH   7  10
ENDBRANCH   4   7
ENDBRANCH   1   4
BRANCH   1  17
ATOM     17  C   UNL     1     -18.917 -11.812   5.459  0.00  0.00    +0.000 C 
ATOM     18  H   UNL     1     -18.375 -11.220   6.206  0.00  0.00    +0.000 HD
ATOM     19  H   UNL     1     -19.639 -11.141   4.978  0.00  0.00    +0.000 HD
BRANCH  17  20
ATOM     20  C   UNL     1     -17.932 -12.342   4.416  0.00  0.00    +0.000 C 
ATOM     21  H   UNL     1     -17.339 -13.158   4.847  0.00  0.00    +0.000 HD
ATOM     22  H   UNL     1     -18.486 -12.767   3.570  0.00  0.00    +0.000 HD
BRANCH  20  23
ATOM     23  C   UNL     1     -17.003 -11.238   3.918  0.00  0.00    +0.000 C 
ATOM     24  H   UNL     1     -16.138 -11.679   3.410  0.00  0.00    +0.000 HD
ATOM     25  H   UNL     1     -16.645 -10.642   4.764  0.00  0.00    +0.000 HD
BRANCH  23  27
ATOM     26  O   UNL     1     -18.142 -10.668   1.862  0.00  0.00    +0.000 OA
ATOM     27  C   UNL     1     -17.688 -10.296   2.943  0.00  0.00    +0.000 C 
BRANCH  27  28
ATOM     28  C   UNL     1     -17.787  -8.855   3.371  0.00  0.00    +0.000 C 
ATOM     29  H   UNL     1     -18.834  -8.545   3.377  0.00  0.00    +0.000 HD
ATOM     30  H   UNL     1     -17.352  -8.739   4.367  0.00  0.00    +0.000 HD
ATOM     31  H   UNL     1     -17.236  -8.223   2.669  0.00  0.00    +0.000 HD
ENDBRANCH  27  28
ENDBRANCH  23  27
ENDBRANCH  20  23
ENDBRANCH  17  20
ENDBRANCH   1  17
TORSDOF 9
ENDMDL
