MODEL 1
REMARK VINA RESULT:    -4.433      0.000      0.000
REMARK INTER + INTRA:          -5.909
REMARK INTER:                  -5.718
REMARK INTRA:                  -0.191
REMARK UNBOUND:                -0.181
REMARK  Name = 8051
REMARK  6 active torsions:
REMARK  status: ('A' for Active; 'I' for Inactive)
REMARK    1  A    between atoms: C_2  and  C_3
REMARK    2  A    between atoms: C_2  and  C_4
REMARK    3  A    between atoms: C_3  and  C_5
REMARK    4  A    between atoms: C_4  and  C_6
REMARK    5  A    between atoms: C_5  and  C_7
REMARK    6  A    between atoms: C_7  and  C_8
REMARK                            x       y       z     vdW  Elec       q    Type
REMARK                         _______ _______ _______ _____ _____    ______ ____
ROOT
ATOM      1  C   UNL     1       7.037  -1.065  -4.386  0.00  0.00    +0.000 C 
ATOM      2  H   UNL     1       7.001  -0.838  -3.313  0.00  0.00    +0.000 HD
ATOM      3  H   UNL     1       6.733  -2.114  -4.494  0.00  0.00    +0.000 HD
ENDROOT
BRANCH   1   4
ATOM      4  C   UNL     1       6.040  -0.173  -5.131  0.00  0.00    +0.000 C 
ATOM      5  H   UNL     1       6.579   0.477  -5.831  0.00  0.00    +0.000 HD
ATOM      6  H   UNL     1       5.364  -0.800  -5.726  0.00  0.00    +0.000 HD
BRANCH   4   7
ATOM      7  C   UNL     1       5.226   0.680  -4.158  0.00  0.00    +0.000 C 
ATOM      8  H   UNL     1       4.846   1.572  -4.671  0.00  0.00    +0.000 HD
ATOM      9  H   UNL     1       4.356   0.115  -3.805  0.00  0.00    +0.000 HD
BRANCH   7  10
ATOM     10  C   UNL     1       6.061   1.113  -2.964  0.00  0.00    +0.000 C 
ATOM     11  H   UNL     1       6.342   2.169  -3.043  0.00  0.00    +0.000 HD
ATOM     12  H   UNL     1       5.495   0.980  -2.038  0.00  0.00    +0.000 HD
ATOM     13  H   UNL     1       6.977   0.518  -2.890  0.00  0.00    +0.000 HD
ENDBRANCH   7  10
ENDBRANCH   4   7
ENDBRANCH   1   4
BRANCH   1  14
ATOM     14  C   UNL     1       8.465  -0.896  -4.895  0.00  0.00    +0.000 C 
ATOM     15  H   UNL     1       8.726   0.167  -4.930  0.00  0.00    +0.000 HD
ATOM     16  H   UNL     1       8.549  -1.308  -5.907  0.00  0.00    +0.000 HD
BRANCH  14  18
ATOM     17  O   UNL     1      10.525  -2.060  -4.507  0.00  0.00    +0.000 OA
ATOM     18  C   UNL     1       9.489  -1.600  -4.026  0.00  0.00    +0.000 C 
BRANCH  18  19
ATOM     19  C   UNL     1       9.201  -1.700  -2.552  0.00  0.00    +0.000 C 
ATOM     20  H   UNL     1       9.908  -1.077  -1.998  0.00  0.00    +0.000 HD
ATOM     21  H   UNL     1       8.176  -1.373  -2.356  0.00  0.00    +0.000 HD
ATOM     22  H   UNL     1       9.308  -2.737  -2.223  0.00  0.00    +0.000 HD
ENDBRANCH  18  19
ENDBRANCH  14  18
ENDBRANCH   1  14
TORSDOF 6
ENDMDL
MODEL 2
REMARK VINA RESULT:    -4.364      2.205      2.800
REMARK INTER + INTRA:          -5.821
REMARK INTER:                  -5.630
REMARK INTRA:                  -0.191
REMARK UNBOUND:                -0.181
REMARK  Name = 8051
REMARK  6 active torsions:
REMARK  status: ('A' for Active; 'I' for Inactive)
REMARK    1  A    between atoms: C_2  and  C_3
REMARK    2  A    between atoms: C_2  and  C_4
REMARK    3  A    between atoms: C_3  and  C_5
REMARK    4  A    between atoms: C_4  and  C_6
REMARK    5  A    between atoms: C_5  and  C_7
REMARK    6  A    between atoms: C_7  and  C_8
REMARK                            x       y       z     vdW  Elec       q    Type
REMARK                         _______ _______ _______ _____ _____    ______ ____
ROOT
ATOM      1  C   UNL     1       5.452  -0.881  -2.364  0.00  0.00    +0.000 C 
ATOM      2  H   UNL     1       5.334  -0.531  -1.330  0.00  0.00    +0.000 HD
ATOM      3  H   UNL     1       4.457  -1.200  -2.701  0.00  0.00    +0.000 HD
ENDROOT
BRANCH   1   4
ATOM      4  C   UNL     1       5.934   0.276  -3.243  0.00  0.00    +0.000 C 
ATOM      5  H   UNL     1       6.115   1.160  -2.621  0.00  0.00    +0.000 HD
ATOM      6  H   UNL     1       6.889   0.006  -3.709  0.00  0.00    +0.000 HD
BRANCH   4   7
ATOM      7  C   UNL     1       4.910   0.611  -4.329  0.00  0.00    +0.000 C 
ATOM      8  H   UNL     1       3.980   0.057  -4.148  0.00  0.00    +0.000 HD
ATOM      9  H   UNL     1       4.665   1.678  -4.294  0.00  0.00    +0.000 HD
BRANCH   7  10
ATOM     10  C   UNL     1       5.432   0.261  -5.713  0.00  0.00    +0.000 C 
ATOM     11  H   UNL     1       6.105  -0.602  -5.673  0.00  0.00    +0.000 HD
ATOM     12  H   UNL     1       4.601   0.013  -6.380  0.00  0.00    +0.000 HD
ATOM     13  H   UNL     1       5.978   1.104  -6.150  0.00  0.00    +0.000 HD
ENDBRANCH   7  10
ENDBRANCH   4   7
ENDBRANCH   1   4
BRANCH   1  14
ATOM     14  C   UNL     1       6.403  -2.072  -2.392  0.00  0.00    +0.000 C 
ATOM     15  H   UNL     1       6.587  -2.379  -3.427  0.00  0.00    +0.000 HD
ATOM     16  H   UNL     1       5.957  -2.916  -1.853  0.00  0.00    +0.000 HD
BRANCH  14  18
ATOM     17  O   UNL     1       7.818  -1.368  -0.588  0.00  0.00    +0.000 OA
ATOM     18  C   UNL     1       7.743  -1.774  -1.748  0.00  0.00    +0.000 C 
BRANCH  18  19
ATOM     19  C   UNL     1       8.980  -2.011  -2.573  0.00  0.00    +0.000 C 
ATOM     20  H   UNL     1       8.694  -2.247  -3.601  0.00  0.00    +0.000 HD
ATOM     21  H   UNL     1       9.610  -1.118  -2.553  0.00  0.00    +0.000 HD
ATOM     22  H   UNL     1       9.546  -2.850  -2.160  0.00  0.00    +0.000 HD
ENDBRANCH  18  19
ENDBRANCH  14  18
ENDBRANCH   1  14
TORSDOF 6
ENDMDL
MODEL 3
REMARK VINA RESULT:    -4.206      8.626      9.367
REMARK INTER + INTRA:          -5.616
REMARK INTER:                  -5.460
REMARK INTRA:                  -0.156
REMARK UNBOUND:                -0.181
REMARK  Name = 8051
REMARK  6 active torsions:
REMARK  status: ('A' for Active; 'I' for Inactive)
REMARK    1  A    between atoms: C_2  and  C_3
REMARK    2  A    between atoms: C_2  and  C_4
REMARK    3  A    between atoms: C_3  and  C_5
REMARK    4  A    between atoms: C_4  and  C_6
REMARK    5  A    between atoms: C_5  and  C_7
REMARK    6  A    between atoms: C_7  and  C_8
REMARK                            x       y       z     vdW  Elec       q    Type
REMARK                         _______ _______ _______ _____ _____    ______ ____
ROOT
ATOM      1  C   UNL     1      10.254   7.706  -3.327  0.00  0.00    +0.000 C 
ATOM      2  H   UNL     1      10.351   6.720  -3.796  0.00  0.00    +0.000 HD
ATOM      3  H   UNL     1      11.244   7.961  -2.927  0.00  0.00    +0.000 HD
ENDROOT
BRANCH   1   4
ATOM      4  C   UNL     1       9.856   8.740  -4.385  0.00  0.00    +0.000 C 
ATOM      5  H   UNL     1       8.871   9.155  -4.140  0.00  0.00    +0.000 HD
ATOM      6  H   UNL     1      10.572   9.571  -4.369  0.00  0.00    +0.000 HD
BRANCH   4   7
ATOM      7  C   UNL     1       9.822   8.117  -5.781  0.00  0.00    +0.000 C 
ATOM      8  H   UNL     1       9.742   8.906  -6.539  0.00  0.00    +0.000 HD
ATOM      9  H   UNL     1      10.757   7.578  -5.971  0.00  0.00    +0.000 HD
BRANCH   7  10
ATOM     10  C   UNL     1       8.651   7.161  -5.936  0.00  0.00    +0.000 C 
ATOM     11  H   UNL     1       8.921   6.308  -6.567  0.00  0.00    +0.000 HD
ATOM     12  H   UNL     1       8.344   6.777  -4.958  0.00  0.00    +0.000 HD
ATOM     13  H   UNL     1       7.791   7.665  -6.387  0.00  0.00    +0.000 HD
ENDBRANCH   7  10
ENDBRANCH   4   7
ENDBRANCH   1   4
BRANCH   1  14
ATOM     14  C   UNL     1       9.250   7.628  -2.181  0.00  0.00    +0.000 C 
ATOM     15  H   UNL     1       8.649   6.717  -2.273  0.00  0.00    +0.000 HD
ATOM     16  H   UNL     1       8.579   8.493  -2.216  0.00  0.00    +0.000 HD
BRANCH  14  18
ATOM     17  O   UNL     1       9.241   7.636   0.217  0.00  0.00    +0.000 OA
ATOM     18  C   UNL     1       9.911   7.615  -0.816  0.00  0.00    +0.000 C 
BRANCH  18  19
ATOM     19  C   UNL     1      11.415   7.559  -0.771  0.00  0.00    +0.000 C 
ATOM     20  H   UNL     1      11.734   6.566  -0.444  0.00  0.00    +0.000 HD
ATOM     21  H   UNL     1      11.819   7.778  -1.763  0.00  0.00    +0.000 HD
ATOM     22  H   UNL     1      11.792   8.304  -0.065  0.00  0.00    +0.000 HD
ENDBRANCH  18  19
ENDBRANCH  14  18
ENDBRANCH   1  14
TORSDOF 6
ENDMDL
MODEL 4
REMARK VINA RESULT:    -4.186      2.438      4.258
REMARK INTER + INTRA:          -5.591
REMARK INTER:                  -5.256
REMARK INTRA:                  -0.335
REMARK UNBOUND:                -0.181
REMARK  Name = 8051
REMARK  6 active torsions:
REMARK  status: ('A' for Active; 'I' for Inactive)
REMARK    1  A    between atoms: C_2  and  C_3
REMARK    2  A    between atoms: C_2  and  C_4
REMARK    3  A    between atoms: C_3  and  C_5
REMARK    4  A    between atoms: C_4  and  C_6
REMARK    5  A    between atoms: C_5  and  C_7
REMARK    6  A    between atoms: C_7  and  C_8
REMARK                            x       y       z     vdW  Elec       q    Type
REMARK                         _______ _______ _______ _____ _____    ______ ____
ROOT
ATOM      1  C   UNL     1       6.356  -2.055  -2.703  0.00  0.00    +0.000 C 
ATOM      2  H   UNL     1       6.688  -2.130  -3.746  0.00  0.00    +0.000 HD
ATOM      3  H   UNL     1       5.832  -2.992  -2.474  0.00  0.00    +0.000 HD
ENDROOT
BRANCH   1   4
ATOM      4  C   UNL     1       7.575  -1.922  -1.786  0.00  0.00    +0.000 C 
ATOM      5  H   UNL     1       7.517  -0.977  -1.232  0.00  0.00    +0.000 HD
ATOM      6  H   UNL     1       7.566  -2.733  -1.047  0.00  0.00    +0.000 HD
BRANCH   4   7
ATOM      7  C   UNL     1       8.878  -1.972  -2.586  0.00  0.00    +0.000 C 
ATOM      8  H   UNL     1       9.658  -2.470  -1.998  0.00  0.00    +0.000 HD
ATOM      9  H   UNL     1       8.732  -2.561  -3.498  0.00  0.00    +0.000 HD
BRANCH   7  10
ATOM     10  C   UNL     1       9.354  -0.578  -2.961  0.00  0.00    +0.000 C 
ATOM     11  H   UNL     1       9.943  -0.599  -3.885  0.00  0.00    +0.000 HD
ATOM     12  H   UNL     1       8.498   0.085  -3.119  0.00  0.00    +0.000 HD
ATOM     13  H   UNL     1       9.974  -0.149  -2.168  0.00  0.00    +0.000 HD
ENDBRANCH   7  10
ENDBRANCH   4   7
ENDBRANCH   1   4
BRANCH   1  14
ATOM     14  C   UNL     1       5.387  -0.886  -2.560  0.00  0.00    +0.000 C 
ATOM     15  H   UNL     1       5.363  -0.546  -1.518  0.00  0.00    +0.000 HD
ATOM     16  H   UNL     1       4.378  -1.203  -2.846  0.00  0.00    +0.000 HD
BRANCH  14  18
ATOM     17  O   UNL     1       6.230   1.327  -2.940  0.00  0.00    +0.000 OA
ATOM     18  C   UNL     1       5.759   0.300  -3.429  0.00  0.00    +0.000 C 
BRANCH  18  19
ATOM     19  C   UNL     1       5.547   0.168  -4.914  0.00  0.00    +0.000 C 
ATOM     20  H   UNL     1       4.510   0.411  -5.158  0.00  0.00    +0.000 HD
ATOM     21  H   UNL     1       6.226   0.841  -5.442  0.00  0.00    +0.000 HD
ATOM     22  H   UNL     1       5.755  -0.859  -5.227  0.00  0.00    +0.000 HD
ENDBRANCH  18  19
ENDBRANCH  14  18
ENDBRANCH   1  14
TORSDOF 6
ENDMDL
MODEL 5
REMARK VINA RESULT:    -4.139      1.337      2.214
REMARK INTER + INTRA:          -5.529
REMARK INTER:                  -5.218
REMARK INTRA:                  -0.311
REMARK UNBOUND:                -0.181
REMARK  Name = 8051
REMARK  6 active torsions:
REMARK  status: ('A' for Active; 'I' for Inactive)
REMARK    1  A    between atoms: C_2  and  C_3
REMARK    2  A    between atoms: C_2  and  C_4
REMARK    3  A    between atoms: C_3  and  C_5
REMARK    4  A    between atoms: C_4  and  C_6
REMARK    5  A    between atoms: C_5  and  C_7
REMARK    6  A    between atoms: C_7  and  C_8
REMARK                            x       y       z     vdW  Elec       q    Type
REMARK                         _______ _______ _______ _____ _____    ______ ____
ROOT
ATOM      1  C   UNL     1       6.994   0.257  -2.079  0.00  0.00    +0.000 C 
ATOM      2  H   UNL     1       6.963   0.567  -1.027  0.00  0.00    +0.000 HD
ATOM      3  H   UNL     1       6.574  -0.757  -2.119  0.00  0.00    +0.000 HD
ENDROOT
BRANCH   1   4
ATOM      4  C   UNL     1       6.121   1.197  -2.916  0.00  0.00    +0.000 C 
ATOM      5  H   UNL     1       5.671   1.955  -2.265  0.00  0.00    +0.000 HD
ATOM      6  H   UNL     1       6.749   1.725  -3.644  0.00  0.00    +0.000 HD
BRANCH   4   7
ATOM      7  C   UNL     1       5.022   0.426  -3.648  0.00  0.00    +0.000 C 
ATOM      8  H   UNL     1       4.991  -0.610  -3.289  0.00  0.00    +0.000 HD
ATOM      9  H   UNL     1       4.046   0.875  -3.433  0.00  0.00    +0.000 HD
BRANCH   7  10
ATOM     10  C   UNL     1       5.252   0.423  -5.151  0.00  0.00    +0.000 C 
ATOM     11  H   UNL     1       5.019   1.400  -5.586  0.00  0.00    +0.000 HD
ATOM     12  H   UNL     1       6.298   0.191  -5.374  0.00  0.00    +0.000 HD
ATOM     13  H   UNL     1       4.626  -0.330  -5.641  0.00  0.00    +0.000 HD
ENDBRANCH   7  10
ENDBRANCH   4   7
ENDBRANCH   1   4
BRANCH   1  14
ATOM     14  C   UNL     1       8.442   0.224  -2.557  0.00  0.00    +0.000 C 
ATOM     15  H   UNL     1       9.121   0.276  -1.699  0.00  0.00    +0.000 HD
ATOM     16  H   UNL     1       8.637   1.085  -3.207  0.00  0.00    +0.000 HD
BRANCH  14  18
ATOM     17  O   UNL     1       9.116  -2.067  -2.774  0.00  0.00    +0.000 OA
ATOM     18  C   UNL     1       8.778  -1.029  -3.343  0.00  0.00    +0.000 C 
BRANCH  18  19
ATOM     19  C   UNL     1       8.665  -0.961  -4.843  0.00  0.00    +0.000 C 
ATOM     20  H   UNL     1       8.563   0.081  -5.155  0.00  0.00    +0.000 HD
ATOM     21  H   UNL     1       9.554  -1.406  -5.298  0.00  0.00    +0.000 HD
ATOM     22  H   UNL     1       7.784  -1.519  -5.173  0.00  0.00    +0.000 HD
ENDBRANCH  18  19
ENDBRANCH  14  18
ENDBRANCH   1  14
TORSDOF 6
ENDMDL
MODEL 6
REMARK VINA RESULT:    -4.066      2.472      3.604
REMARK INTER + INTRA:          -5.436
REMARK INTER:                  -5.107
REMARK INTRA:                  -0.329
REMARK UNBOUND:                -0.181
REMARK  Name = 8051
REMARK  6 active torsions:
REMARK  status: ('A' for Active; 'I' for Inactive)
REMARK    1  A    between atoms: C_2  and  C_3
REMARK    2  A    between atoms: C_2  and  C_4
REMARK    3  A    between atoms: C_3  and  C_5
REMARK    4  A    between atoms: C_4  and  C_6
REMARK    5  A    between atoms: C_5  and  C_7
REMARK    6  A    between atoms: C_7  and  C_8
REMARK                            x       y       z     vdW  Elec       q    Type
REMARK                         _______ _______ _______ _____ _____    ______ ____
ROOT
ATOM      1  C   UNL     1       5.243   0.343  -3.377  0.00  0.00    +0.000 C 
ATOM      2  H   UNL     1       4.240   0.767  -3.509  0.00  0.00    +0.000 HD
ATOM      3  H   UNL     1       5.119  -0.574  -2.785  0.00  0.00    +0.000 HD
ENDROOT
BRANCH   1   4
ATOM      4  C   UNL     1       5.830  -0.017  -4.745  0.00  0.00    +0.000 C 
ATOM      5  H   UNL     1       5.018  -0.246  -5.445  0.00  0.00    +0.000 HD
ATOM      6  H   UNL     1       6.372   0.847  -5.148  0.00  0.00    +0.000 HD
BRANCH   4   7
ATOM      7  C   UNL     1       6.776  -1.215  -4.644  0.00  0.00    +0.000 C 
ATOM      8  H   UNL     1       6.669  -1.692  -3.662  0.00  0.00    +0.000 HD
ATOM      9  H   UNL     1       6.511  -1.963  -5.399  0.00  0.00    +0.000 HD
BRANCH   7  10
ATOM     10  C   UNL     1       8.225  -0.798  -4.837  0.00  0.00    +0.000 C 
ATOM     11  H   UNL     1       8.424  -0.544  -5.884  0.00  0.00    +0.000 HD
ATOM     12  H   UNL     1       8.451   0.081  -4.225  0.00  0.00    +0.000 HD
ATOM     13  H   UNL     1       8.907  -1.601  -4.542  0.00  0.00    +0.000 HD
ENDBRANCH   7  10
ENDBRANCH   4   7
ENDBRANCH   1   4
BRANCH   1  14
ATOM     14  C   UNL     1       6.116   1.329  -2.608  0.00  0.00    +0.000 C 
ATOM     15  H   UNL     1       5.493   2.118  -2.173  0.00  0.00    +0.000 HD
ATOM     16  H   UNL     1       6.840   1.792  -3.288  0.00  0.00    +0.000 HD
BRANCH  14  18
ATOM     17  O   UNL     1       6.333  -0.016  -0.635  0.00  0.00    +0.000 OA
ATOM     18  C   UNL     1       6.896   0.676  -1.483  0.00  0.00    +0.000 C 
BRANCH  18  19
ATOM     19  C   UNL     1       8.385   0.892  -1.453  0.00  0.00    +0.000 C 
ATOM     20  H   UNL     1       8.801   0.448  -0.545  0.00  0.00    +0.000 HD
ATOM     21  H   UNL     1       8.839   0.435  -2.337  0.00  0.00    +0.000 HD
ATOM     22  H   UNL     1       8.605   1.963  -1.458  0.00  0.00    +0.000 HD
ENDBRANCH  18  19
ENDBRANCH  14  18
ENDBRANCH   1  14
TORSDOF 6
ENDMDL
MODEL 7
REMARK VINA RESULT:    -4.056      2.890      3.475
REMARK INTER + INTRA:          -5.422
REMARK INTER:                  -5.064
REMARK INTRA:                  -0.358
REMARK UNBOUND:                -0.181
REMARK  Name = 8051
REMARK  6 active torsions:
REMARK  status: ('A' for Active; 'I' for Inactive)
REMARK    1  A    between atoms: C_2  and  C_3
REMARK    2  A    between atoms: C_2  and  C_4
REMARK    3  A    between atoms: C_3  and  C_5
REMARK    4  A    between atoms: C_4  and  C_6
REMARK    5  A    between atoms: C_5  and  C_7
REMARK    6  A    between atoms: C_7  and  C_8
REMARK                            x       y       z     vdW  Elec       q    Type
REMARK                         _______ _______ _______ _____ _____    ______ ____
ROOT
ATOM      1  C   UNL     1       5.955  -1.660  -2.644  0.00  0.00    +0.000 C 
ATOM      2  H   UNL     1       5.193  -0.888  -2.477  0.00  0.00    +0.000 HD
ATOM      3  H   UNL     1       5.463  -2.627  -2.477  0.00  0.00    +0.000 HD
ENDROOT
BRANCH   1   4
ATOM      4  C   UNL     1       6.447  -1.588  -4.092  0.00  0.00    +0.000 C 
ATOM      5  H   UNL     1       7.483  -1.943  -4.146  0.00  0.00    +0.000 HD
ATOM      6  H   UNL     1       5.841  -2.257  -4.716  0.00  0.00    +0.000 HD
BRANCH   4   7
ATOM      7  C   UNL     1       6.361  -0.162  -4.636  0.00  0.00    +0.000 C 
ATOM      8  H   UNL     1       7.243   0.410  -4.324  0.00  0.00    +0.000 HD
ATOM      9  H   UNL     1       6.358  -0.181  -5.732  0.00  0.00    +0.000 HD
BRANCH   7  10
ATOM     10  C   UNL     1       5.110   0.547  -4.144  0.00  0.00    +0.000 C 
ATOM     11  H   UNL     1       4.593  -0.050  -3.385  0.00  0.00    +0.000 HD
ATOM     12  H   UNL     1       5.372   1.511  -3.697  0.00  0.00    +0.000 HD
ATOM     13  H   UNL     1       4.414   0.733  -4.968  0.00  0.00    +0.000 HD
ENDBRANCH   7  10
ENDBRANCH   4   7
ENDBRANCH   1   4
BRANCH   1  14
ATOM     14  C   UNL     1       7.085  -1.485  -1.634  0.00  0.00    +0.000 C 
ATOM     15  H   UNL     1       8.053  -1.547  -2.143  0.00  0.00    +0.000 HD
ATOM     16  H   UNL     1       7.036  -2.281  -0.882  0.00  0.00    +0.000 HD
BRANCH  14  18
ATOM     17  O   UNL     1       6.292  -0.001   0.074  0.00  0.00    +0.000 OA
ATOM     18  C   UNL     1       7.025  -0.159  -0.902  0.00  0.00    +0.000 C 
BRANCH  18  19
ATOM     19  C   UNL     1       7.909   0.953  -1.403  0.00  0.00    +0.000 C 
ATOM     20  H   UNL     1       7.303   1.841  -1.599  0.00  0.00    +0.000 HD
ATOM     21  H   UNL     1       8.675   1.177  -0.656  0.00  0.00    +0.000 HD
ATOM     22  H   UNL     1       8.400   0.646  -2.330  0.00  0.00    +0.000 HD
ENDBRANCH  18  19
ENDBRANCH  14  18
ENDBRANCH   1  14
TORSDOF 6
ENDMDL
MODEL 8
REMARK VINA RESULT:    -4.048      3.455      4.545
REMARK INTER + INTRA:          -5.412
REMARK INTER:                  -5.267
REMARK INTRA:                  -0.145
REMARK UNBOUND:                -0.181
REMARK  Name = 8051
REMARK  6 active torsions:
REMARK  status: ('A' for Active; 'I' for Inactive)
REMARK    1  A    between atoms: C_2  and  C_3
REMARK    2  A    between atoms: C_2  and  C_4
REMARK    3  A    between atoms: C_3  and  C_5
REMARK    4  A    between atoms: C_4  and  C_6
REMARK    5  A    between atoms: C_5  and  C_7
REMARK    6  A    between atoms: C_7  and  C_8
REMARK                            x       y       z     vdW  Elec       q    Type
REMARK                         _______ _______ _______ _____ _____    ______ ____
ROOT
ATOM      1  C   UNL     1       6.702   1.012  -2.667  0.00  0.00    +0.000 C 
ATOM      2  H   UNL     1       7.160   0.075  -3.009  0.00  0.00    +0.000 HD
ATOM      3  H   UNL     1       7.346   1.824  -3.029  0.00  0.00    +0.000 HD
ENDROOT
BRANCH   1   4
ATOM      4  C   UNL     1       5.310   1.157  -3.290  0.00  0.00    +0.000 C 
ATOM      5  H   UNL     1       4.561   0.722  -2.618  0.00  0.00    +0.000 HD
ATOM      6  H   UNL     1       5.069   2.221  -3.400  0.00  0.00    +0.000 HD
BRANCH   4   7
ATOM      7  C   UNL     1       5.240   0.472  -4.655  0.00  0.00    +0.000 C 
ATOM      8  H   UNL     1       4.310  -0.104  -4.736  0.00  0.00    +0.000 HD
ATOM      9  H   UNL     1       5.226   1.225  -5.450  0.00  0.00    +0.000 HD
BRANCH   7  10
ATOM     10  C   UNL     1       6.420  -0.462  -4.870  0.00  0.00    +0.000 C 
ATOM     11  H   UNL     1       6.402  -0.893  -5.877  0.00  0.00    +0.000 HD
ATOM     12  H   UNL     1       7.361   0.084  -4.751  0.00  0.00    +0.000 HD
ATOM     13  H   UNL     1       6.409  -1.281  -4.144  0.00  0.00    +0.000 HD
ENDBRANCH   7  10
ENDBRANCH   4   7
ENDBRANCH   1   4
BRANCH   1  14
ATOM     14  C   UNL     1       6.665   1.035  -1.143  0.00  0.00    +0.000 C 
ATOM     15  H   UNL     1       7.406   0.335  -0.741  0.00  0.00    +0.000 HD
ATOM     16  H   UNL     1       5.673   0.731  -0.791  0.00  0.00    +0.000 HD
BRANCH  14  18
ATOM     17  O   UNL     1       6.089   3.280  -0.527  0.00  0.00    +0.000 OA
ATOM     18  C   UNL     1       6.956   2.406  -0.565  0.00  0.00    +0.000 C 
BRANCH  18  19
ATOM     19  C   UNL     1       8.338   2.654  -0.022  0.00  0.00    +0.000 C 
ATOM     20  H   UNL     1       8.746   3.568  -0.462  0.00  0.00    +0.000 HD
ATOM     21  H   UNL     1       8.293   2.747   1.066  0.00  0.00    +0.000 HD
ATOM     22  H   UNL     1       8.992   1.815  -0.276  0.00  0.00    +0.000 HD
ENDBRANCH  18  19
ENDBRANCH  14  18
ENDBRANCH   1  14
TORSDOF 6
ENDMDL
MODEL 9
REMARK VINA RESULT:    -3.822      3.802      5.351
REMARK INTER + INTRA:          -5.120
REMARK INTER:                  -4.994
REMARK INTRA:                  -0.126
REMARK UNBOUND:                -0.181
REMARK  Name = 8051
REMARK  6 active torsions:
REMARK  status: ('A' for Active; 'I' for Inactive)
REMARK    1  A    between atoms: C_2  and  C_3
REMARK    2  A    between atoms: C_2  and  C_4
REMARK    3  A    between atoms: C_3  and  C_5
REMARK    4  A    between atoms: C_4  and  C_6
REMARK    5  A    between atoms: C_5  and  C_7
REMARK    6  A    between atoms: C_7  and  C_8
REMARK                            x       y       z     vdW  Elec       q    Type
REMARK                         _______ _______ _______ _____ _____    ______ ____
ROOT
ATOM      1  C   UNL     1       6.769   2.580  -0.340  0.00  0.00    +0.000 C 
ATOM      2  H   UNL     1       6.102   2.751   0.514  0.00  0.00    +0.000 HD
ATOM      3  H   UNL     1       6.372   3.177  -1.171  0.00  0.00    +0.000 HD
ENDROOT
BRANCH   1   4
ATOM      4  C   UNL     1       8.178   3.072   0.006  0.00  0.00    +0.000 C 
ATOM      5  H   UNL     1       8.510   2.607   0.941  0.00  0.00    +0.000 HD
ATOM      6  H   UNL     1       8.877   2.757  -0.779  0.00  0.00    +0.000 HD
BRANCH   4   7
ATOM      7  C   UNL     1       8.214   4.594   0.145  0.00  0.00    +0.000 C 
ATOM      8  H   UNL     1       9.198   4.973  -0.157  0.00  0.00    +0.000 HD
ATOM      9  H   UNL     1       7.473   5.047  -0.522  0.00  0.00    +0.000 HD
BRANCH   7  10
ATOM     10  C   UNL     1       7.934   5.029   1.574  0.00  0.00    +0.000 C 
ATOM     11  H   UNL     1       7.351   4.271   2.108  0.00  0.00    +0.000 HD
ATOM     12  H   UNL     1       8.873   5.180   2.115  0.00  0.00    +0.000 HD
ATOM     13  H   UNL     1       7.375   5.970   1.595  0.00  0.00    +0.000 HD
ENDBRANCH   7  10
ENDBRANCH   4   7
ENDBRANCH   1   4
BRANCH   1  14
ATOM     14  C   UNL     1       6.743   1.103  -0.719  0.00  0.00    +0.000 C 
ATOM     15  H   UNL     1       5.770   0.670  -0.466  0.00  0.00    +0.000 HD
ATOM     16  H   UNL     1       7.519   0.564  -0.164  0.00  0.00    +0.000 HD
BRANCH  14  18
ATOM     17  O   UNL     1       8.083   0.477  -2.607  0.00  0.00    +0.000 OA
ATOM     18  C   UNL     1       6.990   0.867  -2.197  0.00  0.00    +0.000 C 
BRANCH  18  19
ATOM     19  C   UNL     1       5.844   1.111  -3.142  0.00  0.00    +0.000 C 
ATOM     20  H   UNL     1       4.901   1.080  -2.589  0.00  0.00    +0.000 HD
ATOM     21  H   UNL     1       5.966   2.085  -3.623  0.00  0.00    +0.000 HD
ATOM     22  H   UNL     1       5.829   0.337  -3.913  0.00  0.00    +0.000 HD
ENDBRANCH  18  19
ENDBRANCH  14  18
ENDBRANCH   1  14
TORSDOF 6
ENDMDL
MODEL 10
REMARK VINA RESULT:    -3.665      3.049      4.213
REMARK INTER + INTRA:          -4.916
REMARK INTER:                  -4.736
REMARK INTRA:                  -0.181
REMARK UNBOUND:                -0.181
REMARK  Name = 8051
REMARK  6 active torsions:
REMARK  status: ('A' for Active; 'I' for Inactive)
REMARK    1  A    between atoms: C_2  and  C_3
REMARK    2  A    between atoms: C_2  and  C_4
REMARK    3  A    between atoms: C_3  and  C_5
REMARK    4  A    between atoms: C_4  and  C_6
REMARK    5  A    between atoms: C_5  and  C_7
REMARK    6  A    between atoms: C_7  and  C_8
REMARK                            x       y       z     vdW  Elec       q    Type
REMARK                         _______ _______ _______ _____ _____    ______ ____
ROOT
ATOM      1  C   UNL     1       7.680   0.549  -2.453  0.00  0.00    +0.000 C 
ATOM      2  H   UNL     1       8.412   1.015  -3.124  0.00  0.00    +0.000 HD
ATOM      3  H   UNL     1       7.801  -0.537  -2.564  0.00  0.00    +0.000 HD
ENDROOT
BRANCH   1   4
ATOM      4  C   UNL     1       7.988   0.945  -1.006  0.00  0.00    +0.000 C 
ATOM      5  H   UNL     1       8.505   0.120  -0.502  0.00  0.00    +0.000 HD
ATOM      6  H   UNL     1       8.667   1.806  -1.000  0.00  0.00    +0.000 HD
BRANCH   4   7
ATOM      7  C   UNL     1       6.709   1.294  -0.244  0.00  0.00    +0.000 C 
ATOM      8  H   UNL     1       6.811   2.281   0.223  0.00  0.00    +0.000 HD
ATOM      9  H   UNL     1       5.864   1.349  -0.939  0.00  0.00    +0.000 HD
BRANCH   7  10
ATOM     10  C   UNL     1       6.405   0.266   0.834  0.00  0.00    +0.000 C 
ATOM     11  H   UNL     1       5.521   0.552   1.412  0.00  0.00    +0.000 HD
ATOM     12  H   UNL     1       6.213  -0.712   0.381  0.00  0.00    +0.000 HD
ATOM     13  H   UNL     1       7.248   0.160   1.524  0.00  0.00    +0.000 HD
ENDBRANCH   7  10
ENDBRANCH   4   7
ENDBRANCH   1   4
BRANCH   1  14
ATOM     14  C   UNL     1       6.271   0.948  -2.881  0.00  0.00    +0.000 C 
ATOM     15  H   UNL     1       6.244   2.015  -3.128  0.00  0.00    +0.000 HD
ATOM     16  H   UNL     1       5.568   0.763  -2.060  0.00  0.00    +0.000 HD
BRANCH  14  18
ATOM     17  O   UNL     1       4.813   0.566  -4.746  0.00  0.00    +0.000 OA
ATOM     18  C   UNL     1       5.778   0.176  -4.089  0.00  0.00    +0.000 C 
BRANCH  18  19
ATOM     19  C   UNL     1       6.525  -1.076  -4.466  0.00  0.00    +0.000 C 
ATOM     20  H   UNL     1       6.755  -1.650  -3.566  0.00  0.00    +0.000 HD
ATOM     21  H   UNL     1       5.915  -1.675  -5.149  0.00  0.00    +0.000 HD
ATOM     22  H   UNL     1       7.459  -0.813  -4.969  0.00  0.00    +0.000 HD
ENDBRANCH  18  19
ENDBRANCH  14  18
ENDBRANCH   1  14
TORSDOF 6
ENDMDL
