MODEL 1
REMARK VINA RESULT:    -4.213      0.000      0.000
REMARK INTER + INTRA:          -6.431
REMARK INTER:                  -6.161
REMARK INTRA:                  -0.269
REMARK UNBOUND:                -0.370
REMARK  Name = 12367
REMARK  9 active torsions:
REMARK  status: ('A' for Active; 'I' for Inactive)
REMARK    1  A    between atoms: O_1  and  C_7
REMARK    2  A    between atoms: C_2  and  C_3
REMARK    3  A    between atoms: C_2  and  C_4
REMARK    4  A    between atoms: C_3  and  C_5
REMARK    5  A    between atoms: C_4  and  C_6
REMARK    6  A    between atoms: C_5  and  C_7
REMARK    7  A    between atoms: C_6  and  C_8
REMARK    8  A    between atoms: C_7  and  C_9
REMARK    9  A    between atoms: C_8  and  C_10
REMARK                            x       y       z     vdW  Elec       q    Type
REMARK                         _______ _______ _______ _____ _____    ______ ____
ROOT
ATOM      1  C   UNL     1      -0.428 -12.460  -9.747  0.00  0.00    +0.000 C 
ATOM      2  H   UNL     1      -0.889 -11.616 -10.274  0.00  0.00    +0.000 HD
ATOM      3  H   UNL     1       0.613 -12.525 -10.089  0.00  0.00    +0.000 HD
ENDROOT
BRANCH   1   4
ATOM      4  C   UNL     1      -0.458 -12.207  -8.238  0.00  0.00    +0.000 C 
ATOM      5  H   UNL     1      -0.593 -11.135  -8.045  0.00  0.00    +0.000 HD
ATOM      6  H   UNL     1       0.510 -12.494  -7.809  0.00  0.00    +0.000 HD
BRANCH   4   7
ATOM      7  C   UNL     1      -1.587 -12.994  -7.564  0.00  0.00    +0.000 C 
ATOM      8  H   UNL     1      -2.462 -12.346  -7.431  0.00  0.00    +0.000 HD
ATOM      9  H   UNL     1      -1.883 -13.814  -8.231  0.00  0.00    +0.000 HD
BRANCH   7  10
ATOM     10  C   UNL     1      -1.161 -13.571  -6.211  0.00  0.00    +0.000 C 
ATOM     11  H   UNL     1      -0.533 -14.456  -6.367  0.00  0.00    +0.000 HD
BRANCH  10  12
ATOM     12  C   UNL     1      -0.404 -12.540  -5.385  0.00  0.00    +0.000 C 
ATOM     13  H   UNL     1       0.055 -11.779  -6.023  0.00  0.00    +0.000 HD
ATOM     14  H   UNL     1      -1.070 -12.046  -4.669  0.00  0.00    +0.000 HD
ATOM     15  H   UNL     1       0.384 -13.024  -4.798  0.00  0.00    +0.000 HD
ENDBRANCH  10  12
BRANCH  10  16
ATOM     16  O   UNL     1      -2.322 -13.976  -5.490  0.00  0.00    +0.000 OA
ATOM     17  H   UNL     1      -2.034 -14.586  -4.790  0.00  0.00    +0.000 HD
ENDBRANCH  10  16
ENDBRANCH   7  10
ENDBRANCH   4   7
ENDBRANCH   1   4
BRANCH   1  18
ATOM     18  C   UNL     1      -1.168 -13.750 -10.107  0.00  0.00    +0.000 C 
ATOM     19  H   UNL     1      -0.597 -14.612  -9.742  0.00  0.00    +0.000 HD
ATOM     20  H   UNL     1      -2.135 -13.768  -9.592  0.00  0.00    +0.000 HD
BRANCH  18  21
ATOM     21  C   UNL     1      -1.404 -13.917 -11.612  0.00  0.00    +0.000 C 
ATOM     22  H   UNL     1      -1.849 -12.993 -12.003  0.00  0.00    +0.000 HD
ATOM     23  H   UNL     1      -2.152 -14.707 -11.762  0.00  0.00    +0.000 HD
BRANCH  21  24
ATOM     24  C   UNL     1      -0.166 -14.256 -12.446  0.00  0.00    +0.000 C 
ATOM     25  H   UNL     1       0.610 -14.668 -11.789  0.00  0.00    +0.000 HD
ATOM     26  H   UNL     1      -0.421 -15.042 -13.167  0.00  0.00    +0.000 HD
BRANCH  24  27
ATOM     27  C   UNL     1       0.405 -13.065 -13.200  0.00  0.00    +0.000 C 
ATOM     28  H   UNL     1      -0.356 -12.287 -13.315  0.00  0.00    +0.000 HD
ATOM     29  H   UNL     1       0.743 -13.362 -14.198  0.00  0.00    +0.000 HD
ATOM     30  H   UNL     1       1.256 -12.636 -12.663  0.00  0.00    +0.000 HD
ENDBRANCH  24  27
ENDBRANCH  21  24
ENDBRANCH  18  21
ENDBRANCH   1  18
TORSDOF 9
ENDMDL
MODEL 2
REMARK VINA RESULT:    -4.180      2.547      5.472
REMARK INTER + INTRA:          -6.383
REMARK INTER:                  -6.067
REMARK INTRA:                  -0.316
REMARK UNBOUND:                -0.370
REMARK  Name = 12367
REMARK  9 active torsions:
REMARK  status: ('A' for Active; 'I' for Inactive)
REMARK    1  A    between atoms: O_1  and  C_7
REMARK    2  A    between atoms: C_2  and  C_3
REMARK    3  A    between atoms: C_2  and  C_4
REMARK    4  A    between atoms: C_3  and  C_5
REMARK    5  A    between atoms: C_4  and  C_6
REMARK    6  A    between atoms: C_5  and  C_7
REMARK    7  A    between atoms: C_6  and  C_8
REMARK    8  A    between atoms: C_7  and  C_9
REMARK    9  A    between atoms: C_8  and  C_10
REMARK                            x       y       z     vdW  Elec       q    Type
REMARK                         _______ _______ _______ _____ _____    ______ ____
ROOT
ATOM      1  C   UNL     1      -0.382 -12.139  -9.390  0.00  0.00    +0.000 C 
ATOM      2  H   UNL     1       0.700 -12.061  -9.555  0.00  0.00    +0.000 HD
ATOM      3  H   UNL     1      -0.827 -11.186  -9.704  0.00  0.00    +0.000 HD
ENDROOT
BRANCH   1   4
ATOM      4  C   UNL     1      -0.954 -13.277 -10.239  0.00  0.00    +0.000 C 
ATOM      5  H   UNL     1      -2.023 -13.105 -10.415  0.00  0.00    +0.000 HD
ATOM      6  H   UNL     1      -0.865 -14.217  -9.681  0.00  0.00    +0.000 HD
BRANCH   4   7
ATOM      7  C   UNL     1      -0.225 -13.390 -11.582  0.00  0.00    +0.000 C 
ATOM      8  H   UNL     1      -0.314 -12.445 -12.132  0.00  0.00    +0.000 HD
ATOM      9  H   UNL     1       0.841 -13.557 -11.384  0.00  0.00    +0.000 HD
BRANCH   7  10
ATOM     10  C   UNL     1      -0.766 -14.539 -12.437  0.00  0.00    +0.000 C 
ATOM     11  H   UNL     1      -0.053 -14.775 -13.235  0.00  0.00    +0.000 HD
BRANCH  10  12
ATOM     12  C   UNL     1      -1.027 -15.779 -11.595  0.00  0.00    +0.000 C 
ATOM     13  H   UNL     1      -1.322 -15.513 -10.575  0.00  0.00    +0.000 HD
ATOM     14  H   UNL     1      -1.816 -16.397 -12.040  0.00  0.00    +0.000 HD
ATOM     15  H   UNL     1      -0.130 -16.405 -11.546  0.00  0.00    +0.000 HD
ENDBRANCH  10  12
BRANCH  10  16
ATOM     16  O   UNL     1      -1.988 -14.131 -13.048  0.00  0.00    +0.000 OA
ATOM     17  H   UNL     1      -2.070 -14.611 -13.889  0.00  0.00    +0.000 HD
ENDBRANCH  10  16
ENDBRANCH   7  10
ENDBRANCH   4   7
ENDBRANCH   1   4
BRANCH   1  18
ATOM     18  C   UNL     1      -0.654 -12.367  -7.902  0.00  0.00    +0.000 C 
ATOM     19  H   UNL     1       0.298 -12.473  -7.370  0.00  0.00    +0.000 HD
ATOM     20  H   UNL     1      -1.153 -11.483  -7.486  0.00  0.00    +0.000 HD
BRANCH  18  21
ATOM     21  C   UNL     1      -1.516 -13.602  -7.622  0.00  0.00    +0.000 C 
ATOM     22  H   UNL     1      -1.159 -14.430  -8.248  0.00  0.00    +0.000 HD
ATOM     23  H   UNL     1      -2.543 -13.390  -7.948  0.00  0.00    +0.000 HD
BRANCH  21  24
ATOM     24  C   UNL     1      -1.555 -14.070  -6.166  0.00  0.00    +0.000 C 
ATOM     25  H   UNL     1      -2.591 -14.040  -5.805  0.00  0.00    +0.000 HD
ATOM     26  H   UNL     1      -1.232 -15.116  -6.114  0.00  0.00    +0.000 HD
BRANCH  24  27
ATOM     27  C   UNL     1      -0.683 -13.240  -5.236  0.00  0.00    +0.000 C 
ATOM     28  H   UNL     1      -1.143 -13.169  -4.246  0.00  0.00    +0.000 HD
ATOM     29  H   UNL     1      -0.553 -12.226  -5.626  0.00  0.00    +0.000 HD
ATOM     30  H   UNL     1       0.306 -13.694  -5.122  0.00  0.00    +0.000 HD
ENDBRANCH  24  27
ENDBRANCH  21  24
ENDBRANCH  18  21
ENDBRANCH   1  18
TORSDOF 9
ENDMDL
MODEL 3
REMARK VINA RESULT:    -4.130      2.980      5.736
REMARK INTER + INTRA:          -6.310
REMARK INTER:                  -5.958
REMARK INTRA:                  -0.352
REMARK UNBOUND:                -0.370
REMARK  Name = 12367
REMARK  9 active torsions:
REMARK  status: ('A' for Active; 'I' for Inactive)
REMARK    1  A    between atoms: O_1  and  C_7
REMARK    2  A    between atoms: C_2  and  C_3
REMARK    3  A    between atoms: C_2  and  C_4
REMARK    4  A    between atoms: C_3  and  C_5
REMARK    5  A    between atoms: C_4  and  C_6
REMARK    6  A    between atoms: C_5  and  C_7
REMARK    7  A    between atoms: C_6  and  C_8
REMARK    8  A    between atoms: C_7  and  C_9
REMARK    9  A    between atoms: C_8  and  C_10
REMARK                            x       y       z     vdW  Elec       q    Type
REMARK                         _______ _______ _______ _____ _____    ______ ____
ROOT
ATOM      1  C   UNL     1      -0.358 -12.872 -10.297  0.00  0.00    +0.000 C 
ATOM      2  H   UNL     1       0.488 -13.432  -9.879  0.00  0.00    +0.000 HD
ATOM      3  H   UNL     1       0.058 -12.115 -10.972  0.00  0.00    +0.000 HD
ENDROOT
BRANCH   1   4
ATOM      4  C   UNL     1      -1.268 -13.818 -11.083  0.00  0.00    +0.000 C 
ATOM      5  H   UNL     1      -2.256 -13.358 -11.212  0.00  0.00    +0.000 HD
ATOM      6  H   UNL     1      -1.413 -14.737 -10.504  0.00  0.00    +0.000 HD
BRANCH   4   7
ATOM      7  C   UNL     1      -0.675 -14.148 -12.456  0.00  0.00    +0.000 C 
ATOM      8  H   UNL     1      -0.550 -15.234 -12.554  0.00  0.00    +0.000 HD
ATOM      9  H   UNL     1      -1.387 -13.829 -13.227  0.00  0.00    +0.000 HD
BRANCH   7  10
ATOM     10  C   UNL     1       0.668 -13.450 -12.688  0.00  0.00    +0.000 C 
ATOM     11  H   UNL     1       0.900 -12.799 -11.838  0.00  0.00    +0.000 HD
BRANCH  10  12
ATOM     12  C   UNL     1       1.789 -14.462 -12.884  0.00  0.00    +0.000 C 
ATOM     13  H   UNL     1       1.665 -15.017 -13.819  0.00  0.00    +0.000 HD
ATOM     14  H   UNL     1       2.767 -13.966 -12.896  0.00  0.00    +0.000 HD
ATOM     15  H   UNL     1       1.810 -15.176 -12.054  0.00  0.00    +0.000 HD
ENDBRANCH  10  12
BRANCH  10  16
ATOM     16  O   UNL     1       0.576 -12.635 -13.854  0.00  0.00    +0.000 OA
ATOM     17  H   UNL     1       0.178 -11.788 -13.589  0.00  0.00    +0.000 HD
ENDBRANCH  10  16
ENDBRANCH   7  10
ENDBRANCH   4   7
ENDBRANCH   1   4
BRANCH   1  18
ATOM     18  C   UNL     1      -1.121 -12.184  -9.163  0.00  0.00    +0.000 C 
ATOM     19  H   UNL     1      -1.360 -11.155  -9.457  0.00  0.00    +0.000 HD
ATOM     20  H   UNL     1      -2.075 -12.699  -9.004  0.00  0.00    +0.000 HD
BRANCH  18  21
ATOM     21  C   UNL     1      -0.348 -12.151  -7.840  0.00  0.00    +0.000 C 
ATOM     22  H   UNL     1      -0.190 -11.105  -7.550  0.00  0.00    +0.000 HD
ATOM     23  H   UNL     1       0.650 -12.578  -8.009  0.00  0.00    +0.000 HD
BRANCH  21  24
ATOM     24  C   UNL     1      -1.001 -12.891  -6.670  0.00  0.00    +0.000 C 
ATOM     25  H   UNL     1      -0.238 -13.115  -5.914  0.00  0.00    +0.000 HD
ATOM     26  H   UNL     1      -1.737 -12.233  -6.193  0.00  0.00    +0.000 HD
BRANCH  24  27
ATOM     27  C   UNL     1      -1.690 -14.184  -7.076  0.00  0.00    +0.000 C 
ATOM     28  H   UNL     1      -1.985 -14.753  -6.188  0.00  0.00    +0.000 HD
ATOM     29  H   UNL     1      -1.022 -14.811  -7.676  0.00  0.00    +0.000 HD
ATOM     30  H   UNL     1      -2.589 -13.979  -7.666  0.00  0.00    +0.000 HD
ENDBRANCH  24  27
ENDBRANCH  21  24
ENDBRANCH  18  21
ENDBRANCH   1  18
TORSDOF 9
ENDMDL
MODEL 4
REMARK VINA RESULT:    -4.052      1.830      2.459
REMARK INTER + INTRA:          -6.198
REMARK INTER:                  -5.933
REMARK INTRA:                  -0.265
REMARK UNBOUND:                -0.370
REMARK  Name = 12367
REMARK  9 active torsions:
REMARK  status: ('A' for Active; 'I' for Inactive)
REMARK    1  A    between atoms: O_1  and  C_7
REMARK    2  A    between atoms: C_2  and  C_3
REMARK    3  A    between atoms: C_2  and  C_4
REMARK    4  A    between atoms: C_3  and  C_5
REMARK    5  A    between atoms: C_4  and  C_6
REMARK    6  A    between atoms: C_5  and  C_7
REMARK    7  A    between atoms: C_6  and  C_8
REMARK    8  A    between atoms: C_7  and  C_9
REMARK    9  A    between atoms: C_8  and  C_10
REMARK                            x       y       z     vdW  Elec       q    Type
REMARK                         _______ _______ _______ _____ _____    ______ ____
ROOT
ATOM      1  C   UNL     1      -1.854 -13.713 -10.532  0.00  0.00    +0.000 C 
ATOM      2  H   UNL     1      -2.606 -14.498 -10.678  0.00  0.00    +0.000 HD
ATOM      3  H   UNL     1      -2.385 -12.753 -10.535  0.00  0.00    +0.000 HD
ENDROOT
BRANCH   1   4
ATOM      4  C   UNL     1      -1.156 -13.910  -9.185  0.00  0.00    +0.000 C 
ATOM      5  H   UNL     1      -0.352 -14.650  -9.290  0.00  0.00    +0.000 HD
ATOM      6  H   UNL     1      -1.877 -14.314  -8.465  0.00  0.00    +0.000 HD
BRANCH   4   7
ATOM      7  C   UNL     1      -0.572 -12.593  -8.663  0.00  0.00    +0.000 C 
ATOM      8  H   UNL     1       0.519 -12.601  -8.774  0.00  0.00    +0.000 HD
ATOM      9  H   UNL     1      -0.959 -11.773  -9.283  0.00  0.00    +0.000 HD
BRANCH   7  10
ATOM     10  C   UNL     1      -0.941 -12.337  -7.199  0.00  0.00    +0.000 C 
ATOM     11  H   UNL     1      -1.760 -11.610  -7.144  0.00  0.00    +0.000 HD
BRANCH  10  12
ATOM     12  C   UNL     1      -1.349 -13.627  -6.500  0.00  0.00    +0.000 C 
ATOM     13  H   UNL     1      -0.498 -14.088  -5.989  0.00  0.00    +0.000 HD
ATOM     14  H   UNL     1      -2.142 -13.441  -5.766  0.00  0.00    +0.000 HD
ATOM     15  H   UNL     1      -1.753 -14.344  -7.223  0.00  0.00    +0.000 HD
ENDBRANCH  10  12
BRANCH  10  16
ATOM     16  O   UNL     1       0.185 -11.783  -6.523  0.00  0.00    +0.000 OA
ATOM     17  H   UNL     1      -0.089 -11.583  -5.612  0.00  0.00    +0.000 HD
ENDBRANCH  10  16
ENDBRANCH   7  10
ENDBRANCH   4   7
ENDBRANCH   1   4
BRANCH   1  18
ATOM     18  C   UNL     1      -0.851 -13.748 -11.687  0.00  0.00    +0.000 C 
ATOM     19  H   UNL     1      -0.841 -12.775 -12.191  0.00  0.00    +0.000 HD
ATOM     20  H   UNL     1       0.157 -13.908 -11.287  0.00  0.00    +0.000 HD
BRANCH  18  21
ATOM     21  C   UNL     1      -1.152 -14.837 -12.723  0.00  0.00    +0.000 C 
ATOM     22  H   UNL     1      -0.526 -14.664 -13.607  0.00  0.00    +0.000 HD
ATOM     23  H   UNL     1      -2.193 -14.723 -13.055  0.00  0.00    +0.000 HD
BRANCH  21  24
ATOM     24  C   UNL     1      -0.948 -16.278 -12.251  0.00  0.00    +0.000 C 
ATOM     25  H   UNL     1       0.127 -16.488 -12.187  0.00  0.00    +0.000 HD
ATOM     26  H   UNL     1      -1.353 -16.387 -11.238  0.00  0.00    +0.000 HD
BRANCH  24  27
ATOM     27  C   UNL     1      -1.601 -17.313 -13.154  0.00  0.00    +0.000 C 
ATOM     28  H   UNL     1      -0.883 -18.098 -13.414  0.00  0.00    +0.000 HD
ATOM     29  H   UNL     1      -1.954 -16.853 -14.082  0.00  0.00    +0.000 HD
ATOM     30  H   UNL     1      -2.455 -17.782 -12.656  0.00  0.00    +0.000 HD
ENDBRANCH  24  27
ENDBRANCH  21  24
ENDBRANCH  18  21
ENDBRANCH   1  18
TORSDOF 9
ENDMDL
MODEL 5
REMARK VINA RESULT:    -3.727      2.323      4.704
REMARK INTER + INTRA:          -5.731
REMARK INTER:                  -5.178
REMARK INTRA:                  -0.553
REMARK UNBOUND:                -0.370
REMARK  Name = 12367
REMARK  9 active torsions:
REMARK  status: ('A' for Active; 'I' for Inactive)
REMARK    1  A    between atoms: O_1  and  C_7
REMARK    2  A    between atoms: C_2  and  C_3
REMARK    3  A    between atoms: C_2  and  C_4
REMARK    4  A    between atoms: C_3  and  C_5
REMARK    5  A    between atoms: C_4  and  C_6
REMARK    6  A    between atoms: C_5  and  C_7
REMARK    7  A    between atoms: C_6  and  C_8
REMARK    8  A    between atoms: C_7  and  C_9
REMARK    9  A    between atoms: C_8  and  C_10
REMARK                            x       y       z     vdW  Elec       q    Type
REMARK                         _______ _______ _______ _____ _____    ______ ____
ROOT
ATOM      1  C   UNL     1      -0.765 -12.880  -9.566  0.00  0.00    +0.000 C 
ATOM      2  H   UNL     1       0.321 -13.020  -9.492  0.00  0.00    +0.000 HD
ATOM      3  H   UNL     1      -0.936 -12.018 -10.222  0.00  0.00    +0.000 HD
ENDROOT
BRANCH   1   4
ATOM      4  C   UNL     1      -1.407 -14.127 -10.178  0.00  0.00    +0.000 C 
ATOM      5  H   UNL     1      -0.640 -14.726 -10.687  0.00  0.00    +0.000 HD
ATOM      6  H   UNL     1      -2.133 -13.817 -10.939  0.00  0.00    +0.000 HD
BRANCH   4   7
ATOM      7  C   UNL     1      -2.096 -14.981  -9.109  0.00  0.00    +0.000 C 
ATOM      8  H   UNL     1      -1.993 -14.500  -8.129  0.00  0.00    +0.000 HD
ATOM      9  H   UNL     1      -3.167 -15.028  -9.342  0.00  0.00    +0.000 HD
BRANCH   7  10
ATOM     10  C   UNL     1      -1.529 -16.401  -9.049  0.00  0.00    +0.000 C 
ATOM     11  H   UNL     1      -0.671 -16.487  -9.726  0.00  0.00    +0.000 HD
BRANCH  10  12
ATOM     12  C   UNL     1      -1.107 -16.769  -7.633  0.00  0.00    +0.000 C 
ATOM     13  H   UNL     1      -1.924 -17.253  -7.088  0.00  0.00    +0.000 HD
ATOM     14  H   UNL     1      -0.243 -17.442  -7.644  0.00  0.00    +0.000 HD
ATOM     15  H   UNL     1      -0.801 -15.874  -7.080  0.00  0.00    +0.000 HD
ENDBRANCH  10  12
BRANCH  10  16
ATOM     16  O   UNL     1      -2.526 -17.322  -9.486  0.00  0.00    +0.000 OA
ATOM     17  H   UNL     1      -2.099 -18.188  -9.594  0.00  0.00    +0.000 HD
ENDBRANCH  10  16
ENDBRANCH   7  10
ENDBRANCH   4   7
ENDBRANCH   1   4
BRANCH   1  18
ATOM     18  C   UNL     1      -1.336 -12.589  -8.176  0.00  0.00    +0.000 C 
ATOM     19  H   UNL     1      -2.172 -11.886  -8.267  0.00  0.00    +0.000 HD
ATOM     20  H   UNL     1      -1.743 -13.514  -7.751  0.00  0.00    +0.000 HD
BRANCH  18  21
ATOM     21  C   UNL     1      -0.305 -12.007  -7.204  0.00  0.00    +0.000 C 
ATOM     22  H   UNL     1      -0.380 -10.913  -7.223  0.00  0.00    +0.000 HD
ATOM     23  H   UNL     1       0.700 -12.254  -7.573  0.00  0.00    +0.000 HD
BRANCH  21  24
ATOM     24  C   UNL     1      -0.419 -12.481  -5.753  0.00  0.00    +0.000 C 
ATOM     25  H   UNL     1       0.574 -12.775  -5.390  0.00  0.00    +0.000 HD
ATOM     26  H   UNL     1      -0.750 -11.644  -5.126  0.00  0.00    +0.000 HD
BRANCH  24  27
ATOM     27  C   UNL     1      -1.380 -13.644  -5.565  0.00  0.00    +0.000 C 
ATOM     28  H   UNL     1      -1.931 -13.835  -6.491  0.00  0.00    +0.000 HD
ATOM     29  H   UNL     1      -2.106 -13.426  -4.775  0.00  0.00    +0.000 HD
ATOM     30  H   UNL     1      -0.840 -14.556  -5.293  0.00  0.00    +0.000 HD
ENDBRANCH  24  27
ENDBRANCH  21  24
ENDBRANCH  18  21
ENDBRANCH   1  18
TORSDOF 9
ENDMDL
MODEL 6
REMARK VINA RESULT:    -3.720     21.376     23.685
REMARK INTER + INTRA:          -5.721
REMARK INTER:                  -5.525
REMARK INTRA:                  -0.196
REMARK UNBOUND:                -0.370
REMARK  Name = 12367
REMARK  9 active torsions:
REMARK  status: ('A' for Active; 'I' for Inactive)
REMARK    1  A    between atoms: O_1  and  C_7
REMARK    2  A    between atoms: C_2  and  C_3
REMARK    3  A    between atoms: C_2  and  C_4
REMARK    4  A    between atoms: C_3  and  C_5
REMARK    5  A    between atoms: C_4  and  C_6
REMARK    6  A    between atoms: C_5  and  C_7
REMARK    7  A    between atoms: C_6  and  C_8
REMARK    8  A    between atoms: C_7  and  C_9
REMARK    9  A    between atoms: C_8  and  C_10
REMARK                            x       y       z     vdW  Elec       q    Type
REMARK                         _______ _______ _______ _____ _____    ______ ____
ROOT
ATOM      1  C   UNL     1     -19.035 -12.606   5.226  0.00  0.00    +0.000 C 
ATOM      2  H   UNL     1     -19.974 -12.731   4.671  0.00  0.00    +0.000 HD
ATOM      3  H   UNL     1     -18.359 -13.406   4.900  0.00  0.00    +0.000 HD
ENDROOT
BRANCH   1   4
ATOM      4  C   UNL     1     -18.417 -11.245   4.898  0.00  0.00    +0.000 C 
ATOM      5  H   UNL     1     -18.173 -10.716   5.828  0.00  0.00    +0.000 HD
ATOM      6  H   UNL     1     -19.157 -10.636   4.364  0.00  0.00    +0.000 HD
BRANCH   4   7
ATOM      7  C   UNL     1     -17.151 -11.399   4.049  0.00  0.00    +0.000 C 
ATOM      8  H   UNL     1     -16.265 -11.362   4.695  0.00  0.00    +0.000 HD
ATOM      9  H   UNL     1     -17.171 -12.389   3.575  0.00  0.00    +0.000 HD
BRANCH   7  10
ATOM     10  C   UNL     1     -17.047 -10.322   2.967  0.00  0.00    +0.000 C 
ATOM     11  H   UNL     1     -17.471 -10.696   2.028  0.00  0.00    +0.000 HD
BRANCH  10  12
ATOM     12  C   UNL     1     -17.767  -9.047   3.385  0.00  0.00    +0.000 C 
ATOM     13  H   UNL     1     -18.342  -8.625   2.556  0.00  0.00    +0.000 HD
ATOM     14  H   UNL     1     -18.446  -9.238   4.224  0.00  0.00    +0.000 HD
ATOM     15  H   UNL     1     -17.048  -8.296   3.729  0.00  0.00    +0.000 HD
ENDBRANCH  10  12
BRANCH  10  16
ATOM     16  O   UNL     1     -15.672 -10.020   2.738  0.00  0.00    +0.000 OA
ATOM     17  H   UNL     1     -15.611  -9.555   1.887  0.00  0.00    +0.000 HD
ENDBRANCH  10  16
ENDBRANCH   7  10
ENDBRANCH   4   7
ENDBRANCH   1   4
BRANCH   1  18
ATOM     18  C   UNL     1     -19.309 -12.744   6.725  0.00  0.00    +0.000 C 
ATOM     19  H   UNL     1     -19.208 -13.796   7.018  0.00  0.00    +0.000 HD
ATOM     20  H   UNL     1     -18.550 -12.185   7.284  0.00  0.00    +0.000 HD
BRANCH  18  21
ATOM     21  C   UNL     1     -20.697 -12.247   7.139  0.00  0.00    +0.000 C 
ATOM     22  H   UNL     1     -20.978 -11.406   6.492  0.00  0.00    +0.000 HD
ATOM     23  H   UNL     1     -20.633 -11.843   8.158  0.00  0.00    +0.000 HD
BRANCH  21  24
ATOM     24  C   UNL     1     -21.817 -13.289   7.100  0.00  0.00    +0.000 C 
ATOM     25  H   UNL     1     -21.721 -13.886   6.184  0.00  0.00    +0.000 HD
ATOM     26  H   UNL     1     -21.695 -13.980   7.943  0.00  0.00    +0.000 HD
BRANCH  24  27
ATOM     27  C   UNL     1     -23.212 -12.688   7.156  0.00  0.00    +0.000 C 
ATOM     28  H   UNL     1     -23.604 -12.540   6.145  0.00  0.00    +0.000 HD
ATOM     29  H   UNL     1     -23.198 -11.717   7.662  0.00  0.00    +0.000 HD
ATOM     30  H   UNL     1     -23.899 -13.346   7.697  0.00  0.00    +0.000 HD
ENDBRANCH  24  27
ENDBRANCH  21  24
ENDBRANCH  18  21
ENDBRANCH   1  18
TORSDOF 9
ENDMDL
MODEL 7
REMARK VINA RESULT:    -3.689     18.465     19.576
REMARK INTER + INTRA:          -5.677
REMARK INTER:                  -5.305
REMARK INTRA:                  -0.372
REMARK UNBOUND:                -0.370
REMARK  Name = 12367
REMARK  9 active torsions:
REMARK  status: ('A' for Active; 'I' for Inactive)
REMARK    1  A    between atoms: O_1  and  C_7
REMARK    2  A    between atoms: C_2  and  C_3
REMARK    3  A    between atoms: C_2  and  C_4
REMARK    4  A    between atoms: C_3  and  C_5
REMARK    5  A    between atoms: C_4  and  C_6
REMARK    6  A    between atoms: C_5  and  C_7
REMARK    7  A    between atoms: C_6  and  C_8
REMARK    8  A    between atoms: C_7  and  C_9
REMARK    9  A    between atoms: C_8  and  C_10
REMARK                            x       y       z     vdW  Elec       q    Type
REMARK                         _______ _______ _______ _____ _____    ______ ____
ROOT
ATOM      1  C   UNL     1     -16.452 -10.203  -0.165  0.00  0.00    +0.000 C 
ATOM      2  H   UNL     1     -15.436 -10.612  -0.106  0.00  0.00    +0.000 HD
ATOM      3  H   UNL     1     -17.094 -10.841   0.455  0.00  0.00    +0.000 HD
ENDROOT
BRANCH   1   4
ATOM      4  C   UNL     1     -16.467  -8.774   0.382  0.00  0.00    +0.000 C 
ATOM      5  H   UNL     1     -17.434  -8.303   0.160  0.00  0.00    +0.000 HD
ATOM      6  H   UNL     1     -15.696  -8.187  -0.132  0.00  0.00    +0.000 HD
BRANCH   4   7
ATOM      7  C   UNL     1     -16.223  -8.754   1.894  0.00  0.00    +0.000 C 
ATOM      8  H   UNL     1     -15.183  -9.029   2.105  0.00  0.00    +0.000 HD
ATOM      9  H   UNL     1     -16.372  -7.728   2.255  0.00  0.00    +0.000 HD
BRANCH   7  10
ATOM     10  C   UNL     1     -17.169  -9.695   2.645  0.00  0.00    +0.000 C 
ATOM     11  H   UNL     1     -17.820 -10.214   1.931  0.00  0.00    +0.000 HD
BRANCH  10  12
ATOM     12  C   UNL     1     -16.394 -10.713   3.470  0.00  0.00    +0.000 C 
ATOM     13  H   UNL     1     -15.621 -11.205   2.872  0.00  0.00    +0.000 HD
ATOM     14  H   UNL     1     -15.920 -10.237   4.336  0.00  0.00    +0.000 HD
ATOM     15  H   UNL     1     -17.070 -11.480   3.865  0.00  0.00    +0.000 HD
ENDBRANCH  10  12
BRANCH  10  16
ATOM     16  O   UNL     1     -17.996  -8.929   3.517  0.00  0.00    +0.000 OA
ATOM     17  H   UNL     1     -17.430  -8.579   4.225  0.00  0.00    +0.000 HD
ENDBRANCH  10  16
ENDBRANCH   7  10
ENDBRANCH   4   7
ENDBRANCH   1   4
BRANCH   1  18
ATOM     18  C   UNL     1     -16.934 -10.247  -1.616  0.00  0.00    +0.000 C 
ATOM     19  H   UNL     1     -16.069 -10.207  -2.289  0.00  0.00    +0.000 HD
ATOM     20  H   UNL     1     -17.437 -11.203  -1.802  0.00  0.00    +0.000 HD
BRANCH  18  21
ATOM     21  C   UNL     1     -17.891  -9.105  -1.975  0.00  0.00    +0.000 C 
ATOM     22  H   UNL     1     -17.447  -8.517  -2.789  0.00  0.00    +0.000 HD
ATOM     23  H   UNL     1     -17.965  -8.429  -1.113  0.00  0.00    +0.000 HD
BRANCH  21  24
ATOM     24  C   UNL     1     -19.303  -9.525  -2.387  0.00  0.00    +0.000 C 
ATOM     25  H   UNL     1     -19.905  -8.628  -2.578  0.00  0.00    +0.000 HD
ATOM     26  H   UNL     1     -19.253 -10.080  -3.332  0.00  0.00    +0.000 HD
BRANCH  24  27
ATOM     27  C   UNL     1     -20.010 -10.384  -1.350  0.00  0.00    +0.000 C 
ATOM     28  H   UNL     1     -19.336 -10.608  -0.518  0.00  0.00    +0.000 HD
ATOM     29  H   UNL     1     -20.337 -11.333  -1.788  0.00  0.00    +0.000 HD
ATOM     30  H   UNL     1     -20.889  -9.869  -0.951  0.00  0.00    +0.000 HD
ENDBRANCH  24  27
ENDBRANCH  21  24
ENDBRANCH  18  21
ENDBRANCH   1  18
TORSDOF 9
ENDMDL
MODEL 8
REMARK VINA RESULT:    -3.685     28.552     30.034
REMARK INTER + INTRA:          -5.670
REMARK INTER:                  -5.437
REMARK INTRA:                  -0.233
REMARK UNBOUND:                -0.370
REMARK  Name = 12367
REMARK  9 active torsions:
REMARK  status: ('A' for Active; 'I' for Inactive)
REMARK    1  A    between atoms: O_1  and  C_7
REMARK    2  A    between atoms: C_2  and  C_3
REMARK    3  A    between atoms: C_2  and  C_4
REMARK    4  A    between atoms: C_3  and  C_5
REMARK    5  A    between atoms: C_4  and  C_6
REMARK    6  A    between atoms: C_5  and  C_7
REMARK    7  A    between atoms: C_6  and  C_8
REMARK    8  A    between atoms: C_7  and  C_9
REMARK    9  A    between atoms: C_8  and  C_10
REMARK                            x       y       z     vdW  Elec       q    Type
REMARK                         _______ _______ _______ _____ _____    ______ ____
ROOT
ATOM      1  C   UNL     1       0.692  -7.269  20.631  0.00  0.00    +0.000 C 
ATOM      2  H   UNL     1       0.707  -7.934  19.758  0.00  0.00    +0.000 HD
ATOM      3  H   UNL     1       0.968  -7.874  21.503  0.00  0.00    +0.000 HD
ENDROOT
BRANCH   1   4
ATOM      4  C   UNL     1       1.713  -6.145  20.442  0.00  0.00    +0.000 C 
ATOM      5  H   UNL     1       2.581  -6.321  21.090  0.00  0.00    +0.000 HD
ATOM      6  H   UNL     1       1.262  -5.196  20.756  0.00  0.00    +0.000 HD
BRANCH   4   7
ATOM      7  C   UNL     1       2.175  -6.051  18.984  0.00  0.00    +0.000 C 
ATOM      8  H   UNL     1       2.688  -6.977  18.698  0.00  0.00    +0.000 HD
ATOM      9  H   UNL     1       1.287  -5.956  18.346  0.00  0.00    +0.000 HD
BRANCH   7  10
ATOM     10  C   UNL     1       3.099  -4.854  18.746  0.00  0.00    +0.000 C 
ATOM     11  H   UNL     1       4.144  -5.185  18.751  0.00  0.00    +0.000 HD
BRANCH  10  12
ATOM     12  C   UNL     1       2.782  -4.165  17.426  0.00  0.00    +0.000 C 
ATOM     13  H   UNL     1       2.854  -3.077  17.517  0.00  0.00    +0.000 HD
ATOM     14  H   UNL     1       3.465  -4.498  16.636  0.00  0.00    +0.000 HD
ATOM     15  H   UNL     1       1.770  -4.421  17.093  0.00  0.00    +0.000 HD
ENDBRANCH  10  12
BRANCH  10  16
ATOM     16  O   UNL     1       2.930  -3.916  19.806  0.00  0.00    +0.000 OA
ATOM     17  H   UNL     1       3.705  -3.989  20.389  0.00  0.00    +0.000 HD
ENDBRANCH  10  16
ENDBRANCH   7  10
ENDBRANCH   4   7
ENDBRANCH   1   4
BRANCH   1  18
ATOM     18  C   UNL     1      -0.719  -6.710  20.821  0.00  0.00    +0.000 C 
ATOM     19  H   UNL     1      -0.754  -6.114  21.740  0.00  0.00    +0.000 HD
ATOM     20  H   UNL     1      -0.953  -6.029  19.993  0.00  0.00    +0.000 HD
BRANCH  18  21
ATOM     21  C   UNL     1      -1.800  -7.793  20.893  0.00  0.00    +0.000 C 
ATOM     22  H   UNL     1      -2.458  -7.693  20.020  0.00  0.00    +0.000 HD
ATOM     23  H   UNL     1      -2.426  -7.603  21.774  0.00  0.00    +0.000 HD
BRANCH  21  24
ATOM     24  C   UNL     1      -1.292  -9.235  20.960  0.00  0.00    +0.000 C 
ATOM     25  H   UNL     1      -0.199  -9.238  20.862  0.00  0.00    +0.000 HD
ATOM     26  H   UNL     1      -1.523  -9.654  21.947  0.00  0.00    +0.000 HD
BRANCH  24  27
ATOM     27  C   UNL     1      -1.886 -10.141  19.892  0.00  0.00    +0.000 C 
ATOM     28  H   UNL     1      -2.979 -10.098  19.922  0.00  0.00    +0.000 HD
ATOM     29  H   UNL     1      -1.580 -11.180  20.048  0.00  0.00    +0.000 HD
ATOM     30  H   UNL     1      -1.559  -9.833  18.894  0.00  0.00    +0.000 HD
ENDBRANCH  24  27
ENDBRANCH  21  24
ENDBRANCH  18  21
ENDBRANCH   1  18
TORSDOF 9
ENDMDL
MODEL 9
REMARK VINA RESULT:    -3.665     17.144     19.216
REMARK INTER + INTRA:          -5.642
REMARK INTER:                  -5.272
REMARK INTRA:                  -0.370
REMARK UNBOUND:                -0.370
REMARK  Name = 12367
REMARK  9 active torsions:
REMARK  status: ('A' for Active; 'I' for Inactive)
REMARK    1  A    between atoms: O_1  and  C_7
REMARK    2  A    between atoms: C_2  and  C_3
REMARK    3  A    between atoms: C_2  and  C_4
REMARK    4  A    between atoms: C_3  and  C_5
REMARK    5  A    between atoms: C_4  and  C_6
REMARK    6  A    between atoms: C_5  and  C_7
REMARK    7  A    between atoms: C_6  and  C_8
REMARK    8  A    between atoms: C_7  and  C_9
REMARK    9  A    between atoms: C_8  and  C_10
REMARK                            x       y       z     vdW  Elec       q    Type
REMARK                         _______ _______ _______ _____ _____    ______ ____
ROOT
ATOM      1  C   UNL     1     -16.247  -9.654  -0.233  0.00  0.00    +0.000 C 
ATOM      2  H   UNL     1     -16.001 -10.619   0.226  0.00  0.00    +0.000 HD
ATOM      3  H   UNL     1     -15.438  -9.412  -0.932  0.00  0.00    +0.000 HD
ENDROOT
BRANCH   1   4
ATOM      4  C   UNL     1     -17.569  -9.765  -0.995  0.00  0.00    +0.000 C 
ATOM      5  H   UNL     1     -18.227  -8.931  -0.719  0.00  0.00    +0.000 HD
ATOM      6  H   UNL     1     -18.076 -10.690  -0.697  0.00  0.00    +0.000 HD
BRANCH   4   7
ATOM      7  C   UNL     1     -17.340  -9.755  -2.510  0.00  0.00    +0.000 C 
ATOM      8  H   UNL     1     -18.242 -10.112  -3.023  0.00  0.00    +0.000 HD
ATOM      9  H   UNL     1     -17.169  -8.719  -2.828  0.00  0.00    +0.000 HD
BRANCH   7  10
ATOM     10  C   UNL     1     -16.140 -10.613  -2.919  0.00  0.00    +0.000 C 
ATOM     11  H   UNL     1     -15.414 -10.651  -2.098  0.00  0.00    +0.000 HD
BRANCH  10  12
ATOM     12  C   UNL     1     -16.571 -12.025  -3.292  0.00  0.00    +0.000 C 
ATOM     13  H   UNL     1     -16.242 -12.752  -2.543  0.00  0.00    +0.000 HD
ATOM     14  H   UNL     1     -17.661 -12.088  -3.390  0.00  0.00    +0.000 HD
ATOM     15  H   UNL     1     -16.152 -12.310  -4.263  0.00  0.00    +0.000 HD
ENDBRANCH  10  12
BRANCH  10  16
ATOM     16  O   UNL     1     -15.499 -10.016  -4.043  0.00  0.00    +0.000 OA
ATOM     17  H   UNL     1     -15.040  -9.218  -3.730  0.00  0.00    +0.000 HD
ENDBRANCH  10  16
ENDBRANCH   7  10
ENDBRANCH   4   7
ENDBRANCH   1   4
BRANCH   1  18
ATOM     18  C   UNL     1     -16.323  -8.579   0.854  0.00  0.00    +0.000 C 
ATOM     19  H   UNL     1     -15.489  -7.879   0.733  0.00  0.00    +0.000 HD
ATOM     20  H   UNL     1     -17.245  -8.000   0.726  0.00  0.00    +0.000 HD
BRANCH  18  21
ATOM     21  C   UNL     1     -16.288  -9.147   2.277  0.00  0.00    +0.000 C 
ATOM     22  H   UNL     1     -15.529  -8.604   2.854  0.00  0.00    +0.000 HD
ATOM     23  H   UNL     1     -15.948 -10.191   2.226  0.00  0.00    +0.000 HD
BRANCH  21  24
ATOM     24  C   UNL     1     -17.611  -9.103   3.044  0.00  0.00    +0.000 C 
ATOM     25  H   UNL     1     -17.412  -8.851   4.093  0.00  0.00    +0.000 HD
ATOM     26  H   UNL     1     -18.237  -8.299   2.638  0.00  0.00    +0.000 HD
BRANCH  24  27
ATOM     27  C   UNL     1     -18.391 -10.407   2.988  0.00  0.00    +0.000 C 
ATOM     28  H   UNL     1     -19.314 -10.324   3.570  0.00  0.00    +0.000 HD
ATOM     29  H   UNL     1     -17.802 -11.232   3.399  0.00  0.00    +0.000 HD
ATOM     30  H   UNL     1     -18.659 -10.658   1.957  0.00  0.00    +0.000 HD
ENDBRANCH  24  27
ENDBRANCH  21  24
ENDBRANCH  18  21
ENDBRANCH   1  18
TORSDOF 9
ENDMDL
MODEL 10
REMARK VINA RESULT:    -3.557      3.550      5.671
REMARK INTER + INTRA:          -5.486
REMARK INTER:                  -5.203
REMARK INTRA:                  -0.283
REMARK UNBOUND:                -0.370
REMARK  Name = 12367
REMARK  9 active torsions:
REMARK  status: ('A' for Active; 'I' for Inactive)
REMARK    1  A    between atoms: O_1  and  C_7
REMARK    2  A    between atoms: C_2  and  C_3
REMARK    3  A    between atoms: C_2  and  C_4
REMARK    4  A    between atoms: C_3  and  C_5
REMARK    5  A    between atoms: C_4  and  C_6
REMARK    6  A    between atoms: C_5  and  C_7
REMARK    7  A    between atoms: C_6  and  C_8
REMARK    8  A    between atoms: C_7  and  C_9
REMARK    9  A    between atoms: C_8  and  C_10
REMARK                            x       y       z     vdW  Elec       q    Type
REMARK                         _______ _______ _______ _____ _____    ______ ____
ROOT
ATOM      1  C   UNL     1      -1.636 -15.049  -9.350  0.00  0.00    +0.000 C 
ATOM      2  H   UNL     1      -2.562 -14.986  -8.766  0.00  0.00    +0.000 HD
ATOM      3  H   UNL     1      -0.801 -15.017  -8.639  0.00  0.00    +0.000 HD
ENDROOT
BRANCH   1   4
ATOM      4  C   UNL     1      -1.601 -16.368 -10.125  0.00  0.00    +0.000 C 
ATOM      5  H   UNL     1      -2.600 -16.822 -10.128  0.00  0.00    +0.000 HD
ATOM      6  H   UNL     1      -0.929 -17.066  -9.611  0.00  0.00    +0.000 HD
BRANCH   4   7
ATOM      7  C   UNL     1      -1.132 -16.153 -11.568  0.00  0.00    +0.000 C 
ATOM      8  H   UNL     1      -1.796 -15.439 -12.071  0.00  0.00    +0.000 HD
ATOM      9  H   UNL     1      -0.129 -15.708 -11.544  0.00  0.00    +0.000 HD
BRANCH   7  10
ATOM     10  C   UNL     1      -1.085 -17.462 -12.361  0.00  0.00    +0.000 C 
ATOM     11  H   UNL     1      -0.049 -17.693 -12.634  0.00  0.00    +0.000 HD
BRANCH  10  12
ATOM     12  C   UNL     1      -1.677 -18.614 -11.561  0.00  0.00    +0.000 C 
ATOM     13  H   UNL     1      -2.677 -18.368 -11.190  0.00  0.00    +0.000 HD
ATOM     14  H   UNL     1      -1.741 -19.523 -12.170  0.00  0.00    +0.000 HD
ATOM     15  H   UNL     1      -1.037 -18.854 -10.705  0.00  0.00    +0.000 HD
ENDBRANCH  10  12
BRANCH  10  16
ATOM     16  O   UNL     1      -1.833 -17.306 -13.565  0.00  0.00    +0.000 OA
ATOM     17  H   UNL     1      -1.657 -18.083 -14.122  0.00  0.00    +0.000 HD
ENDBRANCH  10  16
ENDBRANCH   7  10
ENDBRANCH   4   7
ENDBRANCH   1   4
BRANCH   1  18
ATOM     18  C   UNL     1      -1.549 -13.848 -10.295  0.00  0.00    +0.000 C 
ATOM     19  H   UNL     1      -1.376 -14.202 -11.318  0.00  0.00    +0.000 HD
ATOM     20  H   UNL     1      -2.511 -13.322 -10.300  0.00  0.00    +0.000 HD
BRANCH  18  21
ATOM     21  C   UNL     1      -0.443 -12.856  -9.921  0.00  0.00    +0.000 C 
ATOM     22  H   UNL     1      -0.100 -12.352 -10.833  0.00  0.00    +0.000 HD
ATOM     23  H   UNL     1       0.417 -13.422  -9.539  0.00  0.00    +0.000 HD
BRANCH  21  24
ATOM     24  C   UNL     1      -0.824 -11.794  -8.887  0.00  0.00    +0.000 C 
ATOM     25  H   UNL     1      -0.320 -10.852  -9.136  0.00  0.00    +0.000 HD
ATOM     26  H   UNL     1      -1.902 -11.603  -8.947  0.00  0.00    +0.000 HD
BRANCH  24  27
ATOM     27  C   UNL     1      -0.473 -12.181  -7.459  0.00  0.00    +0.000 C 
ATOM     28  H   UNL     1       0.033 -11.353  -6.953  0.00  0.00    +0.000 HD
ATOM     29  H   UNL     1       0.195 -13.049  -7.443  0.00  0.00    +0.000 HD
ATOM     30  H   UNL     1      -1.374 -12.431  -6.890  0.00  0.00    +0.000 HD
ENDBRANCH  24  27
ENDBRANCH  21  24
ENDBRANCH  18  21
ENDBRANCH   1  18
TORSDOF 9
ENDMDL
