MODEL 1
REMARK VINA RESULT:    -4.199      0.000      0.000
REMARK INTER + INTRA:          -6.186
REMARK INTER:                  -5.758
REMARK INTRA:                  -0.428
REMARK UNBOUND:                -0.268
REMARK  Name = 13187
REMARK  8 active torsions:
REMARK  status: ('A' for Active; 'I' for Inactive)
REMARK    1  A    between atoms: C_2  and  C_3
REMARK    2  A    between atoms: C_2  and  C_4
REMARK    3  A    between atoms: C_3  and  C_5
REMARK    4  A    between atoms: C_4  and  C_6
REMARK    5  A    between atoms: C_5  and  C_7
REMARK    6  A    between atoms: C_6  and  C_8
REMARK    7  A    between atoms: C_7  and  C_9
REMARK    8  A    between atoms: C_9  and  C_10
REMARK                            x       y       z     vdW  Elec       q    Type
REMARK                         _______ _______ _______ _____ _____    ______ ____
ROOT
ATOM      1  C   UNL     1       0.006 -13.789 -12.713  0.00  0.00    +0.000 C 
ATOM      2  H   UNL     1      -0.217 -13.221 -13.624  0.00  0.00    +0.000 HD
ATOM      3  H   UNL     1       0.901 -14.390 -12.916  0.00  0.00    +0.000 HD
ENDROOT
BRANCH   1   4
ATOM      4  C   UNL     1       0.287 -12.825 -11.558  0.00  0.00    +0.000 C 
ATOM      5  H   UNL     1       0.233 -11.791 -11.921  0.00  0.00    +0.000 HD
ATOM      6  H   UNL     1       1.307 -12.985 -11.189  0.00  0.00    +0.000 HD
BRANCH   4   7
ATOM      7  C   UNL     1      -0.708 -13.022 -10.415  0.00  0.00    +0.000 C 
ATOM      8  H   UNL     1      -0.772 -14.087 -10.161  0.00  0.00    +0.000 HD
ATOM      9  H   UNL     1      -1.707 -12.706 -10.739  0.00  0.00    +0.000 HD
BRANCH   7  10
ATOM     10  C   UNL     1      -0.296 -12.227  -9.176  0.00  0.00    +0.000 C 
ATOM     11  H   UNL     1      -0.550 -11.170  -9.310  0.00  0.00    +0.000 HD
ATOM     12  H   UNL     1       0.791 -12.285  -9.041  0.00  0.00    +0.000 HD
BRANCH  10  13
ATOM     13  C   UNL     1      -0.983 -12.749  -7.924  0.00  0.00    +0.000 C 
ATOM     14  H   UNL     1      -1.399 -11.926  -7.334  0.00  0.00    +0.000 HD
ATOM     15  H   UNL     1      -0.282 -13.304  -7.294  0.00  0.00    +0.000 HD
ATOM     16  H   UNL     1      -1.804 -13.421  -8.195  0.00  0.00    +0.000 HD
ENDBRANCH  10  13
ENDBRANCH   7  10
ENDBRANCH   4   7
ENDBRANCH   1   4
BRANCH   1  17
ATOM     17  C   UNL     1      -1.170 -14.715 -12.388  0.00  0.00    +0.000 C 
ATOM     18  H   UNL     1      -1.610 -14.422 -11.427  0.00  0.00    +0.000 HD
ATOM     19  H   UNL     1      -1.955 -14.583 -13.144  0.00  0.00    +0.000 HD
BRANCH  17  20
ATOM     20  C   UNL     1      -0.760 -16.183 -12.330  0.00  0.00    +0.000 C 
ATOM     21  H   UNL     1      -0.901 -16.649 -13.312  0.00  0.00    +0.000 HD
ATOM     22  H   UNL     1       0.299 -16.260 -12.058  0.00  0.00    +0.000 HD
BRANCH  20  24
ATOM     23  O   UNL     1      -2.163 -18.003 -11.650  0.00  0.00    +0.000 OA
ATOM     24  C   UNL     1      -1.559 -16.982 -11.321  0.00  0.00    +0.000 C 
BRANCH  24  25
ATOM     25  C   UNL     1      -1.603 -16.472  -9.904  0.00  0.00    +0.000 C 
ATOM     26  H   UNL     1      -0.627 -16.064  -9.628  0.00  0.00    +0.000 HD
ATOM     27  H   UNL     1      -1.848 -17.295  -9.228  0.00  0.00    +0.000 HD
ATOM     28  H   UNL     1      -2.353 -15.682  -9.824  0.00  0.00    +0.000 HD
ENDBRANCH  24  25
ENDBRANCH  20  24
ENDBRANCH  17  20
ENDBRANCH   1  17
TORSDOF 8
ENDMDL
MODEL 2
REMARK VINA RESULT:    -4.047     33.949     36.506
REMARK INTER + INTRA:          -5.970
REMARK INTER:                  -5.709
REMARK INTRA:                  -0.262
REMARK UNBOUND:                -0.268
REMARK  Name = 13187
REMARK  8 active torsions:
REMARK  status: ('A' for Active; 'I' for Inactive)
REMARK    1  A    between atoms: C_2  and  C_3
REMARK    2  A    between atoms: C_2  and  C_4
REMARK    3  A    between atoms: C_3  and  C_5
REMARK    4  A    between atoms: C_4  and  C_6
REMARK    5  A    between atoms: C_5  and  C_7
REMARK    6  A    between atoms: C_6  and  C_8
REMARK    7  A    between atoms: C_7  and  C_9
REMARK    8  A    between atoms: C_9  and  C_10
REMARK                            x       y       z     vdW  Elec       q    Type
REMARK                         _______ _______ _______ _____ _____    ______ ____
ROOT
ATOM      1  C   UNL     1      -1.976  10.131  17.012  0.00  0.00    +0.000 C 
ATOM      2  H   UNL     1      -1.744  11.124  16.612  0.00  0.00    +0.000 HD
ATOM      3  H   UNL     1      -2.860  10.236  17.651  0.00  0.00    +0.000 HD
ENDROOT
BRANCH   1   4
ATOM      4  C   UNL     1      -2.286   9.170  15.862  0.00  0.00    +0.000 C 
ATOM      5  H   UNL     1      -2.454   8.162  16.260  0.00  0.00    +0.000 HD
ATOM      6  H   UNL     1      -1.420   9.112  15.191  0.00  0.00    +0.000 HD
BRANCH   4   7
ATOM      7  C   UNL     1      -3.515   9.624  15.074  0.00  0.00    +0.000 C 
ATOM      8  H   UNL     1      -3.299  10.573  14.568  0.00  0.00    +0.000 HD
ATOM      9  H   UNL     1      -4.346   9.808  15.765  0.00  0.00    +0.000 HD
BRANCH   7  10
ATOM     10  C   UNL     1      -3.929   8.578  14.039  0.00  0.00    +0.000 C 
ATOM     11  H   UNL     1      -4.204   9.071  13.100  0.00  0.00    +0.000 HD
ATOM     12  H   UNL     1      -4.814   8.035  14.392  0.00  0.00    +0.000 HD
BRANCH  10  13
ATOM     13  C   UNL     1      -2.808   7.586  13.770  0.00  0.00    +0.000 C 
ATOM     14  H   UNL     1      -1.832   8.028  13.993  0.00  0.00    +0.000 HD
ATOM     15  H   UNL     1      -2.811   7.267  12.723  0.00  0.00    +0.000 HD
ATOM     16  H   UNL     1      -2.930   6.697  14.397  0.00  0.00    +0.000 HD
ENDBRANCH  10  13
ENDBRANCH   7  10
ENDBRANCH   4   7
ENDBRANCH   1   4
BRANCH   1  17
ATOM     17  C   UNL     1      -0.794   9.631  17.849  0.00  0.00    +0.000 C 
ATOM     18  H   UNL     1       0.129  10.111  17.501  0.00  0.00    +0.000 HD
ATOM     19  H   UNL     1      -0.933   9.940  18.893  0.00  0.00    +0.000 HD
BRANCH  17  20
ATOM     20  C   UNL     1      -0.632   8.116  17.784  0.00  0.00    +0.000 C 
ATOM     21  H   UNL     1      -1.611   7.639  17.664  0.00  0.00    +0.000 HD
ATOM     22  H   UNL     1      -0.008   7.847  16.924  0.00  0.00    +0.000 HD
BRANCH  20  24
ATOM     23  O   UNL     1      -0.618   7.412  20.075  0.00  0.00    +0.000 OA
ATOM     24  C   UNL     1       0.014   7.535  19.026  0.00  0.00    +0.000 C 
BRANCH  24  25
ATOM     25  C   UNL     1       1.462   7.131  18.935  0.00  0.00    +0.000 C 
ATOM     26  H   UNL     1       2.083   8.015  18.769  0.00  0.00    +0.000 HD
ATOM     27  H   UNL     1       1.597   6.440  18.098  0.00  0.00    +0.000 HD
ATOM     28  H   UNL     1       1.768   6.654  19.870  0.00  0.00    +0.000 HD
ENDBRANCH  24  25
ENDBRANCH  20  24
ENDBRANCH  17  20
ENDBRANCH   1  17
TORSDOF 8
ENDMDL
MODEL 3
REMARK VINA RESULT:    -3.812     29.059     30.909
REMARK INTER + INTRA:          -5.640
REMARK INTER:                  -5.499
REMARK INTRA:                  -0.141
REMARK UNBOUND:                -0.268
REMARK  Name = 13187
REMARK  8 active torsions:
REMARK  status: ('A' for Active; 'I' for Inactive)
REMARK    1  A    between atoms: C_2  and  C_3
REMARK    2  A    between atoms: C_2  and  C_4
REMARK    3  A    between atoms: C_3  and  C_5
REMARK    4  A    between atoms: C_4  and  C_6
REMARK    5  A    between atoms: C_5  and  C_7
REMARK    6  A    between atoms: C_6  and  C_8
REMARK    7  A    between atoms: C_7  and  C_9
REMARK    8  A    between atoms: C_9  and  C_10
REMARK                            x       y       z     vdW  Elec       q    Type
REMARK                         _______ _______ _______ _____ _____    ______ ____
ROOT
ATOM      1  C   UNL     1       3.376  -5.175  17.409  0.00  0.00    +0.000 C 
ATOM      2  H   UNL     1       3.059  -6.088  16.893  0.00  0.00    +0.000 HD
ATOM      3  H   UNL     1       4.470  -5.133  17.354  0.00  0.00    +0.000 HD
ENDROOT
BRANCH   1   4
ATOM      4  C   UNL     1       2.779  -3.951  16.709  0.00  0.00    +0.000 C 
ATOM      5  H   UNL     1       3.134  -3.037  17.200  0.00  0.00    +0.000 HD
ATOM      6  H   UNL     1       1.687  -3.969  16.809  0.00  0.00    +0.000 HD
BRANCH   4   7
ATOM      7  C   UNL     1       3.157  -3.920  15.228  0.00  0.00    +0.000 C 
ATOM      8  H   UNL     1       2.431  -3.312  14.674  0.00  0.00    +0.000 HD
ATOM      9  H   UNL     1       3.110  -4.936  14.816  0.00  0.00    +0.000 HD
BRANCH   7  10
ATOM     10  C   UNL     1       4.560  -3.349  15.024  0.00  0.00    +0.000 C 
ATOM     11  H   UNL     1       5.241  -4.141  14.694  0.00  0.00    +0.000 HD
ATOM     12  H   UNL     1       4.947  -2.964  15.976  0.00  0.00    +0.000 HD
BRANCH  10  13
ATOM     13  C   UNL     1       4.562  -2.230  13.994  0.00  0.00    +0.000 C 
ATOM     14  H   UNL     1       5.240  -1.424  14.293  0.00  0.00    +0.000 HD
ATOM     15  H   UNL     1       3.560  -1.809  13.871  0.00  0.00    +0.000 HD
ATOM     16  H   UNL     1       4.894  -2.611  13.023  0.00  0.00    +0.000 HD
ENDBRANCH  10  13
ENDBRANCH   7  10
ENDBRANCH   4   7
ENDBRANCH   1   4
BRANCH   1  17
ATOM     17  C   UNL     1       2.939  -5.242  18.876  0.00  0.00    +0.000 C 
ATOM     18  H   UNL     1       3.813  -5.439  19.509  0.00  0.00    +0.000 HD
ATOM     19  H   UNL     1       2.546  -4.265  19.182  0.00  0.00    +0.000 HD
BRANCH  17  20
ATOM     20  C   UNL     1       1.884  -6.316  19.122  0.00  0.00    +0.000 C 
ATOM     21  H   UNL     1       1.045  -6.182  18.430  0.00  0.00    +0.000 HD
ATOM     22  H   UNL     1       2.319  -7.307  18.954  0.00  0.00    +0.000 HD
BRANCH  20  24
ATOM     23  O   UNL     1       1.967  -5.794  21.461  0.00  0.00    +0.000 OA
ATOM     24  C   UNL     1       1.327  -6.287  20.532  0.00  0.00    +0.000 C 
BRANCH  24  25
ATOM     25  C   UNL     1      -0.031  -6.898  20.758  0.00  0.00    +0.000 C 
ATOM     26  H   UNL     1      -0.730  -6.537  19.999  0.00  0.00    +0.000 HD
ATOM     27  H   UNL     1      -0.400  -6.612  21.746  0.00  0.00    +0.000 HD
ATOM     28  H   UNL     1       0.041  -7.986  20.683  0.00  0.00    +0.000 HD
ENDBRANCH  24  25
ENDBRANCH  20  24
ENDBRANCH  17  20
ENDBRANCH   1  17
TORSDOF 8
ENDMDL
MODEL 4
REMARK VINA RESULT:    -3.780     27.836     29.948
REMARK INTER + INTRA:          -5.594
REMARK INTER:                  -5.256
REMARK INTRA:                  -0.339
REMARK UNBOUND:                -0.268
REMARK  Name = 13187
REMARK  8 active torsions:
REMARK  status: ('A' for Active; 'I' for Inactive)
REMARK    1  A    between atoms: C_2  and  C_3
REMARK    2  A    between atoms: C_2  and  C_4
REMARK    3  A    between atoms: C_3  and  C_5
REMARK    4  A    between atoms: C_4  and  C_6
REMARK    5  A    between atoms: C_5  and  C_7
REMARK    6  A    between atoms: C_6  and  C_8
REMARK    7  A    between atoms: C_7  and  C_9
REMARK    8  A    between atoms: C_9  and  C_10
REMARK                            x       y       z     vdW  Elec       q    Type
REMARK                         _______ _______ _______ _____ _____    ______ ____
ROOT
ATOM      1  C   UNL     1       2.882  14.411  -8.954  0.00  0.00    +0.000 C 
ATOM      2  H   UNL     1       2.344  15.083  -9.634  0.00  0.00    +0.000 HD
ATOM      3  H   UNL     1       2.128  13.863  -8.376  0.00  0.00    +0.000 HD
ENDROOT
BRANCH   1   4
ATOM      4  C   UNL     1       3.726  13.424  -9.763  0.00  0.00    +0.000 C 
ATOM      5  H   UNL     1       4.328  12.810  -9.082  0.00  0.00    +0.000 HD
ATOM      6  H   UNL     1       4.424  13.978 -10.402  0.00  0.00    +0.000 HD
BRANCH   4   7
ATOM      7  C   UNL     1       2.847  12.520 -10.628  0.00  0.00    +0.000 C 
ATOM      8  H   UNL     1       2.100  13.127 -11.155  0.00  0.00    +0.000 HD
ATOM      9  H   UNL     1       2.300  11.818  -9.988  0.00  0.00    +0.000 HD
BRANCH   7  10
ATOM     10  C   UNL     1       3.682  11.743 -11.646  0.00  0.00    +0.000 C 
ATOM     11  H   UNL     1       3.041  11.050 -12.202  0.00  0.00    +0.000 HD
ATOM     12  H   UNL     1       4.437  11.141 -11.126  0.00  0.00    +0.000 HD
BRANCH  10  13
ATOM     13  C   UNL     1       4.375  12.676 -12.627  0.00  0.00    +0.000 C 
ATOM     14  H   UNL     1       3.658  13.097 -13.339  0.00  0.00    +0.000 HD
ATOM     15  H   UNL     1       5.149  12.146 -13.191  0.00  0.00    +0.000 HD
ATOM     16  H   UNL     1       4.849  13.504 -12.092  0.00  0.00    +0.000 HD
ENDBRANCH  10  13
ENDBRANCH   7  10
ENDBRANCH   4   7
ENDBRANCH   1   4
BRANCH   1  17
ATOM     17  C   UNL     1       3.754  15.239  -8.005  0.00  0.00    +0.000 C 
ATOM     18  H   UNL     1       3.749  16.288  -8.326  0.00  0.00    +0.000 HD
ATOM     19  H   UNL     1       3.315  15.218  -6.999  0.00  0.00    +0.000 HD
BRANCH  17  20
ATOM     20  C   UNL     1       5.192  14.735  -7.944  0.00  0.00    +0.000 C 
ATOM     21  H   UNL     1       5.445  14.446  -6.918  0.00  0.00    +0.000 HD
ATOM     22  H   UNL     1       5.304  13.856  -8.590  0.00  0.00    +0.000 HD
BRANCH  20  24
ATOM     23  O   UNL     1       6.384  16.805  -7.749  0.00  0.00    +0.000 OA
ATOM     24  C   UNL     1       6.202  15.772  -8.393  0.00  0.00    +0.000 C 
BRANCH  24  25
ATOM     25  C   UNL     1       6.963  15.500  -9.664  0.00  0.00    +0.000 C 
ATOM     26  H   UNL     1       7.590  14.612  -9.538  0.00  0.00    +0.000 HD
ATOM     27  H   UNL     1       7.603  16.355  -9.897  0.00  0.00    +0.000 HD
ATOM     28  H   UNL     1       6.259  15.322 -10.481  0.00  0.00    +0.000 HD
ENDBRANCH  24  25
ENDBRANCH  20  24
ENDBRANCH  17  20
ENDBRANCH   1  17
TORSDOF 8
ENDMDL
MODEL 5
REMARK VINA RESULT:    -3.734     27.309     28.914
REMARK INTER + INTRA:          -5.529
REMARK INTER:                  -5.119
REMARK INTRA:                  -0.410
REMARK UNBOUND:                -0.268
REMARK  Name = 13187
REMARK  8 active torsions:
REMARK  status: ('A' for Active; 'I' for Inactive)
REMARK    1  A    between atoms: C_2  and  C_3
REMARK    2  A    between atoms: C_2  and  C_4
REMARK    3  A    between atoms: C_3  and  C_5
REMARK    4  A    between atoms: C_4  and  C_6
REMARK    5  A    between atoms: C_5  and  C_7
REMARK    6  A    between atoms: C_6  and  C_8
REMARK    7  A    between atoms: C_7  and  C_9
REMARK    8  A    between atoms: C_9  and  C_10
REMARK                            x       y       z     vdW  Elec       q    Type
REMARK                         _______ _______ _______ _____ _____    ______ ____
ROOT
ATOM      1  C   UNL     1       2.879  14.041  -9.338  0.00  0.00    +0.000 C 
ATOM      2  H   UNL     1       2.459  13.846  -8.345  0.00  0.00    +0.000 HD
ATOM      3  H   UNL     1       2.533  15.035  -9.648  0.00  0.00    +0.000 HD
ENDROOT
BRANCH   1   4
ATOM      4  C   UNL     1       4.408  14.030  -9.265  0.00  0.00    +0.000 C 
ATOM      5  H   UNL     1       4.823  14.507 -10.161  0.00  0.00    +0.000 HD
ATOM      6  H   UNL     1       4.765  12.994  -9.254  0.00  0.00    +0.000 HD
BRANCH   4   7
ATOM      7  C   UNL     1       4.909  14.757  -8.016  0.00  0.00    +0.000 C 
ATOM      8  H   UNL     1       5.014  14.043  -7.190  0.00  0.00    +0.000 HD
ATOM      9  H   UNL     1       4.169  15.505  -7.705  0.00  0.00    +0.000 HD
BRANCH   7  10
ATOM     10  C   UNL     1       6.252  15.439  -8.273  0.00  0.00    +0.000 C 
ATOM     11  H   UNL     1       7.057  14.871  -7.793  0.00  0.00    +0.000 HD
ATOM     12  H   UNL     1       6.253  16.441  -7.827  0.00  0.00    +0.000 HD
BRANCH  10  13
ATOM     13  C   UNL     1       6.544  15.555  -9.761  0.00  0.00    +0.000 C 
ATOM     14  H   UNL     1       5.853  14.937 -10.344  0.00  0.00    +0.000 HD
ATOM     15  H   UNL     1       7.566  15.234  -9.986  0.00  0.00    +0.000 HD
ATOM     16  H   UNL     1       6.432  16.593 -10.090  0.00  0.00    +0.000 HD
ENDBRANCH  10  13
ENDBRANCH   7  10
ENDBRANCH   4   7
ENDBRANCH   1   4
BRANCH   1  17
ATOM     17  C   UNL     1       2.364  12.988 -10.324  0.00  0.00    +0.000 C 
ATOM     18  H   UNL     1       1.669  12.314  -9.808  0.00  0.00    +0.000 HD
ATOM     19  H   UNL     1       1.788  13.484 -11.116  0.00  0.00    +0.000 HD
BRANCH  17  20
ATOM     20  C   UNL     1       3.491  12.171 -10.948  0.00  0.00    +0.000 C 
ATOM     21  H   UNL     1       4.451  12.459 -10.505  0.00  0.00    +0.000 HD
ATOM     22  H   UNL     1       3.325  11.105 -10.757  0.00  0.00    +0.000 HD
BRANCH  20  24
ATOM     23  O   UNL     1       2.717  11.963 -13.208  0.00  0.00    +0.000 OA
ATOM     24  C   UNL     1       3.601  12.362 -12.448  0.00  0.00    +0.000 C 
BRANCH  24  25
ATOM     25  C   UNL     1       4.837  13.041 -12.976  0.00  0.00    +0.000 C 
ATOM     26  H   UNL     1       5.339  12.387 -13.695  0.00  0.00    +0.000 HD
ATOM     27  H   UNL     1       5.520  13.250 -12.149  0.00  0.00    +0.000 HD
ATOM     28  H   UNL     1       4.557  13.971 -13.478  0.00  0.00    +0.000 HD
ENDBRANCH  24  25
ENDBRANCH  20  24
ENDBRANCH  17  20
ENDBRANCH   1  17
TORSDOF 8
ENDMDL
MODEL 6
REMARK VINA RESULT:    -3.688     19.030     20.385
REMARK INTER + INTRA:          -5.464
REMARK INTER:                  -4.962
REMARK INTRA:                  -0.502
REMARK UNBOUND:                -0.268
REMARK  Name = 13187
REMARK  8 active torsions:
REMARK  status: ('A' for Active; 'I' for Inactive)
REMARK    1  A    between atoms: C_2  and  C_3
REMARK    2  A    between atoms: C_2  and  C_4
REMARK    3  A    between atoms: C_3  and  C_5
REMARK    4  A    between atoms: C_4  and  C_6
REMARK    5  A    between atoms: C_5  and  C_7
REMARK    6  A    between atoms: C_6  and  C_8
REMARK    7  A    between atoms: C_7  and  C_9
REMARK    8  A    between atoms: C_9  and  C_10
REMARK                            x       y       z     vdW  Elec       q    Type
REMARK                         _______ _______ _______ _____ _____    ______ ____
ROOT
ATOM      1  C   UNL     1     -16.429 -11.175  -1.256  0.00  0.00    +0.000 C 
ATOM      2  H   UNL     1     -17.337 -11.477  -0.720  0.00  0.00    +0.000 HD
ATOM      3  H   UNL     1     -15.973 -12.086  -1.661  0.00  0.00    +0.000 HD
ENDROOT
BRANCH   1   4
ATOM      4  C   UNL     1     -16.797 -10.232  -2.405  0.00  0.00    +0.000 C 
ATOM      5  H   UNL     1     -17.152 -10.817  -3.262  0.00  0.00    +0.000 HD
ATOM      6  H   UNL     1     -15.902  -9.689  -2.732  0.00  0.00    +0.000 HD
BRANCH   4   7
ATOM      7  C   UNL     1     -17.875  -9.234  -1.980  0.00  0.00    +0.000 C 
ATOM      8  H   UNL     1     -18.060  -8.523  -2.795  0.00  0.00    +0.000 HD
ATOM      9  H   UNL     1     -17.519  -8.654  -1.119  0.00  0.00    +0.000 HD
BRANCH   7  10
ATOM     10  C   UNL     1     -19.178  -9.945  -1.618  0.00  0.00    +0.000 C 
ATOM     11  H   UNL     1     -19.502  -9.642  -0.616  0.00  0.00    +0.000 HD
ATOM     12  H   UNL     1     -19.017 -11.029  -1.593  0.00  0.00    +0.000 HD
BRANCH  10  13
ATOM     13  C   UNL     1     -20.282  -9.626  -2.614  0.00  0.00    +0.000 C 
ATOM     14  H   UNL     1     -21.266  -9.872  -2.201  0.00  0.00    +0.000 HD
ATOM     15  H   UNL     1     -20.148 -10.190  -3.542  0.00  0.00    +0.000 HD
ATOM     16  H   UNL     1     -20.274  -8.559  -2.860  0.00  0.00    +0.000 HD
ENDBRANCH  10  13
ENDBRANCH   7  10
ENDBRANCH   4   7
ENDBRANCH   1   4
BRANCH   1  17
ATOM     17  C   UNL     1     -15.460 -10.505  -0.278  0.00  0.00    +0.000 C 
ATOM     18  H   UNL     1     -14.434 -10.825  -0.503  0.00  0.00    +0.000 HD
ATOM     19  H   UNL     1     -15.487  -9.418  -0.426  0.00  0.00    +0.000 HD
BRANCH  17  20
ATOM     20  C   UNL     1     -15.781 -10.829   1.178  0.00  0.00    +0.000 C 
ATOM     21  H   UNL     1     -16.564 -11.595   1.226  0.00  0.00    +0.000 HD
ATOM     22  H   UNL     1     -14.886 -11.216   1.677  0.00  0.00    +0.000 HD
BRANCH  20  24
ATOM     23  O   UNL     1     -16.635  -9.730   3.129  0.00  0.00    +0.000 OA
ATOM     24  C   UNL     1     -16.266  -9.625   1.960  0.00  0.00    +0.000 C 
BRANCH  24  25
ATOM     25  C   UNL     1     -16.295  -8.297   1.249  0.00  0.00    +0.000 C 
ATOM     26  H   UNL     1     -17.037  -7.644   1.716  0.00  0.00    +0.000 HD
ATOM     27  H   UNL     1     -16.566  -8.450   0.201  0.00  0.00    +0.000 HD
ATOM     28  H   UNL     1     -15.312  -7.824   1.319  0.00  0.00    +0.000 HD
ENDBRANCH  24  25
ENDBRANCH  20  24
ENDBRANCH  17  20
ENDBRANCH   1  17
TORSDOF 8
ENDMDL
MODEL 7
REMARK VINA RESULT:    -3.682     18.373     20.104
REMARK INTER + INTRA:          -5.457
REMARK INTER:                  -5.076
REMARK INTRA:                  -0.381
REMARK UNBOUND:                -0.268
REMARK  Name = 13187
REMARK  8 active torsions:
REMARK  status: ('A' for Active; 'I' for Inactive)
REMARK    1  A    between atoms: C_2  and  C_3
REMARK    2  A    between atoms: C_2  and  C_4
REMARK    3  A    between atoms: C_3  and  C_5
REMARK    4  A    between atoms: C_4  and  C_6
REMARK    5  A    between atoms: C_5  and  C_7
REMARK    6  A    between atoms: C_6  and  C_8
REMARK    7  A    between atoms: C_7  and  C_9
REMARK    8  A    between atoms: C_9  and  C_10
REMARK                            x       y       z     vdW  Elec       q    Type
REMARK                         _______ _______ _______ _____ _____    ______ ____
ROOT
ATOM      1  C   UNL     1     -16.305  -9.661  -0.085  0.00  0.00    +0.000 C 
ATOM      2  H   UNL     1     -15.551  -9.390  -0.833  0.00  0.00    +0.000 HD
ATOM      3  H   UNL     1     -16.013 -10.632   0.333  0.00  0.00    +0.000 HD
ENDROOT
BRANCH   1   4
ATOM      4  C   UNL     1     -16.329  -8.611   1.028  0.00  0.00    +0.000 C 
ATOM      5  H   UNL     1     -17.222  -7.982   0.922  0.00  0.00    +0.000 HD
ATOM      6  H   UNL     1     -15.457  -7.953   0.929  0.00  0.00    +0.000 HD
BRANCH   4   7
ATOM      7  C   UNL     1     -16.322  -9.266   2.410  0.00  0.00    +0.000 C 
ATOM      8  H   UNL     1     -15.526  -8.826   3.023  0.00  0.00    +0.000 HD
ATOM      9  H   UNL     1     -16.100 -10.335   2.308  0.00  0.00    +0.000 HD
BRANCH   7  10
ATOM     10  C   UNL     1     -17.666  -9.086   3.116  0.00  0.00    +0.000 C 
ATOM     11  H   UNL     1     -18.288  -8.377   2.558  0.00  0.00    +0.000 HD
ATOM     12  H   UNL     1     -17.508  -8.662   4.116  0.00  0.00    +0.000 HD
BRANCH  10  13
ATOM     13  C   UNL     1     -18.409 -10.406   3.245  0.00  0.00    +0.000 C 
ATOM     14  H   UNL     1     -19.404 -10.341   2.793  0.00  0.00    +0.000 HD
ATOM     15  H   UNL     1     -18.526 -10.689   4.296  0.00  0.00    +0.000 HD
ATOM     16  H   UNL     1     -17.856 -11.203   2.737  0.00  0.00    +0.000 HD
ENDBRANCH  10  13
ENDBRANCH   7  10
ENDBRANCH   4   7
ENDBRANCH   1   4
BRANCH   1  17
ATOM     17  C   UNL     1     -17.674  -9.784  -0.761  0.00  0.00    +0.000 C 
ATOM     18  H   UNL     1     -18.063 -10.799  -0.615  0.00  0.00    +0.000 HD
ATOM     19  H   UNL     1     -18.382  -9.104  -0.272  0.00  0.00    +0.000 HD
BRANCH  17  20
ATOM     20  C   UNL     1     -17.617  -9.475  -2.254  0.00  0.00    +0.000 C 
ATOM     21  H   UNL     1     -18.627  -9.498  -2.679  0.00  0.00    +0.000 HD
ATOM     22  H   UNL     1     -17.198  -8.474  -2.409  0.00  0.00    +0.000 HD
BRANCH  20  24
ATOM     23  O   UNL     1     -15.790 -10.086  -3.680  0.00  0.00    +0.000 OA
ATOM     24  C   UNL     1     -16.767 -10.460  -3.031  0.00  0.00    +0.000 C 
BRANCH  24  25
ATOM     25  C   UNL     1     -17.171 -11.910  -2.995  0.00  0.00    +0.000 C 
ATOM     26  H   UNL     1     -16.347 -12.515  -2.607  0.00  0.00    +0.000 HD
ATOM     27  H   UNL     1     -17.413 -12.247  -4.007  0.00  0.00    +0.000 HD
ATOM     28  H   UNL     1     -18.038 -12.032  -2.341  0.00  0.00    +0.000 HD
ENDBRANCH  24  25
ENDBRANCH  20  24
ENDBRANCH  17  20
ENDBRANCH   1  17
TORSDOF 8
ENDMDL
MODEL 8
REMARK VINA RESULT:    -3.610     31.833     33.628
REMARK INTER + INTRA:          -5.355
REMARK INTER:                  -5.144
REMARK INTRA:                  -0.211
REMARK UNBOUND:                -0.268
REMARK  Name = 13187
REMARK  8 active torsions:
REMARK  status: ('A' for Active; 'I' for Inactive)
REMARK    1  A    between atoms: C_2  and  C_3
REMARK    2  A    between atoms: C_2  and  C_4
REMARK    3  A    between atoms: C_3  and  C_5
REMARK    4  A    between atoms: C_4  and  C_6
REMARK    5  A    between atoms: C_5  and  C_7
REMARK    6  A    between atoms: C_6  and  C_8
REMARK    7  A    between atoms: C_7  and  C_9
REMARK    8  A    between atoms: C_9  and  C_10
REMARK                            x       y       z     vdW  Elec       q    Type
REMARK                         _______ _______ _______ _____ _____    ______ ____
ROOT
ATOM      1  C   UNL     1      -2.810  10.072  12.111  0.00  0.00    +0.000 C 
ATOM      2  H   UNL     1      -3.576  10.523  11.469  0.00  0.00    +0.000 HD
ATOM      3  H   UNL     1      -2.216  10.892  12.532  0.00  0.00    +0.000 HD
ENDROOT
BRANCH   1   4
ATOM      4  C   UNL     1      -3.481   9.291  13.244  0.00  0.00    +0.000 C 
ATOM      5  H   UNL     1      -3.262   8.223  13.134  0.00  0.00    +0.000 HD
ATOM      6  H   UNL     1      -4.569   9.407  13.173  0.00  0.00    +0.000 HD
BRANCH   4   7
ATOM      7  C   UNL     1      -3.003   9.777  14.613  0.00  0.00    +0.000 C 
ATOM      8  H   UNL     1      -3.843  10.223  15.160  0.00  0.00    +0.000 HD
ATOM      9  H   UNL     1      -2.249  10.563  14.480  0.00  0.00    +0.000 HD
BRANCH   7  10
ATOM     10  C   UNL     1      -2.412   8.631  15.433  0.00  0.00    +0.000 C 
ATOM     11  H   UNL     1      -1.799   7.990  14.790  0.00  0.00    +0.000 HD
ATOM     12  H   UNL     1      -3.219   8.007  15.838  0.00  0.00    +0.000 HD
BRANCH  10  13
ATOM     13  C   UNL     1      -1.558   9.149  16.580  0.00  0.00    +0.000 C 
ATOM     14  H   UNL     1      -2.111   9.875  17.184  0.00  0.00    +0.000 HD
ATOM     15  H   UNL     1      -0.651   9.634  16.205  0.00  0.00    +0.000 HD
ATOM     16  H   UNL     1      -1.257   8.323  17.232  0.00  0.00    +0.000 HD
ENDBRANCH  10  13
ENDBRANCH   7  10
ENDBRANCH   4   7
ENDBRANCH   1   4
BRANCH   1  17
ATOM     17  C   UNL     1      -1.908   9.164  11.270  0.00  0.00    +0.000 C 
ATOM     18  H   UNL     1      -1.808   8.190  11.764  0.00  0.00    +0.000 HD
ATOM     19  H   UNL     1      -2.386   8.976  10.301  0.00  0.00    +0.000 HD
BRANCH  17  20
ATOM     20  C   UNL     1      -0.523   9.762  11.047  0.00  0.00    +0.000 C 
ATOM     21  H   UNL     1      -0.577  10.567  10.306  0.00  0.00    +0.000 HD
ATOM     22  H   UNL     1      -0.145  10.181  11.987  0.00  0.00    +0.000 HD
BRANCH  20  24
ATOM     23  O   UNL     1       0.225   7.544  10.529  0.00  0.00    +0.000 OA
ATOM     24  C   UNL     1       0.488   8.747  10.552  0.00  0.00    +0.000 C 
BRANCH  24  25
ATOM     25  C   UNL     1       1.832   9.260  10.106  0.00  0.00    +0.000 C 
ATOM     26  H   UNL     1       2.360   8.480   9.551  0.00  0.00    +0.000 HD
ATOM     27  H   UNL     1       2.425   9.538  10.982  0.00  0.00    +0.000 HD
ATOM     28  H   UNL     1       1.694  10.127   9.455  0.00  0.00    +0.000 HD
ENDBRANCH  24  25
ENDBRANCH  20  24
ENDBRANCH  17  20
ENDBRANCH   1  17
TORSDOF 8
ENDMDL
MODEL 9
REMARK VINA RESULT:    -3.575      2.619      5.270
REMARK INTER + INTRA:          -5.306
REMARK INTER:                  -5.038
REMARK INTRA:                  -0.268
REMARK UNBOUND:                -0.268
REMARK  Name = 13187
REMARK  8 active torsions:
REMARK  status: ('A' for Active; 'I' for Inactive)
REMARK    1  A    between atoms: C_2  and  C_3
REMARK    2  A    between atoms: C_2  and  C_4
REMARK    3  A    between atoms: C_3  and  C_5
REMARK    4  A    between atoms: C_4  and  C_6
REMARK    5  A    between atoms: C_5  and  C_7
REMARK    6  A    between atoms: C_6  and  C_8
REMARK    7  A    between atoms: C_7  and  C_9
REMARK    8  A    between atoms: C_9  and  C_10
REMARK                            x       y       z     vdW  Elec       q    Type
REMARK                         _______ _______ _______ _____ _____    ______ ____
ROOT
ATOM      1  C   UNL     1      -1.629 -16.547 -10.183  0.00  0.00    +0.000 C 
ATOM      2  H   UNL     1      -2.647 -16.942 -10.283  0.00  0.00    +0.000 HD
ATOM      3  H   UNL     1      -0.994 -17.370  -9.835  0.00  0.00    +0.000 HD
ENDROOT
BRANCH   1   4
ATOM      4  C   UNL     1      -1.131 -16.054 -11.544  0.00  0.00    +0.000 C 
ATOM      5  H   UNL     1      -0.321 -15.329 -11.398  0.00  0.00    +0.000 HD
ATOM      6  H   UNL     1      -1.943 -15.531 -12.063  0.00  0.00    +0.000 HD
BRANCH   4   7
ATOM      7  C   UNL     1      -0.635 -17.214 -12.407  0.00  0.00    +0.000 C 
ATOM      8  H   UNL     1      -0.372 -18.065 -11.767  0.00  0.00    +0.000 HD
ATOM      9  H   UNL     1       0.276 -16.913 -12.937  0.00  0.00    +0.000 HD
BRANCH   7  10
ATOM     10  C   UNL     1      -1.697 -17.647 -13.418  0.00  0.00    +0.000 C 
ATOM     11  H   UNL     1      -1.321 -17.507 -14.437  0.00  0.00    +0.000 HD
ATOM     12  H   UNL     1      -2.591 -17.020 -13.312  0.00  0.00    +0.000 HD
BRANCH  10  13
ATOM     13  C   UNL     1      -2.086 -19.105 -13.228  0.00  0.00    +0.000 C 
ATOM     14  H   UNL     1      -2.976 -19.353 -13.815  0.00  0.00    +0.000 HD
ATOM     15  H   UNL     1      -2.297 -19.321 -12.176  0.00  0.00    +0.000 HD
ATOM     16  H   UNL     1      -1.271 -19.760 -13.553  0.00  0.00    +0.000 HD
ENDBRANCH  10  13
ENDBRANCH   7  10
ENDBRANCH   4   7
ENDBRANCH   1   4
BRANCH   1  17
ATOM     17  C   UNL     1      -1.620 -15.419  -9.147  0.00  0.00    +0.000 C 
ATOM     18  H   UNL     1      -2.562 -15.433  -8.583  0.00  0.00    +0.000 HD
ATOM     19  H   UNL     1      -0.818 -15.600  -8.421  0.00  0.00    +0.000 HD
BRANCH  17  20
ATOM     20  C   UNL     1      -1.432 -14.044  -9.782  0.00  0.00    +0.000 C 
ATOM     21  H   UNL     1      -0.706 -14.107 -10.601  0.00  0.00    +0.000 HD
ATOM     22  H   UNL     1      -2.386 -13.691 -10.189  0.00  0.00    +0.000 HD
BRANCH  20  24
ATOM     23  O   UNL     1      -0.187 -12.092  -9.163  0.00  0.00    +0.000 OA
ATOM     24  C   UNL     1      -0.933 -13.002  -8.801  0.00  0.00    +0.000 C 
BRANCH  24  25
ATOM     25  C   UNL     1      -1.368 -13.130  -7.365  0.00  0.00    +0.000 C 
ATOM     26  H   UNL     1      -0.490 -13.184  -6.716  0.00  0.00    +0.000 HD
ATOM     27  H   UNL     1      -1.958 -14.043  -7.242  0.00  0.00    +0.000 HD
ATOM     28  H   UNL     1      -1.962 -12.257  -7.084  0.00  0.00    +0.000 HD
ENDBRANCH  24  25
ENDBRANCH  20  24
ENDBRANCH  17  20
ENDBRANCH   1  17
TORSDOF 8
ENDMDL
MODEL 10
REMARK VINA RESULT:    -3.509     32.594     34.190
REMARK INTER + INTRA:          -5.212
REMARK INTER:                  -4.817
REMARK INTRA:                  -0.396
REMARK UNBOUND:                -0.268
REMARK  Name = 13187
REMARK  8 active torsions:
REMARK  status: ('A' for Active; 'I' for Inactive)
REMARK    1  A    between atoms: C_2  and  C_3
REMARK    2  A    between atoms: C_2  and  C_4
REMARK    3  A    between atoms: C_3  and  C_5
REMARK    4  A    between atoms: C_4  and  C_6
REMARK    5  A    between atoms: C_5  and  C_7
REMARK    6  A    between atoms: C_6  and  C_8
REMARK    7  A    between atoms: C_7  and  C_9
REMARK    8  A    between atoms: C_9  and  C_10
REMARK                            x       y       z     vdW  Elec       q    Type
REMARK                         _______ _______ _______ _____ _____    ______ ____
ROOT
ATOM      1  C   UNL     1     -13.455 -13.309  20.367  0.00  0.00    +0.000 C 
ATOM      2  H   UNL     1     -14.011 -12.797  21.160  0.00  0.00    +0.000 HD
ATOM      3  H   UNL     1     -12.674 -12.620  20.022  0.00  0.00    +0.000 HD
ENDROOT
BRANCH   1   4
ATOM      4  C   UNL     1     -12.808 -14.578  20.926  0.00  0.00    +0.000 C 
ATOM      5  H   UNL     1     -11.867 -14.321  21.428  0.00  0.00    +0.000 HD
ATOM      6  H   UNL     1     -12.559 -15.255  20.100  0.00  0.00    +0.000 HD
BRANCH   4   7
ATOM      7  C   UNL     1     -13.739 -15.290  21.908  0.00  0.00    +0.000 C 
ATOM      8  H   UNL     1     -13.321 -16.270  22.168  0.00  0.00    +0.000 HD
ATOM      9  H   UNL     1     -14.709 -15.468  21.430  0.00  0.00    +0.000 HD
BRANCH   7  10
ATOM     10  C   UNL     1     -13.936 -14.467  23.181  0.00  0.00    +0.000 C 
ATOM     11  H   UNL     1     -13.330 -13.555  23.133  0.00  0.00    +0.000 HD
ATOM     12  H   UNL     1     -13.594 -15.038  24.052  0.00  0.00    +0.000 HD
BRANCH  10  13
ATOM     13  C   UNL     1     -15.395 -14.083  23.376  0.00  0.00    +0.000 C 
ATOM     14  H   UNL     1     -16.042 -14.646  22.697  0.00  0.00    +0.000 HD
ATOM     15  H   UNL     1     -15.548 -13.016  23.191  0.00  0.00    +0.000 HD
ATOM     16  H   UNL     1     -15.709 -14.299  24.402  0.00  0.00    +0.000 HD
ENDBRANCH  10  13
ENDBRANCH   7  10
ENDBRANCH   4   7
ENDBRANCH   1   4
BRANCH   1  17
ATOM     17  C   UNL     1     -14.402 -13.633  19.208  0.00  0.00    +0.000 C 
ATOM     18  H   UNL     1     -13.845 -13.608  18.263  0.00  0.00    +0.000 HD
ATOM     19  H   UNL     1     -14.777 -14.658  19.322  0.00  0.00    +0.000 HD
BRANCH  17  20
ATOM     20  C   UNL     1     -15.579 -12.666  19.128  0.00  0.00    +0.000 C 
ATOM     21  H   UNL     1     -16.497 -13.214  18.885  0.00  0.00    +0.000 HD
ATOM     22  H   UNL     1     -15.716 -12.169  20.094  0.00  0.00    +0.000 HD
BRANCH  20  24
ATOM     23  O   UNL     1     -15.804 -11.746  16.926  0.00  0.00    +0.000 OA
ATOM     24  C   UNL     1     -15.392 -11.591  18.075  0.00  0.00    +0.000 C 
BRANCH  24  25
ATOM     25  C   UNL     1     -14.667 -10.335  18.483  0.00  0.00    +0.000 C 
ATOM     26  H   UNL     1     -14.302 -10.435  19.509  0.00  0.00    +0.000 HD
ATOM     27  H   UNL     1     -15.353  -9.485  18.431  0.00  0.00    +0.000 HD
ATOM     28  H   UNL     1     -13.815 -10.173  17.818  0.00  0.00    +0.000 HD
ENDBRANCH  24  25
ENDBRANCH  20  24
ENDBRANCH  17  20
ENDBRANCH   1  17
TORSDOF 8
ENDMDL
