MODEL 1
REMARK VINA RESULT:    -4.451      0.000      0.000
REMARK INTER + INTRA:          -6.189
REMARK INTER:                  -5.857
REMARK INTRA:                  -0.332
REMARK UNBOUND:                -0.176
REMARK  Name = 8093
REMARK  7 active torsions:
REMARK  status: ('A' for Active; 'I' for Inactive)
REMARK    1  A    between atoms: C_2  and  C_3
REMARK    2  A    between atoms: C_2  and  C_4
REMARK    3  A    between atoms: C_3  and  C_5
REMARK    4  A    between atoms: C_4  and  C_6
REMARK    5  A    between atoms: C_5  and  C_7
REMARK    6  A    between atoms: C_6  and  C_8
REMARK    7  A    between atoms: C_8  and  C_9
REMARK                            x       y       z     vdW  Elec       q    Type
REMARK                         _______ _______ _______ _____ _____    ______ ____
ROOT
ATOM      1  C   UNL     1      11.655   7.790  -2.120  0.00  0.00    +0.000 C 
ATOM      2  H   UNL     1      12.669   7.638  -1.734  0.00  0.00    +0.000 HD
ATOM      3  H   UNL     1      11.206   8.607  -1.541  0.00  0.00    +0.000 HD
ENDROOT
BRANCH   1   4
ATOM      4  C   UNL     1      10.831   6.514  -1.928  0.00  0.00    +0.000 C 
ATOM      5  H   UNL     1      11.448   5.748  -1.440  0.00  0.00    +0.000 HD
ATOM      6  H   UNL     1      10.538   6.116  -2.908  0.00  0.00    +0.000 HD
BRANCH   4   7
ATOM      7  C   UNL     1       9.582   6.780  -1.090  0.00  0.00    +0.000 C 
ATOM      8  H   UNL     1       9.511   6.042  -0.282  0.00  0.00    +0.000 HD
ATOM      9  H   UNL     1       8.686   6.668  -1.711  0.00  0.00    +0.000 HD
BRANCH   7  10
ATOM     10  C   UNL     1       9.602   8.176  -0.487  0.00  0.00    +0.000 C 
ATOM     11  H   UNL     1       9.127   8.184   0.499  0.00  0.00    +0.000 HD
ATOM     12  H   UNL     1       9.074   8.888  -1.129  0.00  0.00    +0.000 HD
ATOM     13  H   UNL     1      10.633   8.523  -0.371  0.00  0.00    +0.000 HD
ENDBRANCH   7  10
ENDBRANCH   4   7
ENDBRANCH   1   4
BRANCH   1  14
ATOM     14  C   UNL     1      11.721   8.191  -3.597  0.00  0.00    +0.000 C 
ATOM     15  H   UNL     1      11.440   9.245  -3.704  0.00  0.00    +0.000 HD
ATOM     16  H   UNL     1      12.759   8.108  -3.946  0.00  0.00    +0.000 HD
BRANCH  14  17
ATOM     17  C   UNL     1      10.820   7.331  -4.476  0.00  0.00    +0.000 C 
ATOM     18  H   UNL     1      11.404   6.889  -5.291  0.00  0.00    +0.000 HD
ATOM     19  H   UNL     1      10.387   6.519  -3.880  0.00  0.00    +0.000 HD
BRANCH  17  21
ATOM     20  O   UNL     1       9.625   9.339  -5.013  0.00  0.00    +0.000 OA
ATOM     21  C   UNL     1       9.681   8.111  -5.100  0.00  0.00    +0.000 C 
BRANCH  21  22
ATOM     22  C   UNL     1       8.629   7.335  -5.847  0.00  0.00    +0.000 C 
ATOM     23  H   UNL     1       8.685   7.568  -6.913  0.00  0.00    +0.000 HD
ATOM     24  H   UNL     1       8.798   6.264  -5.707  0.00  0.00    +0.000 HD
ATOM     25  H   UNL     1       7.639   7.612  -5.476  0.00  0.00    +0.000 HD
ENDBRANCH  21  22
ENDBRANCH  17  21
ENDBRANCH  14  17
ENDBRANCH   1  14
TORSDOF 7
ENDMDL
MODEL 2
REMARK VINA RESULT:    -4.392      8.965      9.675
REMARK INTER + INTRA:          -6.109
REMARK INTER:                  -5.695
REMARK INTRA:                  -0.414
REMARK UNBOUND:                -0.176
REMARK  Name = 8093
REMARK  7 active torsions:
REMARK  status: ('A' for Active; 'I' for Inactive)
REMARK    1  A    between atoms: C_2  and  C_3
REMARK    2  A    between atoms: C_2  and  C_4
REMARK    3  A    between atoms: C_3  and  C_5
REMARK    4  A    between atoms: C_4  and  C_6
REMARK    5  A    between atoms: C_5  and  C_7
REMARK    6  A    between atoms: C_6  and  C_8
REMARK    7  A    between atoms: C_8  and  C_9
REMARK                            x       y       z     vdW  Elec       q    Type
REMARK                         _______ _______ _______ _____ _____    ______ ____
ROOT
ATOM      1  C   UNL     1       6.775  -2.175  -2.187  0.00  0.00    +0.000 C 
ATOM      2  H   UNL     1       6.897  -2.972  -2.930  0.00  0.00    +0.000 HD
ATOM      3  H   UNL     1       6.638  -2.658  -1.212  0.00  0.00    +0.000 HD
ENDROOT
BRANCH   1   4
ATOM      4  C   UNL     1       5.537  -1.340  -2.523  0.00  0.00    +0.000 C 
ATOM      5  H   UNL     1       4.794  -1.445  -1.722  0.00  0.00    +0.000 HD
ATOM      6  H   UNL     1       5.077  -1.722  -3.443  0.00  0.00    +0.000 HD
BRANCH   4   7
ATOM      7  C   UNL     1       5.894   0.135  -2.704  0.00  0.00    +0.000 C 
ATOM      8  H   UNL     1       6.978   0.244  -2.820  0.00  0.00    +0.000 HD
ATOM      9  H   UNL     1       5.603   0.701  -1.812  0.00  0.00    +0.000 HD
BRANCH   7  10
ATOM     10  C   UNL     1       5.202   0.730  -3.920  0.00  0.00    +0.000 C 
ATOM     11  H   UNL     1       5.846   1.459  -4.422  0.00  0.00    +0.000 HD
ATOM     12  H   UNL     1       4.272   1.233  -3.636  0.00  0.00    +0.000 HD
ATOM     13  H   UNL     1       4.955  -0.058  -4.639  0.00  0.00    +0.000 HD
ENDBRANCH   7  10
ENDBRANCH   4   7
ENDBRANCH   1   4
BRANCH   1  14
ATOM     14  C   UNL     1       8.037  -1.307  -2.152  0.00  0.00    +0.000 C 
ATOM     15  H   UNL     1       7.871  -0.396  -2.740  0.00  0.00    +0.000 HD
ATOM     16  H   UNL     1       8.223  -0.983  -1.120  0.00  0.00    +0.000 HD
BRANCH  14  17
ATOM     17  C   UNL     1       9.264  -2.040  -2.682  0.00  0.00    +0.000 C 
ATOM     18  H   UNL     1      10.089  -1.953  -1.967  0.00  0.00    +0.000 HD
ATOM     19  H   UNL     1       9.032  -3.102  -2.816  0.00  0.00    +0.000 HD
BRANCH  17  21
ATOM     20  O   UNL     1      10.942  -1.545  -4.322  0.00  0.00    +0.000 OA
ATOM     21  C   UNL     1       9.751  -1.496  -4.011  0.00  0.00    +0.000 C 
BRANCH  21  22
ATOM     22  C   UNL     1       8.725  -0.911  -4.944  0.00  0.00    +0.000 C 
ATOM     23  H   UNL     1       7.939  -1.645  -5.136  0.00  0.00    +0.000 HD
ATOM     24  H   UNL     1       8.280  -0.024  -4.486  0.00  0.00    +0.000 HD
ATOM     25  H   UNL     1       9.201  -0.647  -5.891  0.00  0.00    +0.000 HD
ENDBRANCH  21  22
ENDBRANCH  17  21
ENDBRANCH  14  17
ENDBRANCH   1  14
TORSDOF 7
ENDMDL
MODEL 3
REMARK VINA RESULT:    -4.329      8.163      9.557
REMARK INTER + INTRA:          -6.023
REMARK INTER:                  -5.639
REMARK INTRA:                  -0.384
REMARK UNBOUND:                -0.176
REMARK  Name = 8093
REMARK  7 active torsions:
REMARK  status: ('A' for Active; 'I' for Inactive)
REMARK    1  A    between atoms: C_2  and  C_3
REMARK    2  A    between atoms: C_2  and  C_4
REMARK    3  A    between atoms: C_3  and  C_5
REMARK    4  A    between atoms: C_4  and  C_6
REMARK    5  A    between atoms: C_5  and  C_7
REMARK    6  A    between atoms: C_6  and  C_8
REMARK    7  A    between atoms: C_8  and  C_9
REMARK                            x       y       z     vdW  Elec       q    Type
REMARK                         _______ _______ _______ _____ _____    ______ ____
ROOT
ATOM      1  C   UNL     1       5.283   0.338  -3.103  0.00  0.00    +0.000 C 
ATOM      2  H   UNL     1       5.398  -0.573  -2.505  0.00  0.00    +0.000 HD
ATOM      3  H   UNL     1       4.218   0.598  -3.098  0.00  0.00    +0.000 HD
ENDROOT
BRANCH   1   4
ATOM      4  C   UNL     1       5.739   0.073  -4.540  0.00  0.00    +0.000 C 
ATOM      5  H   UNL     1       6.285   0.946  -4.921  0.00  0.00    +0.000 HD
ATOM      6  H   UNL     1       4.861  -0.064  -5.184  0.00  0.00    +0.000 HD
BRANCH   4   7
ATOM      7  C   UNL     1       6.630  -1.166  -4.621  0.00  0.00    +0.000 C 
ATOM      8  H   UNL     1       6.324  -1.791  -5.468  0.00  0.00    +0.000 HD
ATOM      9  H   UNL     1       6.513  -1.769  -3.714  0.00  0.00    +0.000 HD
BRANCH   7  10
ATOM     10  C   UNL     1       8.094  -0.790  -4.785  0.00  0.00    +0.000 C 
ATOM     11  H   UNL     1       8.331  -0.585  -5.834  0.00  0.00    +0.000 HD
ATOM     12  H   UNL     1       8.748  -1.595  -4.436  0.00  0.00    +0.000 HD
ATOM     13  H   UNL     1       8.322   0.109  -4.204  0.00  0.00    +0.000 HD
ENDBRANCH   7  10
ENDBRANCH   4   7
ENDBRANCH   1   4
BRANCH   1  14
ATOM     14  C   UNL     1       6.088   1.475  -2.467  0.00  0.00    +0.000 C 
ATOM     15  H   UNL     1       6.419   2.171  -3.247  0.00  0.00    +0.000 HD
ATOM     16  H   UNL     1       5.435   2.047  -1.795  0.00  0.00    +0.000 HD
BRANCH  14  17
ATOM     17  C   UNL     1       7.298   0.969  -1.689  0.00  0.00    +0.000 C 
ATOM     18  H   UNL     1       8.039   0.553  -2.380  0.00  0.00    +0.000 HD
ATOM     19  H   UNL     1       7.761   1.799  -1.143  0.00  0.00    +0.000 HD
BRANCH  17  21
ATOM     20  O   UNL     1       7.250  -1.290  -0.887  0.00  0.00    +0.000 OA
ATOM     21  C   UNL     1       6.949  -0.112  -0.686  0.00  0.00    +0.000 C 
BRANCH  21  22
ATOM     22  C   UNL     1       6.236   0.307   0.572  0.00  0.00    +0.000 C 
ATOM     23  H   UNL     1       6.950   0.748   1.272  0.00  0.00    +0.000 HD
ATOM     24  H   UNL     1       5.471   1.048   0.329  0.00  0.00    +0.000 HD
ATOM     25  H   UNL     1       5.778  -0.568   1.040  0.00  0.00    +0.000 HD
ENDBRANCH  21  22
ENDBRANCH  17  21
ENDBRANCH  14  17
ENDBRANCH   1  14
TORSDOF 7
ENDMDL
MODEL 4
REMARK VINA RESULT:    -4.250      7.730      8.980
REMARK INTER + INTRA:          -5.917
REMARK INTER:                  -5.446
REMARK INTRA:                  -0.472
REMARK UNBOUND:                -0.176
REMARK  Name = 8093
REMARK  7 active torsions:
REMARK  status: ('A' for Active; 'I' for Inactive)
REMARK    1  A    between atoms: C_2  and  C_3
REMARK    2  A    between atoms: C_2  and  C_4
REMARK    3  A    between atoms: C_3  and  C_5
REMARK    4  A    between atoms: C_4  and  C_6
REMARK    5  A    between atoms: C_5  and  C_7
REMARK    6  A    between atoms: C_6  and  C_8
REMARK    7  A    between atoms: C_8  and  C_9
REMARK                            x       y       z     vdW  Elec       q    Type
REMARK                         _______ _______ _______ _____ _____    ______ ____
ROOT
ATOM      1  C   UNL     1       5.339   0.333  -3.161  0.00  0.00    +0.000 C 
ATOM      2  H   UNL     1       5.045  -0.351  -2.356  0.00  0.00    +0.000 HD
ATOM      3  H   UNL     1       4.420   0.768  -3.571  0.00  0.00    +0.000 HD
ENDROOT
BRANCH   1   4
ATOM      4  C   UNL     1       6.071  -0.446  -4.258  0.00  0.00    +0.000 C 
ATOM      5  H   UNL     1       6.770   0.220  -4.778  0.00  0.00    +0.000 HD
ATOM      6  H   UNL     1       5.346  -0.799  -5.002  0.00  0.00    +0.000 HD
BRANCH   4   7
ATOM      7  C   UNL     1       6.830  -1.640  -3.679  0.00  0.00    +0.000 C 
ATOM      8  H   UNL     1       7.779  -1.303  -3.246  0.00  0.00    +0.000 HD
ATOM      9  H   UNL     1       7.072  -2.349  -4.478  0.00  0.00    +0.000 HD
BRANCH   7  10
ATOM     10  C   UNL     1       6.018  -2.351  -2.608  0.00  0.00    +0.000 C 
ATOM     11  H   UNL     1       5.036  -2.645  -2.991  0.00  0.00    +0.000 HD
ATOM     12  H   UNL     1       5.868  -1.705  -1.737  0.00  0.00    +0.000 HD
ATOM     13  H   UNL     1       6.539  -3.254  -2.275  0.00  0.00    +0.000 HD
ENDBRANCH   7  10
ENDBRANCH   4   7
ENDBRANCH   1   4
BRANCH   1  14
ATOM     14  C   UNL     1       6.221   1.448  -2.591  0.00  0.00    +0.000 C 
ATOM     15  H   UNL     1       7.069   1.624  -3.263  0.00  0.00    +0.000 HD
ATOM     16  H   UNL     1       5.646   2.383  -2.563  0.00  0.00    +0.000 HD
BRANCH  14  17
ATOM     17  C   UNL     1       6.736   1.128  -1.192  0.00  0.00    +0.000 C 
ATOM     18  H   UNL     1       6.163   1.687  -0.445  0.00  0.00    +0.000 HD
ATOM     19  H   UNL     1       6.617   0.058  -0.990  0.00  0.00    +0.000 HD
BRANCH  17  21
ATOM     20  O   UNL     1       8.542   2.414  -0.277  0.00  0.00    +0.000 OA
ATOM     21  C   UNL     1       8.199   1.480  -1.004  0.00  0.00    +0.000 C 
BRANCH  21  22
ATOM     22  C   UNL     1       9.217   0.636  -1.723  0.00  0.00    +0.000 C 
ATOM     23  H   UNL     1       9.475   1.102  -2.678  0.00  0.00    +0.000 HD
ATOM     24  H   UNL     1      10.119   0.553  -1.112  0.00  0.00    +0.000 HD
ATOM     25  H   UNL     1       8.800  -0.355  -1.916  0.00  0.00    +0.000 HD
ENDBRANCH  21  22
ENDBRANCH  17  21
ENDBRANCH  14  17
ENDBRANCH   1  14
TORSDOF 7
ENDMDL
MODEL 5
REMARK VINA RESULT:    -4.210      8.188      9.087
REMARK INTER + INTRA:          -5.863
REMARK INTER:                  -5.450
REMARK INTRA:                  -0.412
REMARK UNBOUND:                -0.176
REMARK  Name = 8093
REMARK  7 active torsions:
REMARK  status: ('A' for Active; 'I' for Inactive)
REMARK    1  A    between atoms: C_2  and  C_3
REMARK    2  A    between atoms: C_2  and  C_4
REMARK    3  A    between atoms: C_3  and  C_5
REMARK    4  A    between atoms: C_4  and  C_6
REMARK    5  A    between atoms: C_5  and  C_7
REMARK    6  A    between atoms: C_6  and  C_8
REMARK    7  A    between atoms: C_8  and  C_9
REMARK                            x       y       z     vdW  Elec       q    Type
REMARK                         _______ _______ _______ _____ _____    ______ ____
ROOT
ATOM      1  C   UNL     1       7.423   0.397  -1.774  0.00  0.00    +0.000 C 
ATOM      2  H   UNL     1       7.102  -0.604  -1.466  0.00  0.00    +0.000 HD
ATOM      3  H   UNL     1       7.361   1.045  -0.891  0.00  0.00    +0.000 HD
ENDROOT
BRANCH   1   4
ATOM      4  C   UNL     1       6.489   0.927  -2.865  0.00  0.00    +0.000 C 
ATOM      5  H   UNL     1       7.080   1.262  -3.726  0.00  0.00    +0.000 HD
ATOM      6  H   UNL     1       5.944   1.802  -2.487  0.00  0.00    +0.000 HD
BRANCH   4   7
ATOM      7  C   UNL     1       5.491  -0.142  -3.310  0.00  0.00    +0.000 C 
ATOM      8  H   UNL     1       5.657  -0.390  -4.365  0.00  0.00    +0.000 HD
ATOM      9  H   UNL     1       4.469   0.243  -3.223  0.00  0.00    +0.000 HD
BRANCH   7  10
ATOM     10  C   UNL     1       5.621  -1.406  -2.476  0.00  0.00    +0.000 C 
ATOM     11  H   UNL     1       4.659  -1.921  -2.390  0.00  0.00    +0.000 HD
ATOM     12  H   UNL     1       5.978  -1.176  -1.466  0.00  0.00    +0.000 HD
ATOM     13  H   UNL     1       6.336  -2.094  -2.939  0.00  0.00    +0.000 HD
ENDBRANCH   7  10
ENDBRANCH   4   7
ENDBRANCH   1   4
BRANCH   1  14
ATOM     14  C   UNL     1       8.873   0.343  -2.265  0.00  0.00    +0.000 C 
ATOM     15  H   UNL     1       8.983   0.976  -3.154  0.00  0.00    +0.000 HD
ATOM     16  H   UNL     1       9.530   0.770  -1.495  0.00  0.00    +0.000 HD
BRANCH  14  17
ATOM     17  C   UNL     1       9.328  -1.075  -2.589  0.00  0.00    +0.000 C 
ATOM     18  H   UNL     1      10.290  -1.279  -2.107  0.00  0.00    +0.000 HD
ATOM     19  H   UNL     1       8.593  -1.795  -2.211  0.00  0.00    +0.000 HD
BRANCH  17  21
ATOM     20  O   UNL     1       8.643  -0.957  -4.884  0.00  0.00    +0.000 OA
ATOM     21  C   UNL     1       9.499  -1.318  -4.075  0.00  0.00    +0.000 C 
BRANCH  21  22
ATOM     22  C   UNL     1      10.762  -2.001  -4.529  0.00  0.00    +0.000 C 
ATOM     23  H   UNL     1      11.592  -1.712  -3.879  0.00  0.00    +0.000 HD
ATOM     24  H   UNL     1      10.630  -3.084  -4.477  0.00  0.00    +0.000 HD
ATOM     25  H   UNL     1      10.993  -1.698  -5.553  0.00  0.00    +0.000 HD
ENDBRANCH  21  22
ENDBRANCH  17  21
ENDBRANCH  14  17
ENDBRANCH   1  14
TORSDOF 7
ENDMDL
MODEL 6
REMARK VINA RESULT:    -4.129     23.147     24.225
REMARK INTER + INTRA:          -5.754
REMARK INTER:                  -5.653
REMARK INTRA:                  -0.101
REMARK UNBOUND:                -0.176
REMARK  Name = 8093
REMARK  7 active torsions:
REMARK  status: ('A' for Active; 'I' for Inactive)
REMARK    1  A    between atoms: C_2  and  C_3
REMARK    2  A    between atoms: C_2  and  C_4
REMARK    3  A    between atoms: C_3  and  C_5
REMARK    4  A    between atoms: C_4  and  C_6
REMARK    5  A    between atoms: C_5  and  C_7
REMARK    6  A    between atoms: C_6  and  C_8
REMARK    7  A    between atoms: C_8  and  C_9
REMARK                            x       y       z     vdW  Elec       q    Type
REMARK                         _______ _______ _______ _____ _____    ______ ____
ROOT
ATOM      1  C   UNL     1      -1.003 -12.168  -8.980  0.00  0.00    +0.000 C 
ATOM      2  H   UNL     1      -0.146 -11.486  -9.014  0.00  0.00    +0.000 HD
ATOM      3  H   UNL     1      -1.905 -11.565  -9.144  0.00  0.00    +0.000 HD
ENDROOT
BRANCH   1   4
ATOM      4  C   UNL     1      -1.077 -12.837  -7.605  0.00  0.00    +0.000 C 
ATOM      5  H   UNL     1      -0.684 -13.859  -7.671  0.00  0.00    +0.000 HD
ATOM      6  H   UNL     1      -2.126 -12.913  -7.290  0.00  0.00    +0.000 HD
BRANCH   4   7
ATOM      7  C   UNL     1      -0.287 -12.048  -6.561  0.00  0.00    +0.000 C 
ATOM      8  H   UNL     1      -0.729 -11.054  -6.432  0.00  0.00    +0.000 HD
ATOM      9  H   UNL     1       0.743 -11.904  -6.905  0.00  0.00    +0.000 HD
BRANCH   7  10
ATOM     10  C   UNL     1      -0.271 -12.763  -5.219  0.00  0.00    +0.000 C 
ATOM     11  H   UNL     1      -0.453 -13.835  -5.342  0.00  0.00    +0.000 HD
ATOM     12  H   UNL     1      -1.038 -12.359  -4.550  0.00  0.00    +0.000 HD
ATOM     13  H   UNL     1       0.702 -12.637  -4.734  0.00  0.00    +0.000 HD
ENDBRANCH   7  10
ENDBRANCH   4   7
ENDBRANCH   1   4
BRANCH   1  14
ATOM     14  C   UNL     1      -0.878 -13.209 -10.097  0.00  0.00    +0.000 C 
ATOM     15  H   UNL     1      -0.634 -14.186  -9.662  0.00  0.00    +0.000 HD
ATOM     16  H   UNL     1      -1.850 -13.323 -10.594  0.00  0.00    +0.000 HD
BRANCH  14  17
ATOM     17  C   UNL     1       0.179 -12.832 -11.130  0.00  0.00    +0.000 C 
ATOM     18  H   UNL     1       0.285 -11.743 -11.175  0.00  0.00    +0.000 HD
ATOM     19  H   UNL     1       1.145 -13.263 -10.845  0.00  0.00    +0.000 HD
BRANCH  17  21
ATOM     20  O   UNL     1      -1.140 -14.032 -12.734  0.00  0.00    +0.000 OA
ATOM     21  C   UNL     1      -0.158 -13.317 -12.526  0.00  0.00    +0.000 C 
BRANCH  21  22
ATOM     22  C   UNL     1       0.741 -12.880 -13.651  0.00  0.00    +0.000 C 
ATOM     23  H   UNL     1       1.108 -13.756 -14.193  0.00  0.00    +0.000 HD
ATOM     24  H   UNL     1       0.181 -12.244 -14.340  0.00  0.00    +0.000 HD
ATOM     25  H   UNL     1       1.596 -12.334 -13.245  0.00  0.00    +0.000 HD
ENDBRANCH  21  22
ENDBRANCH  17  21
ENDBRANCH  14  17
ENDBRANCH   1  14
TORSDOF 7
ENDMDL
MODEL 7
REMARK VINA RESULT:    -3.705     28.226     29.347
REMARK INTER + INTRA:          -5.182
REMARK INTER:                  -4.795
REMARK INTRA:                  -0.386
REMARK UNBOUND:                -0.176
REMARK  Name = 8093
REMARK  7 active torsions:
REMARK  status: ('A' for Active; 'I' for Inactive)
REMARK    1  A    between atoms: C_2  and  C_3
REMARK    2  A    between atoms: C_2  and  C_4
REMARK    3  A    between atoms: C_3  and  C_5
REMARK    4  A    between atoms: C_4  and  C_6
REMARK    5  A    between atoms: C_5  and  C_7
REMARK    6  A    between atoms: C_6  and  C_8
REMARK    7  A    between atoms: C_8  and  C_9
REMARK                            x       y       z     vdW  Elec       q    Type
REMARK                         _______ _______ _______ _____ _____    ______ ____
ROOT
ATOM      1  C   UNL     1       6.620  -9.640 -24.657  0.00  0.00    +0.000 C 
ATOM      2  H   UNL     1       6.726 -10.457 -23.934  0.00  0.00    +0.000 HD
ATOM      3  H   UNL     1       7.215  -8.797 -24.285  0.00  0.00    +0.000 HD
ENDROOT
BRANCH   1   4
ATOM      4  C   UNL     1       5.150  -9.225 -24.756  0.00  0.00    +0.000 C 
ATOM      5  H   UNL     1       4.917  -8.938 -25.789  0.00  0.00    +0.000 HD
ATOM      6  H   UNL     1       4.975  -8.342 -24.128  0.00  0.00    +0.000 HD
BRANCH   4   7
ATOM      7  C   UNL     1       4.222 -10.357 -24.315  0.00  0.00    +0.000 C 
ATOM      8  H   UNL     1       4.778 -11.078 -23.705  0.00  0.00    +0.000 HD
ATOM      9  H   UNL     1       3.848 -10.894 -25.193  0.00  0.00    +0.000 HD
BRANCH   7  10
ATOM     10  C   UNL     1       3.044  -9.830 -23.511  0.00  0.00    +0.000 C 
ATOM     11  H   UNL     1       2.771  -8.819 -23.831  0.00  0.00    +0.000 HD
ATOM     12  H   UNL     1       3.280  -9.800 -22.443  0.00  0.00    +0.000 HD
ATOM     13  H   UNL     1       2.172 -10.477 -23.649  0.00  0.00    +0.000 HD
ENDBRANCH   7  10
ENDBRANCH   4   7
ENDBRANCH   1   4
BRANCH   1  14
ATOM     14  C   UNL     1       7.164 -10.085 -26.018  0.00  0.00    +0.000 C 
ATOM     15  H   UNL     1       6.396  -9.932 -26.787  0.00  0.00    +0.000 HD
ATOM     16  H   UNL     1       8.012  -9.445 -26.294  0.00  0.00    +0.000 HD
BRANCH  14  17
ATOM     17  C   UNL     1       7.606 -11.544 -26.022  0.00  0.00    +0.000 C 
ATOM     18  H   UNL     1       8.270 -11.731 -26.873  0.00  0.00    +0.000 HD
ATOM     19  H   UNL     1       8.154 -11.767 -25.100  0.00  0.00    +0.000 HD
BRANCH  17  21
ATOM     20  O   UNL     1       5.655 -12.466 -27.066  0.00  0.00    +0.000 OA
ATOM     21  C   UNL     1       6.447 -12.515 -26.124  0.00  0.00    +0.000 C 
BRANCH  21  22
ATOM     22  C   UNL     1       6.309 -13.552 -25.042  0.00  0.00    +0.000 C 
ATOM     23  H   UNL     1       7.180 -14.213 -25.049  0.00  0.00    +0.000 HD
ATOM     24  H   UNL     1       6.245 -13.059 -24.069  0.00  0.00    +0.000 HD
ATOM     25  H   UNL     1       5.412 -14.150 -25.222  0.00  0.00    +0.000 HD
ENDBRANCH  21  22
ENDBRANCH  17  21
ENDBRANCH  14  17
ENDBRANCH   1  14
TORSDOF 7
ENDMDL
MODEL 8
REMARK VINA RESULT:    -3.670     33.148     34.333
REMARK INTER + INTRA:          -5.134
REMARK INTER:                  -4.998
REMARK INTRA:                  -0.136
REMARK UNBOUND:                -0.176
REMARK  Name = 8093
REMARK  7 active torsions:
REMARK  status: ('A' for Active; 'I' for Inactive)
REMARK    1  A    between atoms: C_2  and  C_3
REMARK    2  A    between atoms: C_2  and  C_4
REMARK    3  A    between atoms: C_3  and  C_5
REMARK    4  A    between atoms: C_4  and  C_6
REMARK    5  A    between atoms: C_5  and  C_7
REMARK    6  A    between atoms: C_6  and  C_8
REMARK    7  A    between atoms: C_8  and  C_9
REMARK                            x       y       z     vdW  Elec       q    Type
REMARK                         _______ _______ _______ _____ _____    ______ ____
ROOT
ATOM      1  C   UNL     1     -17.712 -12.010   4.166  0.00  0.00    +0.000 C 
ATOM      2  H   UNL     1     -18.162 -12.061   3.167  0.00  0.00    +0.000 HD
ATOM      3  H   UNL     1     -17.413 -13.030   4.439  0.00  0.00    +0.000 HD
ENDROOT
BRANCH   1   4
ATOM      4  C   UNL     1     -18.744 -11.492   5.172  0.00  0.00    +0.000 C 
ATOM      5  H   UNL     1     -19.622 -11.112   4.635  0.00  0.00    +0.000 HD
ATOM      6  H   UNL     1     -18.318 -10.651   5.733  0.00  0.00    +0.000 HD
BRANCH   4   7
ATOM      7  C   UNL     1     -19.171 -12.591   6.145  0.00  0.00    +0.000 C 
ATOM      8  H   UNL     1     -18.319 -12.890   6.766  0.00  0.00    +0.000 HD
ATOM      9  H   UNL     1     -19.493 -13.477   5.587  0.00  0.00    +0.000 HD
BRANCH   7  10
ATOM     10  C   UNL     1     -20.306 -12.127   7.044  0.00  0.00    +0.000 C 
ATOM     11  H   UNL     1     -19.981 -12.072   8.088  0.00  0.00    +0.000 HD
ATOM     12  H   UNL     1     -21.158 -12.811   6.985  0.00  0.00    +0.000 HD
ATOM     13  H   UNL     1     -20.647 -11.132   6.742  0.00  0.00    +0.000 HD
ENDBRANCH   7  10
ENDBRANCH   4   7
ENDBRANCH   1   4
BRANCH   1  14
ATOM     14  C   UNL     1     -16.474 -11.109   4.127  0.00  0.00    +0.000 C 
ATOM     15  H   UNL     1     -16.616 -10.263   4.811  0.00  0.00    +0.000 HD
ATOM     16  H   UNL     1     -15.608 -11.671   4.502  0.00  0.00    +0.000 HD
BRANCH  14  17
ATOM     17  C   UNL     1     -16.174 -10.589   2.726  0.00  0.00    +0.000 C 
ATOM     18  H   UNL     1     -15.092 -10.495   2.586  0.00  0.00    +0.000 HD
ATOM     19  H   UNL     1     -16.560 -11.292   1.979  0.00  0.00    +0.000 HD
BRANCH  17  21
ATOM     20  O   UNL     1     -17.664  -8.768   3.188  0.00  0.00    +0.000 OA
ATOM     21  C   UNL     1     -16.791  -9.231   2.453  0.00  0.00    +0.000 C 
BRANCH  21  22
ATOM     22  C   UNL     1     -16.285  -8.463   1.261  0.00  0.00    +0.000 C 
ATOM     23  H   UNL     1     -15.279  -8.802   1.003  0.00  0.00    +0.000 HD
ATOM     24  H   UNL     1     -16.948  -8.632   0.410  0.00  0.00    +0.000 HD
ATOM     25  H   UNL     1     -16.247  -7.398   1.503  0.00  0.00    +0.000 HD
ENDBRANCH  21  22
ENDBRANCH  17  21
ENDBRANCH  14  17
ENDBRANCH   1  14
TORSDOF 7
ENDMDL
MODEL 9
REMARK VINA RESULT:    -3.645     10.140     11.266
REMARK INTER + INTRA:          -5.099
REMARK INTER:                  -4.844
REMARK INTRA:                  -0.255
REMARK UNBOUND:                -0.176
REMARK  Name = 8093
REMARK  7 active torsions:
REMARK  status: ('A' for Active; 'I' for Inactive)
REMARK    1  A    between atoms: C_2  and  C_3
REMARK    2  A    between atoms: C_2  and  C_4
REMARK    3  A    between atoms: C_3  and  C_5
REMARK    4  A    between atoms: C_4  and  C_6
REMARK    5  A    between atoms: C_5  and  C_7
REMARK    6  A    between atoms: C_6  and  C_8
REMARK    7  A    between atoms: C_8  and  C_9
REMARK                            x       y       z     vdW  Elec       q    Type
REMARK                         _______ _______ _______ _____ _____    ______ ____
ROOT
ATOM      1  C   UNL     1       2.883  14.457  -8.968  0.00  0.00    +0.000 C 
ATOM      2  H   UNL     1       2.054  13.970  -8.442  0.00  0.00    +0.000 HD
ATOM      3  H   UNL     1       2.446  15.193  -9.654  0.00  0.00    +0.000 HD
ENDROOT
BRANCH   1   4
ATOM      4  C   UNL     1       3.669  13.416  -9.770  0.00  0.00    +0.000 C 
ATOM      5  H   UNL     1       4.251  12.786  -9.084  0.00  0.00    +0.000 HD
ATOM      6  H   UNL     1       4.385  13.924 -10.428  0.00  0.00    +0.000 HD
BRANCH   4   7
ATOM      7  C   UNL     1       2.737  12.540 -10.607  0.00  0.00    +0.000 C 
ATOM      8  H   UNL     1       2.029  13.170 -11.157  0.00  0.00    +0.000 HD
ATOM      9  H   UNL     1       2.150  11.888  -9.951  0.00  0.00    +0.000 HD
BRANCH   7  10
ATOM     10  C   UNL     1       3.515  11.685 -11.595  0.00  0.00    +0.000 C 
ATOM     11  H   UNL     1       4.172  12.302 -12.216  0.00  0.00    +0.000 HD
ATOM     12  H   UNL     1       2.837  11.134 -12.255  0.00  0.00    +0.000 HD
ATOM     13  H   UNL     1       4.135  10.958 -11.061  0.00  0.00    +0.000 HD
ENDBRANCH   7  10
ENDBRANCH   4   7
ENDBRANCH   1   4
BRANCH   1  14
ATOM     14  C   UNL     1       3.783  15.174  -7.958  0.00  0.00    +0.000 C 
ATOM     15  H   UNL     1       3.748  16.256  -8.138  0.00  0.00    +0.000 HD
ATOM     16  H   UNL     1       3.389  15.014  -6.946  0.00  0.00    +0.000 HD
BRANCH  14  17
ATOM     17  C   UNL     1       5.229  14.693  -8.020  0.00  0.00    +0.000 C 
ATOM     18  H   UNL     1       5.548  14.339  -7.033  0.00  0.00    +0.000 HD
ATOM     19  H   UNL     1       5.313  13.862  -8.730  0.00  0.00    +0.000 HD
BRANCH  17  21
ATOM     20  O   UNL     1       6.341  16.805  -7.788  0.00  0.00    +0.000 OA
ATOM     21  C   UNL     1       6.197  15.777  -8.452  0.00  0.00    +0.000 C 
BRANCH  21  22
ATOM     22  C   UNL     1       6.988  15.544  -9.711  0.00  0.00    +0.000 C 
ATOM     23  H   UNL     1       7.470  16.474 -10.022  0.00  0.00    +0.000 HD
ATOM     24  H   UNL     1       7.755  14.790  -9.526  0.00  0.00    +0.000 HD
ATOM     25  H   UNL     1       6.317  15.212 -10.508  0.00  0.00    +0.000 HD
ENDBRANCH  21  22
ENDBRANCH  17  21
ENDBRANCH  14  17
ENDBRANCH   1  14
TORSDOF 7
ENDMDL
MODEL 10
REMARK VINA RESULT:    -3.470     10.461     11.458
REMARK INTER + INTRA:          -4.863
REMARK INTER:                  -4.687
REMARK INTRA:                  -0.176
REMARK UNBOUND:                -0.176
REMARK  Name = 8093
REMARK  7 active torsions:
REMARK  status: ('A' for Active; 'I' for Inactive)
REMARK    1  A    between atoms: C_2  and  C_3
REMARK    2  A    between atoms: C_2  and  C_4
REMARK    3  A    between atoms: C_3  and  C_5
REMARK    4  A    between atoms: C_4  and  C_6
REMARK    5  A    between atoms: C_5  and  C_7
REMARK    6  A    between atoms: C_6  and  C_8
REMARK    7  A    between atoms: C_8  and  C_9
REMARK                            x       y       z     vdW  Elec       q    Type
REMARK                         _______ _______ _______ _____ _____    ______ ____
ROOT
ATOM      1  C   UNL     1       4.120  13.903  -9.932  0.00  0.00    +0.000 C 
ATOM      2  H   UNL     1       5.027  13.295  -9.832  0.00  0.00    +0.000 HD
ATOM      3  H   UNL     1       4.306  14.637 -10.725  0.00  0.00    +0.000 HD
ENDROOT
BRANCH   1   4
ATOM      4  C   UNL     1       3.840  14.633  -8.615  0.00  0.00    +0.000 C 
ATOM      5  H   UNL     1       3.092  14.075  -8.037  0.00  0.00    +0.000 HD
ATOM      6  H   UNL     1       3.413  15.621  -8.827  0.00  0.00    +0.000 HD
BRANCH   4   7
ATOM      7  C   UNL     1       5.115  14.794  -7.787  0.00  0.00    +0.000 C 
ATOM      8  H   UNL     1       5.450  13.815  -7.424  0.00  0.00    +0.000 HD
ATOM      9  H   UNL     1       4.912  15.415  -6.908  0.00  0.00    +0.000 HD
BRANCH   7  10
ATOM     10  C   UNL     1       6.231  15.430  -8.602  0.00  0.00    +0.000 C 
ATOM     11  H   UNL     1       7.202  15.281  -8.120  0.00  0.00    +0.000 HD
ATOM     12  H   UNL     1       6.067  16.506  -8.718  0.00  0.00    +0.000 HD
ATOM     13  H   UNL     1       6.274  14.983  -9.600  0.00  0.00    +0.000 HD
ENDBRANCH   7  10
ENDBRANCH   4   7
ENDBRANCH   1   4
BRANCH   1  14
ATOM     14  C   UNL     1       2.942  13.009 -10.331  0.00  0.00    +0.000 C 
ATOM     15  H   UNL     1       2.420  12.666  -9.430  0.00  0.00    +0.000 HD
ATOM     16  H   UNL     1       2.218  13.602 -10.904  0.00  0.00    +0.000 HD
BRANCH  14  17
ATOM     17  C   UNL     1       3.378  11.804 -11.157  0.00  0.00    +0.000 C 
ATOM     18  H   UNL     1       4.429  11.572 -10.954  0.00  0.00    +0.000 HD
ATOM     19  H   UNL     1       2.773  10.931 -10.888  0.00  0.00    +0.000 HD
BRANCH  17  21
ATOM     20  O   UNL     1       2.132  12.140 -13.178  0.00  0.00    +0.000 OA
ATOM     21  C   UNL     1       3.240  12.027 -12.650  0.00  0.00    +0.000 C 
BRANCH  21  22
ATOM     22  C   UNL     1       4.504  12.124 -13.462  0.00  0.00    +0.000 C 
ATOM     23  H   UNL     1       5.372  12.110 -12.797  0.00  0.00    +0.000 HD
ATOM     24  H   UNL     1       4.565  11.274 -14.145  0.00  0.00    +0.000 HD
ATOM     25  H   UNL     1       4.506  13.061 -14.024  0.00  0.00    +0.000 HD
ENDBRANCH  21  22
ENDBRANCH  17  21
ENDBRANCH  14  17
ENDBRANCH   1  14
TORSDOF 7
ENDMDL
