MODEL 1
REMARK VINA RESULT:    -3.591      0.000      0.000
REMARK INTER + INTRA:          -4.388
REMARK INTER:                  -4.373
REMARK INTRA:                  -0.016
REMARK UNBOUND:                -0.063
REMARK  Name = 22386
REMARK  5 active torsions:
REMARK  status: ('A' for Active; 'I' for Inactive)
REMARK    1  A    between atoms: O_1  and  C_3
REMARK    2  A    between atoms: C_2  and  C_3
REMARK    3  A    between atoms: C_2  and  C_4
REMARK    4  A    between atoms: C_3  and  C_5
REMARK    5  A    between atoms: C_4  and  C_6
REMARK                            x       y       z     vdW  Elec       q    Type
REMARK                         _______ _______ _______ _____ _____    ______ ____
ROOT
ATOM      1  C   UNL     1       7.414  -0.197  -3.952  0.00  0.00    +0.000 C 
ATOM      2  H   UNL     1       7.747   0.848  -3.945  0.00  0.00    +0.000 HD
ATOM      3  H   UNL     1       7.165  -0.470  -2.919  0.00  0.00    +0.000 HD
ENDROOT
BRANCH   1   4
ATOM      4  C   UNL     1       6.161  -0.303  -4.825  0.00  0.00    +0.000 C 
ATOM      5  H   UNL     1       5.781  -1.330  -4.805  0.00  0.00    +0.000 HD
ATOM      6  H   UNL     1       6.405  -0.068  -5.868  0.00  0.00    +0.000 HD
BRANCH   4   7
ATOM      7  C   UNL     1       5.070   0.643  -4.349  0.00  0.00    +0.000 C 
ATOM      8  H   UNL     1       4.670   0.308  -3.387  0.00  0.00    +0.000 HD
ATOM      9  H   UNL     1       4.243   0.680  -5.065  0.00  0.00    +0.000 HD
ATOM     10  H   UNL     1       5.460   1.658  -4.220  0.00  0.00    +0.000 HD
ENDBRANCH   4   7
ENDBRANCH   1   4
BRANCH   1  11
ATOM     11  C   UNL     1       8.548  -1.094  -4.458  0.00  0.00    +0.000 C 
ATOM     12  H   UNL     1       8.131  -1.965  -4.977  0.00  0.00    +0.000 HD
BRANCH  11  13
ATOM     13  C   UNL     1       9.435  -1.573  -3.317  0.00  0.00    +0.000 C 
ATOM     14  H   UNL     1       8.878  -2.223  -2.632  0.00  0.00    +0.000 HD
ATOM     15  H   UNL     1      10.304  -2.122  -3.692  0.00  0.00    +0.000 HD
ATOM     16  H   UNL     1       9.787  -0.722  -2.724  0.00  0.00    +0.000 HD
ENDBRANCH  11  13
BRANCH  11  17
ATOM     17  O   UNL     1       9.353  -0.384  -5.396  0.00  0.00    +0.000 OA
ATOM     18  H   UNL     1       9.340  -0.878  -6.234  0.00  0.00    +0.000 HD
ENDBRANCH  11  17
ENDBRANCH   1  11
TORSDOF 5
ENDMDL
MODEL 2
REMARK VINA RESULT:    -3.542      2.107      2.390
REMARK INTER + INTRA:          -4.330
REMARK INTER:                  -4.230
REMARK INTRA:                  -0.100
REMARK UNBOUND:                -0.063
REMARK  Name = 22386
REMARK  5 active torsions:
REMARK  status: ('A' for Active; 'I' for Inactive)
REMARK    1  A    between atoms: O_1  and  C_3
REMARK    2  A    between atoms: C_2  and  C_3
REMARK    3  A    between atoms: C_2  and  C_4
REMARK    4  A    between atoms: C_3  and  C_5
REMARK    5  A    between atoms: C_4  and  C_6
REMARK                            x       y       z     vdW  Elec       q    Type
REMARK                         _______ _______ _______ _____ _____    ______ ____
ROOT
ATOM      1  C   UNL     1       5.905  -0.124  -2.499  0.00  0.00    +0.000 C 
ATOM      2  H   UNL     1       6.662   0.221  -1.783  0.00  0.00    +0.000 HD
ATOM      3  H   UNL     1       5.019  -0.419  -1.922  0.00  0.00    +0.000 HD
ENDROOT
BRANCH   1   4
ATOM      4  C   UNL     1       5.548   1.039  -3.428  0.00  0.00    +0.000 C 
ATOM      5  H   UNL     1       6.422   1.686  -3.565  0.00  0.00    +0.000 HD
ATOM      6  H   UNL     1       4.757   1.652  -2.981  0.00  0.00    +0.000 HD
BRANCH   4   7
ATOM      7  C   UNL     1       5.079   0.541  -4.786  0.00  0.00    +0.000 C 
ATOM      8  H   UNL     1       5.701  -0.294  -5.120  0.00  0.00    +0.000 HD
ATOM      9  H   UNL     1       5.142   1.334  -5.538  0.00  0.00    +0.000 HD
ATOM     10  H   UNL     1       4.041   0.194  -4.739  0.00  0.00    +0.000 HD
ENDBRANCH   4   7
ENDBRANCH   1   4
BRANCH   1  11
ATOM     11  C   UNL     1       6.439  -1.335  -3.269  0.00  0.00    +0.000 C 
ATOM     12  H   UNL     1       6.006  -1.358  -4.276  0.00  0.00    +0.000 HD
BRANCH  11  13
ATOM     13  C   UNL     1       6.113  -2.641  -2.557  0.00  0.00    +0.000 C 
ATOM     14  H   UNL     1       6.982  -3.309  -2.541  0.00  0.00    +0.000 HD
ATOM     15  H   UNL     1       5.790  -2.462  -1.527  0.00  0.00    +0.000 HD
ATOM     16  H   UNL     1       5.316  -3.175  -3.086  0.00  0.00    +0.000 HD
ENDBRANCH  11  13
BRANCH  11  17
ATOM     17  O   UNL     1       7.854  -1.237  -3.417  0.00  0.00    +0.000 OA
ATOM     18  H   UNL     1       8.257  -1.976  -2.930  0.00  0.00    +0.000 HD
ENDBRANCH  11  17
ENDBRANCH   1  11
TORSDOF 5
ENDMDL
MODEL 3
REMARK VINA RESULT:    -3.493      8.794      9.026
REMARK INTER + INTRA:          -4.271
REMARK INTER:                  -4.241
REMARK INTRA:                  -0.030
REMARK UNBOUND:                -0.063
REMARK  Name = 22386
REMARK  5 active torsions:
REMARK  status: ('A' for Active; 'I' for Inactive)
REMARK    1  A    between atoms: O_1  and  C_3
REMARK    2  A    between atoms: C_2  and  C_3
REMARK    3  A    between atoms: C_2  and  C_4
REMARK    4  A    between atoms: C_3  and  C_5
REMARK    5  A    between atoms: C_4  and  C_6
REMARK                            x       y       z     vdW  Elec       q    Type
REMARK                         _______ _______ _______ _____ _____    ______ ____
ROOT
ATOM      1  C   UNL     1       9.782   7.681  -3.871  0.00  0.00    +0.000 C 
ATOM      2  H   UNL     1       9.218   8.227  -3.104  0.00  0.00    +0.000 HD
ATOM      3  H   UNL     1       9.503   6.622  -3.792  0.00  0.00    +0.000 HD
ENDROOT
BRANCH   1   4
ATOM      4  C   UNL     1       9.378   8.216  -5.246  0.00  0.00    +0.000 C 
ATOM      5  H   UNL     1      10.271   8.516  -5.805  0.00  0.00    +0.000 HD
ATOM      6  H   UNL     1       8.750   9.108  -5.136  0.00  0.00    +0.000 HD
BRANCH   4   7
ATOM      7  C   UNL     1       8.615   7.172  -6.048  0.00  0.00    +0.000 C 
ATOM      8  H   UNL     1       8.326   6.336  -5.403  0.00  0.00    +0.000 HD
ATOM      9  H   UNL     1       9.230   6.776  -6.862  0.00  0.00    +0.000 HD
ATOM     10  H   UNL     1       7.704   7.599  -6.480  0.00  0.00    +0.000 HD
ENDBRANCH   4   7
ENDBRANCH   1   4
BRANCH   1  11
ATOM     11  C   UNL     1      11.284   7.834  -3.610  0.00  0.00    +0.000 C 
ATOM     12  H   UNL     1      11.822   6.966  -4.009  0.00  0.00    +0.000 HD
BRANCH  11  13
ATOM     13  C   UNL     1      11.584   7.965  -2.123  0.00  0.00    +0.000 C 
ATOM     14  H   UNL     1      12.369   7.264  -1.817  0.00  0.00    +0.000 HD
ATOM     15  H   UNL     1      11.902   8.981  -1.870  0.00  0.00    +0.000 HD
ATOM     16  H   UNL     1      10.696   7.718  -1.532  0.00  0.00    +0.000 HD
ENDBRANCH  11  13
BRANCH  11  17
ATOM     17  O   UNL     1      11.782   8.989  -4.281  0.00  0.00    +0.000 OA
ATOM     18  H   UNL     1      12.595   9.269  -3.827  0.00  0.00    +0.000 HD
ENDBRANCH  11  17
ENDBRANCH   1  11
TORSDOF 5
ENDMDL
MODEL 4
REMARK VINA RESULT:    -3.349      8.609      9.225
REMARK INTER + INTRA:          -4.097
REMARK INTER:                  -4.081
REMARK INTRA:                  -0.016
REMARK UNBOUND:                -0.063
REMARK  Name = 22386
REMARK  5 active torsions:
REMARK  status: ('A' for Active; 'I' for Inactive)
REMARK    1  A    between atoms: O_1  and  C_3
REMARK    2  A    between atoms: C_2  and  C_3
REMARK    3  A    between atoms: C_2  and  C_4
REMARK    4  A    between atoms: C_3  and  C_5
REMARK    5  A    between atoms: C_4  and  C_6
REMARK                            x       y       z     vdW  Elec       q    Type
REMARK                         _______ _______ _______ _____ _____    ______ ____
ROOT
ATOM      1  C   UNL     1      10.628   7.250  -3.797  0.00  0.00    +0.000 C 
ATOM      2  H   UNL     1      11.593   7.200  -4.316  0.00  0.00    +0.000 HD
ATOM      3  H   UNL     1      10.263   6.221  -3.684  0.00  0.00    +0.000 HD
ENDROOT
BRANCH   1   4
ATOM      4  C   UNL     1      10.847   7.870  -2.416  0.00  0.00    +0.000 C 
ATOM      5  H   UNL     1       9.881   8.064  -1.938  0.00  0.00    +0.000 HD
ATOM      6  H   UNL     1      11.362   8.834  -2.511  0.00  0.00    +0.000 HD
BRANCH   4   7
ATOM      7  C   UNL     1      11.671   6.958  -1.521  0.00  0.00    +0.000 C 
ATOM      8  H   UNL     1      12.117   6.150  -2.110  0.00  0.00    +0.000 HD
ATOM      9  H   UNL     1      11.050   6.506  -0.742  0.00  0.00    +0.000 HD
ATOM     10  H   UNL     1      12.482   7.512  -1.036  0.00  0.00    +0.000 HD
ENDBRANCH   4   7
ENDBRANCH   1   4
BRANCH   1  11
ATOM     11  C   UNL     1       9.632   8.054  -4.640  0.00  0.00    +0.000 C 
ATOM     12  H   UNL     1       8.868   8.498  -3.991  0.00  0.00    +0.000 HD
BRANCH  11  13
ATOM     13  C   UNL     1       8.952   7.182  -5.687  0.00  0.00    +0.000 C 
ATOM     14  H   UNL     1       8.997   7.650  -6.677  0.00  0.00    +0.000 HD
ATOM     15  H   UNL     1       9.416   6.193  -5.744  0.00  0.00    +0.000 HD
ATOM     16  H   UNL     1       7.890   7.058  -5.447  0.00  0.00    +0.000 HD
ENDBRANCH  11  13
BRANCH  11  17
ATOM     17  O   UNL     1      10.303   9.124  -5.301  0.00  0.00    +0.000 OA
ATOM     18  H   UNL     1       9.650   9.591  -5.850  0.00  0.00    +0.000 HD
ENDBRANCH  11  17
ENDBRANCH   1  11
TORSDOF 5
ENDMDL
MODEL 5
REMARK VINA RESULT:    -3.283      2.038      2.055
REMARK INTER + INTRA:          -4.018
REMARK INTER:                  -3.973
REMARK INTRA:                  -0.045
REMARK UNBOUND:                -0.063
REMARK  Name = 22386
REMARK  5 active torsions:
REMARK  status: ('A' for Active; 'I' for Inactive)
REMARK    1  A    between atoms: O_1  and  C_3
REMARK    2  A    between atoms: C_2  and  C_3
REMARK    3  A    between atoms: C_2  and  C_4
REMARK    4  A    between atoms: C_3  and  C_5
REMARK    5  A    between atoms: C_4  and  C_6
REMARK                            x       y       z     vdW  Elec       q    Type
REMARK                         _______ _______ _______ _____ _____    ______ ____
ROOT
ATOM      1  C   UNL     1       6.679  -1.549  -3.980  0.00  0.00    +0.000 C 
ATOM      2  H   UNL     1       5.731  -1.871  -3.531  0.00  0.00    +0.000 HD
ATOM      3  H   UNL     1       6.972  -2.312  -4.712  0.00  0.00    +0.000 HD
ENDROOT
BRANCH   1   4
ATOM      4  C   UNL     1       6.451  -0.214  -4.693  0.00  0.00    +0.000 C 
ATOM      5  H   UNL     1       6.227  -0.392  -5.751  0.00  0.00    +0.000 HD
ATOM      6  H   UNL     1       7.360   0.398  -4.653  0.00  0.00    +0.000 HD
BRANCH   4   7
ATOM      7  C   UNL     1       5.305   0.564  -4.065  0.00  0.00    +0.000 C 
ATOM      8  H   UNL     1       4.553  -0.124  -3.667  0.00  0.00    +0.000 HD
ATOM      9  H   UNL     1       4.818   1.209  -4.803  0.00  0.00    +0.000 HD
ATOM     10  H   UNL     1       5.662   1.191  -3.242  0.00  0.00    +0.000 HD
ENDBRANCH   4   7
ENDBRANCH   1   4
BRANCH   1  11
ATOM     11  C   UNL     1       7.754  -1.445  -2.893  0.00  0.00    +0.000 C 
ATOM     12  H   UNL     1       7.637  -0.505  -2.341  0.00  0.00    +0.000 HD
BRANCH  11  13
ATOM     13  C   UNL     1       9.156  -1.506  -3.483  0.00  0.00    +0.000 C 
ATOM     14  H   UNL     1       9.463  -2.542  -3.661  0.00  0.00    +0.000 HD
ATOM     15  H   UNL     1       9.214  -0.956  -4.428  0.00  0.00    +0.000 HD
ATOM     16  H   UNL     1       9.883  -1.078  -2.784  0.00  0.00    +0.000 HD
ENDBRANCH  11  13
BRANCH  11  17
ATOM     17  O   UNL     1       7.606  -2.509  -1.956  0.00  0.00    +0.000 OA
ATOM     18  H   UNL     1       8.486  -2.893  -1.799  0.00  0.00    +0.000 HD
ENDBRANCH  11  17
ENDBRANCH   1  11
TORSDOF 5
ENDMDL
MODEL 6
REMARK VINA RESULT:    -3.242     22.085     22.701
REMARK INTER + INTRA:          -3.969
REMARK INTER:                  -3.910
REMARK INTRA:                  -0.059
REMARK UNBOUND:                -0.063
REMARK  Name = 22386
REMARK  5 active torsions:
REMARK  status: ('A' for Active; 'I' for Inactive)
REMARK    1  A    between atoms: O_1  and  C_3
REMARK    2  A    between atoms: C_2  and  C_3
REMARK    3  A    between atoms: C_2  and  C_4
REMARK    4  A    between atoms: C_3  and  C_5
REMARK    5  A    between atoms: C_4  and  C_6
REMARK                            x       y       z     vdW  Elec       q    Type
REMARK                         _______ _______ _______ _____ _____    ______ ____
ROOT
ATOM      1  C   UNL     1       5.604  -9.165 -24.828  0.00  0.00    +0.000 C 
ATOM      2  H   UNL     1       6.385  -8.553 -24.360  0.00  0.00    +0.000 HD
ATOM      3  H   UNL     1       5.497  -8.825 -25.866  0.00  0.00    +0.000 HD
ENDROOT
BRANCH   1   4
ATOM      4  C   UNL     1       6.056 -10.627 -24.812  0.00  0.00    +0.000 C 
ATOM      5  H   UNL     1       5.221 -11.277 -25.097  0.00  0.00    +0.000 HD
ATOM      6  H   UNL     1       6.364 -10.918 -23.801  0.00  0.00    +0.000 HD
BRANCH   4   7
ATOM      7  C   UNL     1       7.217 -10.861 -25.767  0.00  0.00    +0.000 C 
ATOM      8  H   UNL     1       8.094 -11.218 -25.218  0.00  0.00    +0.000 HD
ATOM      9  H   UNL     1       7.493  -9.936 -26.282  0.00  0.00    +0.000 HD
ATOM     10  H   UNL     1       6.959 -11.611 -26.522  0.00  0.00    +0.000 HD
ENDBRANCH   4   7
ENDBRANCH   1   4
BRANCH   1  11
ATOM     11  C   UNL     1       4.279  -8.963 -24.086  0.00  0.00    +0.000 C 
ATOM     12  H   UNL     1       4.472  -8.592 -23.073  0.00  0.00    +0.000 HD
BRANCH  11  13
ATOM     13  C   UNL     1       3.483 -10.258 -23.998  0.00  0.00    +0.000 C 
ATOM     14  H   UNL     1       2.674 -10.173 -23.264  0.00  0.00    +0.000 HD
ATOM     15  H   UNL     1       3.050 -10.525 -24.967  0.00  0.00    +0.000 HD
ATOM     16  H   UNL     1       4.126 -11.079 -23.663  0.00  0.00    +0.000 HD
ENDBRANCH  11  13
BRANCH  11  17
ATOM     17  O   UNL     1       3.488  -7.984 -24.755  0.00  0.00    +0.000 OA
ATOM     18  H   UNL     1       2.775  -8.449 -25.226  0.00  0.00    +0.000 HD
ENDBRANCH  11  17
ENDBRANCH   1  11
TORSDOF 5
ENDMDL
MODEL 7
REMARK VINA RESULT:    -3.128     16.566     17.133
REMARK INTER + INTRA:          -3.831
REMARK INTER:                  -3.781
REMARK INTRA:                  -0.050
REMARK UNBOUND:                -0.063
REMARK  Name = 22386
REMARK  5 active torsions:
REMARK  status: ('A' for Active; 'I' for Inactive)
REMARK    1  A    between atoms: O_1  and  C_3
REMARK    2  A    between atoms: C_2  and  C_3
REMARK    3  A    between atoms: C_2  and  C_4
REMARK    4  A    between atoms: C_3  and  C_5
REMARK    5  A    between atoms: C_4  and  C_6
REMARK                            x       y       z     vdW  Elec       q    Type
REMARK                         _______ _______ _______ _____ _____    ______ ____
ROOT
ATOM      1  C   UNL     1      -1.759 -13.693 -10.684  0.00  0.00    +0.000 C 
ATOM      2  H   UNL     1      -2.537 -14.446 -10.504  0.00  0.00    +0.000 HD
ATOM      3  H   UNL     1      -2.265 -12.746 -10.913  0.00  0.00    +0.000 HD
ENDROOT
BRANCH   1   4
ATOM      4  C   UNL     1      -0.930 -13.535  -9.407  0.00  0.00    +0.000 C 
ATOM      5  H   UNL     1       0.117 -13.784  -9.611  0.00  0.00    +0.000 HD
ATOM      6  H   UNL     1      -1.285 -14.229  -8.636  0.00  0.00    +0.000 HD
BRANCH   4   7
ATOM      7  C   UNL     1      -1.008 -12.115  -8.866  0.00  0.00    +0.000 C 
ATOM      8  H   UNL     1      -0.003 -11.695  -8.758  0.00  0.00    +0.000 HD
ATOM      9  H   UNL     1      -1.491 -12.096  -7.885  0.00  0.00    +0.000 HD
ATOM     10  H   UNL     1      -1.576 -11.469  -9.543  0.00  0.00    +0.000 HD
ENDBRANCH   4   7
ENDBRANCH   1   4
BRANCH   1  11
ATOM     11  C   UNL     1      -0.901 -14.116 -11.880  0.00  0.00    +0.000 C 
ATOM     12  H   UNL     1      -0.452 -15.097 -11.689  0.00  0.00    +0.000 HD
BRANCH  11  13
ATOM     13  C   UNL     1       0.206 -13.108 -12.160  0.00  0.00    +0.000 C 
ATOM     14  H   UNL     1       1.194 -13.566 -12.043  0.00  0.00    +0.000 HD
ATOM     15  H   UNL     1       0.126 -12.701 -13.173  0.00  0.00    +0.000 HD
ATOM     16  H   UNL     1       0.157 -12.280 -11.445  0.00  0.00    +0.000 HD
ENDBRANCH  11  13
BRANCH  11  17
ATOM     17  O   UNL     1      -1.713 -14.239 -13.046  0.00  0.00    +0.000 OA
ATOM     18  H   UNL     1      -1.508 -15.093 -13.463  0.00  0.00    +0.000 HD
ENDBRANCH  11  17
ENDBRANCH   1  11
TORSDOF 5
ENDMDL
MODEL 8
REMARK VINA RESULT:    -3.075      3.065      3.536
REMARK INTER + INTRA:          -3.768
REMARK INTER:                  -3.748
REMARK INTRA:                  -0.020
REMARK UNBOUND:                -0.063
REMARK  Name = 22386
REMARK  5 active torsions:
REMARK  status: ('A' for Active; 'I' for Inactive)
REMARK    1  A    between atoms: O_1  and  C_3
REMARK    2  A    between atoms: C_2  and  C_3
REMARK    3  A    between atoms: C_2  and  C_4
REMARK    4  A    between atoms: C_3  and  C_5
REMARK    5  A    between atoms: C_4  and  C_6
REMARK                            x       y       z     vdW  Elec       q    Type
REMARK                         _______ _______ _______ _____ _____    ______ ____
ROOT
ATOM      1  C   UNL     1       6.758   0.608  -2.681  0.00  0.00    +0.000 C 
ATOM      2  H   UNL     1       6.869  -0.434  -3.008  0.00  0.00    +0.000 HD
ATOM      3  H   UNL     1       7.635   1.160  -3.042  0.00  0.00    +0.000 HD
ENDROOT
BRANCH   1   4
ATOM      4  C   UNL     1       5.492   1.186  -3.315  0.00  0.00    +0.000 C 
ATOM      5  H   UNL     1       5.618   2.262  -3.481  0.00  0.00    +0.000 HD
ATOM      6  H   UNL     1       4.638   1.060  -2.638  0.00  0.00    +0.000 HD
BRANCH   4   7
ATOM      7  C   UNL     1       5.174   0.511  -4.640  0.00  0.00    +0.000 C 
ATOM      8  H   UNL     1       5.025   1.261  -5.422  0.00  0.00    +0.000 HD
ATOM      9  H   UNL     1       4.262  -0.089  -4.566  0.00  0.00    +0.000 HD
ATOM     10  H   UNL     1       5.994  -0.146  -4.951  0.00  0.00    +0.000 HD
ENDBRANCH   4   7
ENDBRANCH   1   4
BRANCH   1  11
ATOM     11  C   UNL     1       6.715   0.664  -1.150  0.00  0.00    +0.000 C 
ATOM     12  H   UNL     1       5.683   0.806  -0.811  0.00  0.00    +0.000 HD
BRANCH  11  13
ATOM     13  C   UNL     1       7.578   1.795  -0.607  0.00  0.00    +0.000 C 
ATOM     14  H   UNL     1       8.471   1.941  -1.225  0.00  0.00    +0.000 HD
ATOM     15  H   UNL     1       7.021   2.736  -0.567  0.00  0.00    +0.000 HD
ATOM     16  H   UNL     1       7.931   1.554   0.402  0.00  0.00    +0.000 HD
ENDBRANCH  11  13
BRANCH  11  17
ATOM     17  O   UNL     1       7.178  -0.568  -0.602  0.00  0.00    +0.000 OA
ATOM     18  H   UNL     1       7.918  -0.879  -1.151  0.00  0.00    +0.000 HD
ENDBRANCH  11  17
ENDBRANCH   1  11
TORSDOF 5
ENDMDL
MODEL 9
REMARK VINA RESULT:    -3.020      9.347      9.696
REMARK INTER + INTRA:          -3.701
REMARK INTER:                  -3.648
REMARK INTRA:                  -0.053
REMARK UNBOUND:                -0.063
REMARK  Name = 22386
REMARK  5 active torsions:
REMARK  status: ('A' for Active; 'I' for Inactive)
REMARK    1  A    between atoms: O_1  and  C_3
REMARK    2  A    between atoms: C_2  and  C_3
REMARK    3  A    between atoms: C_2  and  C_4
REMARK    4  A    between atoms: C_3  and  C_5
REMARK    5  A    between atoms: C_4  and  C_6
REMARK                            x       y       z     vdW  Elec       q    Type
REMARK                         _______ _______ _______ _____ _____    ______ ____
ROOT
ATOM      1  C   UNL     1      11.329   7.150  -3.192  0.00  0.00    +0.000 C 
ATOM      2  H   UNL     1      11.599   6.087  -3.217  0.00  0.00    +0.000 HD
ATOM      3  H   UNL     1      10.236   7.214  -3.266  0.00  0.00    +0.000 HD
ENDROOT
BRANCH   1   4
ATOM      4  C   UNL     1      11.788   7.739  -1.856  0.00  0.00    +0.000 C 
ATOM      5  H   UNL     1      12.094   8.782  -1.995  0.00  0.00    +0.000 HD
ATOM      6  H   UNL     1      12.661   7.192  -1.481  0.00  0.00    +0.000 HD
BRANCH   4   7
ATOM      7  C   UNL     1      10.683   7.678  -0.813  0.00  0.00    +0.000 C 
ATOM      8  H   UNL     1      10.577   6.658  -0.430  0.00  0.00    +0.000 HD
ATOM      9  H   UNL     1       9.722   7.981  -1.241  0.00  0.00    +0.000 HD
ATOM     10  H   UNL     1      10.906   8.337   0.033  0.00  0.00    +0.000 HD
ENDBRANCH   4   7
ENDBRANCH   1   4
BRANCH   1  11
ATOM     11  C   UNL     1      11.963   7.869  -4.387  0.00  0.00    +0.000 C 
ATOM     12  H   UNL     1      11.594   7.434  -5.323  0.00  0.00    +0.000 HD
BRANCH  11  13
ATOM     13  C   UNL     1      13.483   7.771  -4.358  0.00  0.00    +0.000 C 
ATOM     14  H   UNL     1      13.943   8.756  -4.496  0.00  0.00    +0.000 HD
ATOM     15  H   UNL     1      13.836   7.349  -3.412  0.00  0.00    +0.000 HD
ATOM     16  H   UNL     1      13.840   7.140  -5.179  0.00  0.00    +0.000 HD
ENDBRANCH  11  13
BRANCH  11  17
ATOM     17  O   UNL     1      11.594   9.246  -4.383  0.00  0.00    +0.000 OA
ATOM     18  H   UNL     1      12.048   9.679  -5.127  0.00  0.00    +0.000 HD
ENDBRANCH  11  17
ENDBRANCH   1  11
TORSDOF 5
ENDMDL
MODEL 10
REMARK VINA RESULT:    -3.017     15.723     16.308
REMARK INTER + INTRA:          -3.697
REMARK INTER:                  -3.634
REMARK INTRA:                  -0.063
REMARK UNBOUND:                -0.063
REMARK  Name = 22386
REMARK  5 active torsions:
REMARK  status: ('A' for Active; 'I' for Inactive)
REMARK    1  A    between atoms: O_1  and  C_3
REMARK    2  A    between atoms: C_2  and  C_3
REMARK    3  A    between atoms: C_2  and  C_4
REMARK    4  A    between atoms: C_3  and  C_5
REMARK    5  A    between atoms: C_4  and  C_6
REMARK                            x       y       z     vdW  Elec       q    Type
REMARK                         _______ _______ _______ _____ _____    ______ ____
ROOT
ATOM      1  C   UNL     1      -1.435 -13.768  -7.661  0.00  0.00    +0.000 C 
ATOM      2  H   UNL     1      -2.409 -13.743  -7.156  0.00  0.00    +0.000 HD
ATOM      3  H   UNL     1      -0.728 -14.265  -6.984  0.00  0.00    +0.000 HD
ENDROOT
BRANCH   1   4
ATOM      4  C   UNL     1      -1.574 -14.585  -8.947  0.00  0.00    +0.000 C 
ATOM      5  H   UNL     1      -0.769 -14.323  -9.642  0.00  0.00    +0.000 HD
ATOM      6  H   UNL     1      -2.522 -14.351  -9.445  0.00  0.00    +0.000 HD
BRANCH   4   7
ATOM      7  C   UNL     1      -1.521 -16.079  -8.665  0.00  0.00    +0.000 C 
ATOM      8  H   UNL     1      -2.228 -16.340  -7.871  0.00  0.00    +0.000 HD
ATOM      9  H   UNL     1      -0.521 -16.383  -8.343  0.00  0.00    +0.000 HD
ATOM     10  H   UNL     1      -1.785 -16.656  -9.558  0.00  0.00    +0.000 HD
ENDBRANCH   4   7
ENDBRANCH   1   4
BRANCH   1  11
ATOM     11  C   UNL     1      -0.961 -12.337  -7.934  0.00  0.00    +0.000 C 
ATOM     12  H   UNL     1      -1.807 -11.644  -7.863  0.00  0.00    +0.000 HD
BRANCH  11  13
ATOM     13  C   UNL     1      -0.329 -12.211  -9.314  0.00  0.00    +0.000 C 
ATOM     14  H   UNL     1      -1.086 -11.987 -10.074  0.00  0.00    +0.000 HD
ATOM     15  H   UNL     1       0.431 -11.423  -9.333  0.00  0.00    +0.000 HD
ATOM     16  H   UNL     1       0.139 -13.157  -9.607  0.00  0.00    +0.000 HD
ENDBRANCH  11  13
BRANCH  11  17
ATOM     17  O   UNL     1      -0.003 -11.943  -6.955  0.00  0.00    +0.000 OA
ATOM     18  H   UNL     1       0.842 -12.373  -7.175  0.00  0.00    +0.000 HD
ENDBRANCH  11  17
ENDBRANCH   1  11
TORSDOF 5
ENDMDL
