MODEL 1
REMARK VINA RESULT:    -3.691      0.000      0.000
REMARK INTER + INTRA:          -4.395
REMARK INTER:                  -4.328
REMARK INTRA:                  -0.067
REMARK UNBOUND:                -0.057
REMARK  Name = 7895
REMARK  4 active torsions:
REMARK  status: ('A' for Active; 'I' for Inactive)
REMARK    1  A    between atoms: C_2  and  C_3
REMARK    2  A    between atoms: C_2  and  C_4
REMARK    3  A    between atoms: C_3  and  C_5
REMARK    4  A    between atoms: C_5  and  C_6
REMARK                            x       y       z     vdW  Elec       q    Type
REMARK                         _______ _______ _______ _____ _____    ______ ____
ROOT
ATOM      1  C   UNL     1       6.398   0.418  -3.153  0.00  0.00    +0.000 C 
ATOM      2  H   UNL     1       7.265   0.133  -3.760  0.00  0.00    +0.000 HD
ATOM      3  H   UNL     1       6.617   1.370  -2.657  0.00  0.00    +0.000 HD
ENDROOT
BRANCH   1   4
ATOM      4  C   UNL     1       5.168   0.567  -4.043  0.00  0.00    +0.000 C 
ATOM      5  H   UNL     1       4.356  -0.068  -3.668  0.00  0.00    +0.000 HD
ATOM      6  H   UNL     1       4.804   1.601  -4.008  0.00  0.00    +0.000 HD
BRANCH   4   7
ATOM      7  C   UNL     1       5.473   0.194  -5.485  0.00  0.00    +0.000 C 
ATOM      8  H   UNL     1       6.140   0.929  -5.947  0.00  0.00    +0.000 HD
ATOM      9  H   UNL     1       4.555   0.140  -6.079  0.00  0.00    +0.000 HD
ATOM     10  H   UNL     1       5.962  -0.784  -5.528  0.00  0.00    +0.000 HD
ENDBRANCH   4   7
ENDBRANCH   1   4
BRANCH   1  12
ATOM     11  O   UNL     1       6.251  -0.377  -0.874  0.00  0.00    +0.000 OA
ATOM     12  C   UNL     1       6.214  -0.637  -2.077  0.00  0.00    +0.000 C 
BRANCH  12  13
ATOM     13  C   UNL     1       5.980  -2.045  -2.560  0.00  0.00    +0.000 C 
ATOM     14  H   UNL     1       4.910  -2.205  -2.716  0.00  0.00    +0.000 HD
ATOM     15  H   UNL     1       6.366  -2.753  -1.823  0.00  0.00    +0.000 HD
ATOM     16  H   UNL     1       6.502  -2.200  -3.509  0.00  0.00    +0.000 HD
ENDBRANCH  12  13
ENDBRANCH   1  12
TORSDOF 4
ENDMDL
MODEL 2
REMARK VINA RESULT:    -3.339     16.079     16.888
REMARK INTER + INTRA:          -3.981
REMARK INTER:                  -3.930
REMARK INTRA:                  -0.051
REMARK UNBOUND:                -0.057
REMARK  Name = 7895
REMARK  4 active torsions:
REMARK  status: ('A' for Active; 'I' for Inactive)
REMARK    1  A    between atoms: C_2  and  C_3
REMARK    2  A    between atoms: C_2  and  C_4
REMARK    3  A    between atoms: C_3  and  C_5
REMARK    4  A    between atoms: C_5  and  C_6
REMARK                            x       y       z     vdW  Elec       q    Type
REMARK                         _______ _______ _______ _____ _____    ______ ____
ROOT
ATOM      1  C   UNL     1      -1.160 -13.620 -10.462  0.00  0.00    +0.000 C 
ATOM      2  H   UNL     1      -0.959 -14.586  -9.985  0.00  0.00    +0.000 HD
ATOM      3  H   UNL     1      -2.232 -13.407 -10.381  0.00  0.00    +0.000 HD
ENDROOT
BRANCH   1   4
ATOM      4  C   UNL     1      -0.358 -12.522  -9.770  0.00  0.00    +0.000 C 
ATOM      5  H   UNL     1       0.714 -12.744  -9.834  0.00  0.00    +0.000 HD
ATOM      6  H   UNL     1      -0.516 -11.565 -10.281  0.00  0.00    +0.000 HD
BRANCH   4   7
ATOM      7  C   UNL     1      -0.755 -12.379  -8.309  0.00  0.00    +0.000 C 
ATOM      8  H   UNL     1      -1.635 -12.988  -8.080  0.00  0.00    +0.000 HD
ATOM      9  H   UNL     1      -0.984 -11.337  -8.065  0.00  0.00    +0.000 HD
ATOM     10  H   UNL     1       0.063 -12.707  -7.660  0.00  0.00    +0.000 HD
ENDBRANCH   4   7
ENDBRANCH   1   4
BRANCH   1  12
ATOM     11  O   UNL     1      -1.548 -14.328 -12.742  0.00  0.00    +0.000 OA
ATOM     12  C   UNL     1      -0.820 -13.748 -11.936  0.00  0.00    +0.000 C 
BRANCH  12  13
ATOM     13  C   UNL     1       0.477 -13.118 -12.376  0.00  0.00    +0.000 C 
ATOM     14  H   UNL     1       0.282 -12.118 -12.770  0.00  0.00    +0.000 HD
ATOM     15  H   UNL     1       0.945 -13.742 -13.140  0.00  0.00    +0.000 HD
ATOM     16  H   UNL     1       1.154 -13.036 -11.521  0.00  0.00    +0.000 HD
ENDBRANCH  12  13
ENDBRANCH   1  12
TORSDOF 4
ENDMDL
MODEL 3
REMARK VINA RESULT:    -3.210     14.418     15.083
REMARK INTER + INTRA:          -3.830
REMARK INTER:                  -3.776
REMARK INTRA:                  -0.053
REMARK UNBOUND:                -0.057
REMARK  Name = 7895
REMARK  4 active torsions:
REMARK  status: ('A' for Active; 'I' for Inactive)
REMARK    1  A    between atoms: C_2  and  C_3
REMARK    2  A    between atoms: C_2  and  C_4
REMARK    3  A    between atoms: C_3  and  C_5
REMARK    4  A    between atoms: C_5  and  C_6
REMARK                            x       y       z     vdW  Elec       q    Type
REMARK                         _______ _______ _______ _____ _____    ______ ____
ROOT
ATOM      1  C   UNL     1      -0.356 -12.063  -8.770  0.00  0.00    +0.000 C 
ATOM      2  H   UNL     1       0.736 -11.972  -8.778  0.00  0.00    +0.000 HD
ATOM      3  H   UNL     1      -0.790 -11.069  -8.929  0.00  0.00    +0.000 HD
ENDROOT
BRANCH   1   4
ATOM      4  C   UNL     1      -0.808 -13.010  -9.877  0.00  0.00    +0.000 C 
ATOM      5  H   UNL     1      -0.759 -14.047  -9.524  0.00  0.00    +0.000 HD
ATOM      6  H   UNL     1      -1.855 -12.812 -10.135  0.00  0.00    +0.000 HD
BRANCH   4   7
ATOM      7  C   UNL     1       0.051 -12.863 -11.122  0.00  0.00    +0.000 C 
ATOM      8  H   UNL     1       1.089 -12.639 -10.858  0.00  0.00    +0.000 HD
ATOM      9  H   UNL     1      -0.322 -12.057 -11.763  0.00  0.00    +0.000 HD
ATOM     10  H   UNL     1       0.040 -13.790 -11.703  0.00  0.00    +0.000 HD
ENDBRANCH   4   7
ENDBRANCH   1   4
BRANCH   1  12
ATOM     11  O   UNL     1      -0.337 -12.043  -6.352  0.00  0.00    +0.000 OA
ATOM     12  C   UNL     1      -0.775 -12.537  -7.390  0.00  0.00    +0.000 C 
BRANCH  12  13
ATOM     13  C   UNL     1      -1.773 -13.666  -7.351  0.00  0.00    +0.000 C 
ATOM     14  H   UNL     1      -1.259 -14.600  -7.108  0.00  0.00    +0.000 HD
ATOM     15  H   UNL     1      -2.270 -13.748  -8.320  0.00  0.00    +0.000 HD
ATOM     16  H   UNL     1      -2.525 -13.467  -6.582  0.00  0.00    +0.000 HD
ENDBRANCH  12  13
ENDBRANCH   1  12
TORSDOF 4
ENDMDL
MODEL 4
REMARK VINA RESULT:    -3.037     23.521     24.350
REMARK INTER + INTRA:          -3.626
REMARK INTER:                  -3.554
REMARK INTRA:                  -0.072
REMARK UNBOUND:                -0.057
REMARK  Name = 7895
REMARK  4 active torsions:
REMARK  status: ('A' for Active; 'I' for Inactive)
REMARK    1  A    between atoms: C_2  and  C_3
REMARK    2  A    between atoms: C_2  and  C_4
REMARK    3  A    between atoms: C_3  and  C_5
REMARK    4  A    between atoms: C_5  and  C_6
REMARK                            x       y       z     vdW  Elec       q    Type
REMARK                         _______ _______ _______ _____ _____    ______ ____
ROOT
ATOM      1  C   UNL     1       4.549 -10.218 -25.684  0.00  0.00    +0.000 C 
ATOM      2  H   UNL     1       4.318 -10.979 -26.438  0.00  0.00    +0.000 HD
ATOM      3  H   UNL     1       3.951  -9.325 -25.895  0.00  0.00    +0.000 HD
ENDROOT
BRANCH   1   4
ATOM      4  C   UNL     1       4.217 -10.748 -24.292  0.00  0.00    +0.000 C 
ATOM      5  H   UNL     1       3.915 -11.800 -24.355  0.00  0.00    +0.000 HD
ATOM      6  H   UNL     1       5.109 -10.712 -23.655  0.00  0.00    +0.000 HD
BRANCH   4   7
ATOM      7  C   UNL     1       3.104  -9.944 -23.640  0.00  0.00    +0.000 C 
ATOM      8  H   UNL     1       2.686  -9.213 -24.340  0.00  0.00    +0.000 HD
ATOM      9  H   UNL     1       3.472  -9.405 -22.760  0.00  0.00    +0.000 HD
ATOM     10  H   UNL     1       2.296 -10.607 -23.318  0.00  0.00    +0.000 HD
ENDBRANCH   4   7
ENDBRANCH   1   4
BRANCH   1  12
ATOM     11  O   UNL     1       6.619  -9.923 -26.899  0.00  0.00    +0.000 OA
ATOM     12  C   UNL     1       6.013  -9.844 -25.830  0.00  0.00    +0.000 C 
BRANCH  12  13
ATOM     13  C   UNL     1       6.703  -9.361 -24.581  0.00  0.00    +0.000 C 
ATOM     14  H   UNL     1       6.564  -8.282 -24.479  0.00  0.00    +0.000 HD
ATOM     15  H   UNL     1       7.768  -9.602 -24.635  0.00  0.00    +0.000 HD
ATOM     16  H   UNL     1       6.272  -9.858 -23.706  0.00  0.00    +0.000 HD
ENDBRANCH  12  13
ENDBRANCH   1  12
TORSDOF 4
ENDMDL
MODEL 5
REMARK VINA RESULT:    -2.965     24.488     25.008
REMARK INTER + INTRA:          -3.541
REMARK INTER:                  -3.469
REMARK INTRA:                  -0.072
REMARK UNBOUND:                -0.057
REMARK  Name = 7895
REMARK  4 active torsions:
REMARK  status: ('A' for Active; 'I' for Inactive)
REMARK    1  A    between atoms: C_2  and  C_3
REMARK    2  A    between atoms: C_2  and  C_4
REMARK    3  A    between atoms: C_3  and  C_5
REMARK    4  A    between atoms: C_5  and  C_6
REMARK                            x       y       z     vdW  Elec       q    Type
REMARK                         _______ _______ _______ _____ _____    ______ ____
ROOT
ATOM      1  C   UNL     1     -15.812  -9.893   1.965  0.00  0.00    +0.000 C 
ATOM      2  H   UNL     1     -15.858 -10.838   1.412  0.00  0.00    +0.000 HD
ATOM      3  H   UNL     1     -14.770  -9.702   2.244  0.00  0.00    +0.000 HD
ENDROOT
BRANCH   1   4
ATOM      4  C   UNL     1     -16.332  -8.754   1.092  0.00  0.00    +0.000 C 
ATOM      5  H   UNL     1     -17.126  -8.212   1.620  0.00  0.00    +0.000 HD
ATOM      6  H   UNL     1     -15.529  -8.033   0.899  0.00  0.00    +0.000 HD
BRANCH   4   7
ATOM      7  C   UNL     1     -16.871  -9.269  -0.233  0.00  0.00    +0.000 C 
ATOM      8  H   UNL     1     -16.150  -9.935  -0.717  0.00  0.00    +0.000 HD
ATOM      9  H   UNL     1     -17.088  -8.441  -0.916  0.00  0.00    +0.000 HD
ATOM     10  H   UNL     1     -17.798  -9.828  -0.074  0.00  0.00    +0.000 HD
ENDBRANCH   4   7
ENDBRANCH   1   4
BRANCH   1  12
ATOM     11  O   UNL     1     -16.326 -10.887   4.109  0.00  0.00    +0.000 OA
ATOM     12  C   UNL     1     -16.613 -10.060   3.244  0.00  0.00    +0.000 C 
BRANCH  12  13
ATOM     13  C   UNL     1     -17.802  -9.147   3.406  0.00  0.00    +0.000 C 
ATOM     14  H   UNL     1     -18.111  -9.132   4.455  0.00  0.00    +0.000 HD
ATOM     15  H   UNL     1     -18.621  -9.499   2.775  0.00  0.00    +0.000 HD
ATOM     16  H   UNL     1     -17.531  -8.132   3.103  0.00  0.00    +0.000 HD
ENDBRANCH  12  13
ENDBRANCH   1  12
TORSDOF 4
ENDMDL
MODEL 6
REMARK VINA RESULT:    -2.829     15.344     16.268
REMARK INTER + INTRA:          -3.382
REMARK INTER:                  -3.321
REMARK INTRA:                  -0.060
REMARK UNBOUND:                -0.057
REMARK  Name = 7895
REMARK  4 active torsions:
REMARK  status: ('A' for Active; 'I' for Inactive)
REMARK    1  A    between atoms: C_2  and  C_3
REMARK    2  A    between atoms: C_2  and  C_4
REMARK    3  A    between atoms: C_3  and  C_5
REMARK    4  A    between atoms: C_5  and  C_6
REMARK                            x       y       z     vdW  Elec       q    Type
REMARK                         _______ _______ _______ _____ _____    ______ ____
ROOT
ATOM      1  C   UNL     1      -1.464 -14.234  -8.134  0.00  0.00    +0.000 C 
ATOM      2  H   UNL     1      -2.423 -14.269  -7.606  0.00  0.00    +0.000 HD
ATOM      3  H   UNL     1      -0.787 -14.966  -7.680  0.00  0.00    +0.000 HD
ENDROOT
BRANCH   1   4
ATOM      4  C   UNL     1      -1.670 -14.563  -9.610  0.00  0.00    +0.000 C 
ATOM      5  H   UNL     1      -2.655 -14.209  -9.937  0.00  0.00    +0.000 HD
ATOM      6  H   UNL     1      -0.925 -14.037 -10.218  0.00  0.00    +0.000 HD
BRANCH   4   7
ATOM      7  C   UNL     1      -1.562 -16.057  -9.868  0.00  0.00    +0.000 C 
ATOM      8  H   UNL     1      -1.444 -16.263 -10.936  0.00  0.00    +0.000 HD
ATOM      9  H   UNL     1      -2.455 -16.582  -9.512  0.00  0.00    +0.000 HD
ATOM     10  H   UNL     1      -0.695 -16.471  -9.344  0.00  0.00    +0.000 HD
ENDBRANCH   4   7
ENDBRANCH   1   4
BRANCH   1  12
ATOM     11  O   UNL     1      -0.758 -12.335  -6.813  0.00  0.00    +0.000 OA
ATOM     12  C   UNL     1      -0.865 -12.854  -7.923  0.00  0.00    +0.000 C 
BRANCH  12  13
ATOM     13  C   UNL     1      -0.400 -12.136  -9.164  0.00  0.00    +0.000 C 
ATOM     14  H   UNL     1       0.254 -11.306  -8.883  0.00  0.00    +0.000 HD
ATOM     15  H   UNL     1      -1.265 -11.765  -9.717  0.00  0.00    +0.000 HD
ATOM     16  H   UNL     1       0.159 -12.826  -9.802  0.00  0.00    +0.000 HD
ENDBRANCH  12  13
ENDBRANCH   1  12
TORSDOF 4
ENDMDL
MODEL 7
REMARK VINA RESULT:    -2.820     25.069     25.811
REMARK INTER + INTRA:          -3.371
REMARK INTER:                  -3.302
REMARK INTRA:                  -0.069
REMARK UNBOUND:                -0.057
REMARK  Name = 7895
REMARK  4 active torsions:
REMARK  status: ('A' for Active; 'I' for Inactive)
REMARK    1  A    between atoms: C_2  and  C_3
REMARK    2  A    between atoms: C_2  and  C_4
REMARK    3  A    between atoms: C_3  and  C_5
REMARK    4  A    between atoms: C_5  and  C_6
REMARK                            x       y       z     vdW  Elec       q    Type
REMARK                         _______ _______ _______ _____ _____    ______ ____
ROOT
ATOM      1  C   UNL     1      -0.146  -7.852  20.781  0.00  0.00    +0.000 C 
ATOM      2  H   UNL     1       0.175  -8.682  20.142  0.00  0.00    +0.000 HD
ATOM      3  H   UNL     1       0.137  -8.078  21.815  0.00  0.00    +0.000 HD
ENDROOT
BRANCH   1   4
ATOM      4  C   UNL     1       0.526  -6.558  20.330  0.00  0.00    +0.000 C 
ATOM      5  H   UNL     1       0.888  -6.665  19.300  0.00  0.00    +0.000 HD
ATOM      6  H   UNL     1      -0.203  -5.739  20.327  0.00  0.00    +0.000 HD
BRANCH   4   7
ATOM      7  C   UNL     1       1.689  -6.189  21.236  0.00  0.00    +0.000 C 
ATOM      8  H   UNL     1       1.685  -5.118  21.463  0.00  0.00    +0.000 HD
ATOM      9  H   UNL     1       2.647  -6.437  20.766  0.00  0.00    +0.000 HD
ATOM     10  H   UNL     1       1.624  -6.737  22.180  0.00  0.00    +0.000 HD
ENDBRANCH   4   7
ENDBRANCH   1   4
BRANCH   1  12
ATOM     11  O   UNL     1      -2.359  -8.678  20.261  0.00  0.00    +0.000 OA
ATOM     12  C   UNL     1      -1.661  -7.773  20.719  0.00  0.00    +0.000 C 
BRANCH  12  13
ATOM     13  C   UNL     1      -2.283  -6.509  21.255  0.00  0.00    +0.000 C 
ATOM     14  H   UNL     1      -1.694  -6.142  22.099  0.00  0.00    +0.000 HD
ATOM     15  H   UNL     1      -3.309  -6.712  21.570  0.00  0.00    +0.000 HD
ATOM     16  H   UNL     1      -2.296  -5.744  20.474  0.00  0.00    +0.000 HD
ENDBRANCH  12  13
ENDBRANCH   1  12
TORSDOF 4
ENDMDL
MODEL 8
REMARK VINA RESULT:    -2.818      2.157      2.878
REMARK INTER + INTRA:          -3.369
REMARK INTER:                  -3.313
REMARK INTRA:                  -0.057
REMARK UNBOUND:                -0.057
REMARK  Name = 7895
REMARK  4 active torsions:
REMARK  status: ('A' for Active; 'I' for Inactive)
REMARK    1  A    between atoms: C_2  and  C_3
REMARK    2  A    between atoms: C_2  and  C_4
REMARK    3  A    between atoms: C_3  and  C_5
REMARK    4  A    between atoms: C_5  and  C_6
REMARK                            x       y       z     vdW  Elec       q    Type
REMARK                         _______ _______ _______ _____ _____    ______ ____
ROOT
ATOM      1  C   UNL     1       6.928   0.229  -0.570  0.00  0.00    +0.000 C 
ATOM      2  H   UNL     1       7.267   0.652   0.382  0.00  0.00    +0.000 HD
ATOM      3  H   UNL     1       5.857   0.011  -0.493  0.00  0.00    +0.000 HD
ENDROOT
BRANCH   1   4
ATOM      4  C   UNL     1       7.174   1.225  -1.699  0.00  0.00    +0.000 C 
ATOM      5  H   UNL     1       7.259   2.240  -1.291  0.00  0.00    +0.000 HD
ATOM      6  H   UNL     1       8.127   1.002  -2.194  0.00  0.00    +0.000 HD
BRANCH   4   7
ATOM      7  C   UNL     1       6.056   1.189  -2.728  0.00  0.00    +0.000 C 
ATOM      8  H   UNL     1       6.337   1.741  -3.631  0.00  0.00    +0.000 HD
ATOM      9  H   UNL     1       5.138   1.631  -2.326  0.00  0.00    +0.000 HD
ATOM     10  H   UNL     1       5.838   0.157  -3.015  0.00  0.00    +0.000 HD
ENDBRANCH   4   7
ENDBRANCH   1   4
BRANCH   1  12
ATOM     11  O   UNL     1       7.288  -1.929  -1.600  0.00  0.00    +0.000 OA
ATOM     12  C   UNL     1       7.657  -1.086  -0.783  0.00  0.00    +0.000 C 
BRANCH  12  13
ATOM     13  C   UNL     1       8.878  -1.313   0.070  0.00  0.00    +0.000 C 
ATOM     14  H   UNL     1       9.656  -0.597  -0.206  0.00  0.00    +0.000 HD
ATOM     15  H   UNL     1       9.237  -2.335  -0.070  0.00  0.00    +0.000 HD
ATOM     16  H   UNL     1       8.623  -1.169   1.124  0.00  0.00    +0.000 HD
ENDBRANCH  12  13
ENDBRANCH   1  12
TORSDOF 4
ENDMDL
MODEL 9
REMARK VINA RESULT:    -2.765     23.431     24.382
REMARK INTER + INTRA:          -3.306
REMARK INTER:                  -3.222
REMARK INTRA:                  -0.084
REMARK UNBOUND:                -0.057
REMARK  Name = 7895
REMARK  4 active torsions:
REMARK  status: ('A' for Active; 'I' for Inactive)
REMARK    1  A    between atoms: C_2  and  C_3
REMARK    2  A    between atoms: C_2  and  C_4
REMARK    3  A    between atoms: C_3  and  C_5
REMARK    4  A    between atoms: C_5  and  C_6
REMARK                            x       y       z     vdW  Elec       q    Type
REMARK                         _______ _______ _______ _____ _____    ______ ____
ROOT
ATOM      1  C   UNL     1       4.905 -10.221 -25.974  0.00  0.00    +0.000 C 
ATOM      2  H   UNL     1       4.352  -9.276 -25.935  0.00  0.00    +0.000 HD
ATOM      3  H   UNL     1       4.669 -10.724 -26.919  0.00  0.00    +0.000 HD
ENDROOT
BRANCH   1   4
ATOM      4  C   UNL     1       6.404  -9.952 -25.889  0.00  0.00    +0.000 C 
ATOM      5  H   UNL     1       6.960 -10.890 -26.013  0.00  0.00    +0.000 HD
ATOM      6  H   UNL     1       6.712  -9.289 -26.706  0.00  0.00    +0.000 HD
BRANCH   4   7
ATOM      7  C   UNL     1       6.782  -9.317 -24.560  0.00  0.00    +0.000 C 
ATOM      8  H   UNL     1       6.492  -8.262 -24.534  0.00  0.00    +0.000 HD
ATOM      9  H   UNL     1       7.861  -9.382 -24.387  0.00  0.00    +0.000 HD
ATOM     10  H   UNL     1       6.276  -9.830 -23.737  0.00  0.00    +0.000 HD
ENDBRANCH   4   7
ENDBRANCH   1   4
BRANCH   1  12
ATOM     11  O   UNL     1       3.679 -10.683 -23.941  0.00  0.00    +0.000 OA
ATOM     12  C   UNL     1       4.405 -11.101 -24.841  0.00  0.00    +0.000 C 
BRANCH  12  13
ATOM     13  C   UNL     1       4.852 -12.541 -24.873  0.00  0.00    +0.000 C 
ATOM     14  H   UNL     1       3.976 -13.195 -24.886  0.00  0.00    +0.000 HD
ATOM     15  H   UNL     1       5.468 -12.751 -23.996  0.00  0.00    +0.000 HD
ATOM     16  H   UNL     1       5.443 -12.723 -25.775  0.00  0.00    +0.000 HD
ENDBRANCH  12  13
ENDBRANCH   1  12
TORSDOF 4
ENDMDL
MODEL 10
REMARK VINA RESULT:    -2.754     24.665     25.314
REMARK INTER + INTRA:          -3.294
REMARK INTER:                  -3.253
REMARK INTRA:                  -0.041
REMARK UNBOUND:                -0.057
REMARK  Name = 7895
REMARK  4 active torsions:
REMARK  status: ('A' for Active; 'I' for Inactive)
REMARK    1  A    between atoms: C_2  and  C_3
REMARK    2  A    between atoms: C_2  and  C_4
REMARK    3  A    between atoms: C_3  and  C_5
REMARK    4  A    between atoms: C_5  and  C_6
REMARK                            x       y       z     vdW  Elec       q    Type
REMARK                         _______ _______ _______ _____ _____    ______ ____
ROOT
ATOM      1  C   UNL     1     -17.514  -9.928   1.927  0.00  0.00    +0.000 C 
ATOM      2  H   UNL     1     -17.287 -11.000   1.914  0.00  0.00    +0.000 HD
ATOM      3  H   UNL     1     -18.366  -9.743   1.263  0.00  0.00    +0.000 HD
ENDROOT
BRANCH   1   4
ATOM      4  C   UNL     1     -17.859  -9.487   3.347  0.00  0.00    +0.000 C 
ATOM      5  H   UNL     1     -17.039  -8.888   3.761  0.00  0.00    +0.000 HD
ATOM      6  H   UNL     1     -18.747  -8.844   3.334  0.00  0.00    +0.000 HD
BRANCH   4   7
ATOM      7  C   UNL     1     -18.118 -10.679   4.253  0.00  0.00    +0.000 C 
ATOM      8  H   UNL     1     -19.191 -10.825   4.412  0.00  0.00    +0.000 HD
ATOM      9  H   UNL     1     -17.641 -10.541   5.230  0.00  0.00    +0.000 HD
ATOM     10  H   UNL     1     -17.714 -11.592   3.805  0.00  0.00    +0.000 HD
ENDBRANCH   4   7
ENDBRANCH   1   4
BRANCH   1  12
ATOM     11  O   UNL     1     -16.303  -7.971   1.183  0.00  0.00    +0.000 OA
ATOM     12  C   UNL     1     -16.314  -9.189   1.363  0.00  0.00    +0.000 C 
BRANCH  12  13
ATOM     13  C   UNL     1     -15.112 -10.034   1.027  0.00  0.00    +0.000 C 
ATOM     14  H   UNL     1     -14.512  -9.529   0.265  0.00  0.00    +0.000 HD
ATOM     15  H   UNL     1     -15.442 -11.010   0.663  0.00  0.00    +0.000 HD
ATOM     16  H   UNL     1     -14.500 -10.177   1.922  0.00  0.00    +0.000 HD
ENDBRANCH  12  13
ENDBRANCH   1  12
TORSDOF 4
ENDMDL
