MODEL 1
REMARK VINA RESULT:    -3.710      0.000      0.000
REMARK INTER + INTRA:          -4.502
REMARK INTER:                  -4.472
REMARK INTRA:                  -0.030
REMARK UNBOUND:                -0.033
REMARK  Name = 31260
REMARK  5 active torsions:
REMARK  status: ('A' for Active; 'I' for Inactive)
REMARK    1  A    between atoms: O_1  and  C_6
REMARK    2  A    between atoms: C_2  and  C_3
REMARK    3  A    between atoms: C_2  and  C_4
REMARK    4  A    between atoms: C_2  and  C_5
REMARK    5  A    between atoms: C_3  and  C_6
REMARK                            x       y       z     vdW  Elec       q    Type
REMARK                         _______ _______ _______ _____ _____    ______ ____
ROOT
ATOM      1  C   UNL     1       6.379  -0.913  -4.608  0.00  0.00    +0.000 C 
ATOM      2  H   UNL     1       6.166  -1.860  -5.120  0.00  0.00    +0.000 HD
ENDROOT
BRANCH   1   3
ATOM      3  C   UNL     1       5.512   0.183  -5.232  0.00  0.00    +0.000 C 
ATOM      4  H   UNL     1       5.605   1.110  -4.656  0.00  0.00    +0.000 HD
ATOM      5  H   UNL     1       4.449  -0.080  -5.244  0.00  0.00    +0.000 HD
ATOM      6  H   UNL     1       5.827   0.401  -6.258  0.00  0.00    +0.000 HD
ENDBRANCH   1   3
BRANCH   1   7
ATOM      7  C   UNL     1       7.858  -0.579  -4.810  0.00  0.00    +0.000 C 
ATOM      8  H   UNL     1       8.147   0.346  -4.300  0.00  0.00    +0.000 HD
ATOM      9  H   UNL     1       8.076  -0.448  -5.875  0.00  0.00    +0.000 HD
ATOM     10  H   UNL     1       8.492  -1.388  -4.436  0.00  0.00    +0.000 HD
ENDBRANCH   1   7
BRANCH   1  11
ATOM     11  C   UNL     1       6.014  -1.087  -3.125  0.00  0.00    +0.000 C 
ATOM     12  H   UNL     1       4.976  -0.771  -2.964  0.00  0.00    +0.000 HD
ATOM     13  H   UNL     1       6.622  -0.406  -2.513  0.00  0.00    +0.000 HD
BRANCH  11  14
ATOM     14  C   UNL     1       6.196  -2.509  -2.611  0.00  0.00    +0.000 C 
ATOM     15  H   UNL     1       5.434  -2.787  -1.877  0.00  0.00    +0.000 HD
ATOM     16  H   UNL     1       6.186  -3.242  -3.422  0.00  0.00    +0.000 HD
BRANCH  14  17
ATOM     17  O   UNL     1       7.466  -2.607  -1.978  0.00  0.00    +0.000 OA
ATOM     18  H   UNL     1       7.832  -1.708  -1.913  0.00  0.00    +0.000 HD
ENDBRANCH  14  17
ENDBRANCH  11  14
ENDBRANCH   1  11
TORSDOF 5
ENDMDL
MODEL 2
REMARK VINA RESULT:    -3.701      2.102      3.019
REMARK INTER + INTRA:          -4.491
REMARK INTER:                  -4.473
REMARK INTRA:                  -0.018
REMARK UNBOUND:                -0.033
REMARK  Name = 31260
REMARK  5 active torsions:
REMARK  status: ('A' for Active; 'I' for Inactive)
REMARK    1  A    between atoms: O_1  and  C_6
REMARK    2  A    between atoms: C_2  and  C_3
REMARK    3  A    between atoms: C_2  and  C_4
REMARK    4  A    between atoms: C_2  and  C_5
REMARK    5  A    between atoms: C_3  and  C_6
REMARK                            x       y       z     vdW  Elec       q    Type
REMARK                         _______ _______ _______ _____ _____    ______ ____
ROOT
ATOM      1  C   UNL     1       5.753  -0.295  -3.603  0.00  0.00    +0.000 C 
ATOM      2  H   UNL     1       4.717  -0.223  -3.956  0.00  0.00    +0.000 HD
ENDROOT
BRANCH   1   3
ATOM      3  C   UNL     1       5.846  -1.443  -2.595  0.00  0.00    +0.000 C 
ATOM      4  H   UNL     1       5.488  -2.373  -3.051  0.00  0.00    +0.000 HD
ATOM      5  H   UNL     1       5.235  -1.268  -1.704  0.00  0.00    +0.000 HD
ATOM      6  H   UNL     1       6.881  -1.609  -2.279  0.00  0.00    +0.000 HD
ENDBRANCH   1   3
BRANCH   1   7
ATOM      7  C   UNL     1       6.121   1.023  -2.919  0.00  0.00    +0.000 C 
ATOM      8  H   UNL     1       6.932   1.545  -3.434  0.00  0.00    +0.000 HD
ATOM      9  H   UNL     1       6.451   0.839  -1.891  0.00  0.00    +0.000 HD
ATOM     10  H   UNL     1       5.255   1.692  -2.876  0.00  0.00    +0.000 HD
ENDBRANCH   1   7
BRANCH   1  11
ATOM     11  C   UNL     1       6.646  -0.593  -4.818  0.00  0.00    +0.000 C 
ATOM     12  H   UNL     1       6.525   0.203  -5.565  0.00  0.00    +0.000 HD
ATOM     13  H   UNL     1       6.301  -1.509  -5.314  0.00  0.00    +0.000 HD
BRANCH  11  14
ATOM     14  C   UNL     1       8.122  -0.742  -4.473  0.00  0.00    +0.000 C 
ATOM     15  H   UNL     1       8.421  -0.102  -3.638  0.00  0.00    +0.000 HD
ATOM     16  H   UNL     1       8.383  -1.776  -4.232  0.00  0.00    +0.000 HD
BRANCH  14  17
ATOM     17  O   UNL     1       8.896  -0.370  -5.607  0.00  0.00    +0.000 OA
ATOM     18  H   UNL     1       8.768   0.583  -5.751  0.00  0.00    +0.000 HD
ENDBRANCH  14  17
ENDBRANCH  11  14
ENDBRANCH   1  11
TORSDOF 5
ENDMDL
MODEL 3
REMARK VINA RESULT:    -3.467      1.887      2.123
REMARK INTER + INTRA:          -4.209
REMARK INTER:                  -4.170
REMARK INTRA:                  -0.038
REMARK UNBOUND:                -0.033
REMARK  Name = 31260
REMARK  5 active torsions:
REMARK  status: ('A' for Active; 'I' for Inactive)
REMARK    1  A    between atoms: O_1  and  C_6
REMARK    2  A    between atoms: C_2  and  C_3
REMARK    3  A    between atoms: C_2  and  C_4
REMARK    4  A    between atoms: C_2  and  C_5
REMARK    5  A    between atoms: C_3  and  C_6
REMARK                            x       y       z     vdW  Elec       q    Type
REMARK                         _______ _______ _______ _____ _____    ______ ____
ROOT
ATOM      1  C   UNL     1       5.973  -0.146  -4.348  0.00  0.00    +0.000 C 
ATOM      2  H   UNL     1       5.467  -1.047  -3.976  0.00  0.00    +0.000 HD
ENDROOT
BRANCH   1   3
ATOM      3  C   UNL     1       5.321   0.267  -5.669  0.00  0.00    +0.000 C 
ATOM      4  H   UNL     1       5.652  -0.396  -6.476  0.00  0.00    +0.000 HD
ATOM      5  H   UNL     1       5.586   1.287  -5.965  0.00  0.00    +0.000 HD
ATOM      6  H   UNL     1       4.229   0.195  -5.612  0.00  0.00    +0.000 HD
ENDBRANCH   1   3
BRANCH   1   7
ATOM      7  C   UNL     1       7.446  -0.484  -4.583  0.00  0.00    +0.000 C 
ATOM      8  H   UNL     1       8.058  -0.311  -3.692  0.00  0.00    +0.000 HD
ATOM      9  H   UNL     1       7.855   0.137  -5.387  0.00  0.00    +0.000 HD
ATOM     10  H   UNL     1       7.561  -1.532  -4.879  0.00  0.00    +0.000 HD
ENDBRANCH   1   7
BRANCH   1  11
ATOM     11  C   UNL     1       5.786   0.965  -3.303  0.00  0.00    +0.000 C 
ATOM     12  H   UNL     1       4.780   0.896  -2.871  0.00  0.00    +0.000 HD
ATOM     13  H   UNL     1       5.823   1.946  -3.795  0.00  0.00    +0.000 HD
BRANCH  11  14
ATOM     14  C   UNL     1       6.820   0.935  -2.184  0.00  0.00    +0.000 C 
ATOM     15  H   UNL     1       7.790   0.563  -2.524  0.00  0.00    +0.000 HD
ATOM     16  H   UNL     1       6.960   1.919  -1.730  0.00  0.00    +0.000 HD
BRANCH  14  17
ATOM     17  O   UNL     1       6.356   0.066  -1.158  0.00  0.00    +0.000 OA
ATOM     18  H   UNL     1       7.126  -0.202  -0.629  0.00  0.00    +0.000 HD
ENDBRANCH  14  17
ENDBRANCH  11  14
ENDBRANCH   1  11
TORSDOF 5
ENDMDL
MODEL 4
REMARK VINA RESULT:    -3.400      2.059      2.892
REMARK INTER + INTRA:          -4.128
REMARK INTER:                  -4.108
REMARK INTRA:                  -0.020
REMARK UNBOUND:                -0.033
REMARK  Name = 31260
REMARK  5 active torsions:
REMARK  status: ('A' for Active; 'I' for Inactive)
REMARK    1  A    between atoms: O_1  and  C_6
REMARK    2  A    between atoms: C_2  and  C_3
REMARK    3  A    between atoms: C_2  and  C_4
REMARK    4  A    between atoms: C_2  and  C_5
REMARK    5  A    between atoms: C_3  and  C_6
REMARK                            x       y       z     vdW  Elec       q    Type
REMARK                         _______ _______ _______ _____ _____    ______ ____
ROOT
ATOM      1  C   UNL     1       7.188  -0.542  -4.209  0.00  0.00    +0.000 C 
ATOM      2  H   UNL     1       7.454   0.273  -3.524  0.00  0.00    +0.000 HD
ENDROOT
BRANCH   1   3
ATOM      3  C   UNL     1       6.009  -0.087  -5.072  0.00  0.00    +0.000 C 
ATOM      4  H   UNL     1       5.082  -0.115  -4.488  0.00  0.00    +0.000 HD
ATOM      5  H   UNL     1       5.856  -0.730  -5.944  0.00  0.00    +0.000 HD
ATOM      6  H   UNL     1       6.147   0.942  -5.419  0.00  0.00    +0.000 HD
ENDBRANCH   1   3
BRANCH   1   7
ATOM      7  C   UNL     1       6.778  -1.756  -3.374  0.00  0.00    +0.000 C 
ATOM      8  H   UNL     1       5.981  -1.520  -2.662  0.00  0.00    +0.000 HD
ATOM      9  H   UNL     1       7.632  -2.128  -2.798  0.00  0.00    +0.000 HD
ATOM     10  H   UNL     1       6.431  -2.570  -4.018  0.00  0.00    +0.000 HD
ENDBRANCH   1   7
BRANCH   1  11
ATOM     11  C   UNL     1       8.407  -0.828  -5.099  0.00  0.00    +0.000 C 
ATOM     12  H   UNL     1       8.717   0.095  -5.604  0.00  0.00    +0.000 HD
ATOM     13  H   UNL     1       8.123  -1.518  -5.905  0.00  0.00    +0.000 HD
BRANCH  11  14
ATOM     14  C   UNL     1       9.594  -1.414  -4.344  0.00  0.00    +0.000 C 
ATOM     15  H   UNL     1      10.277  -0.642  -3.980  0.00  0.00    +0.000 HD
ATOM     16  H   UNL     1       9.278  -2.029  -3.498  0.00  0.00    +0.000 HD
BRANCH  14  17
ATOM     17  O   UNL     1      10.322  -2.261  -5.225  0.00  0.00    +0.000 OA
ATOM     18  H   UNL     1      11.268  -2.133  -5.040  0.00  0.00    +0.000 HD
ENDBRANCH  14  17
ENDBRANCH  11  14
ENDBRANCH   1  11
TORSDOF 5
ENDMDL
MODEL 5
REMARK VINA RESULT:    -3.320      9.869     10.724
REMARK INTER + INTRA:          -4.032
REMARK INTER:                  -4.027
REMARK INTRA:                  -0.005
REMARK UNBOUND:                -0.033
REMARK  Name = 31260
REMARK  5 active torsions:
REMARK  status: ('A' for Active; 'I' for Inactive)
REMARK    1  A    between atoms: O_1  and  C_6
REMARK    2  A    between atoms: C_2  and  C_3
REMARK    3  A    between atoms: C_2  and  C_4
REMARK    4  A    between atoms: C_2  and  C_5
REMARK    5  A    between atoms: C_3  and  C_6
REMARK                            x       y       z     vdW  Elec       q    Type
REMARK                         _______ _______ _______ _____ _____    ______ ____
ROOT
ATOM      1  C   UNL     1      11.415   6.726  -4.065  0.00  0.00    +0.000 C 
ATOM      2  H   UNL     1      11.516   5.931  -4.815  0.00  0.00    +0.000 HD
ENDROOT
BRANCH   1   3
ATOM      3  C   UNL     1      11.642   6.118  -2.679  0.00  0.00    +0.000 C 
ATOM      4  H   UNL     1      10.813   6.383  -2.013  0.00  0.00    +0.000 HD
ATOM      5  H   UNL     1      12.560   6.483  -2.208  0.00  0.00    +0.000 HD
ATOM      6  H   UNL     1      11.687   5.025  -2.729  0.00  0.00    +0.000 HD
ENDBRANCH   1   3
BRANCH   1   7
ATOM      7  C   UNL     1       9.997   7.294  -4.154  0.00  0.00    +0.000 C 
ATOM      8  H   UNL     1       9.917   8.282  -3.690  0.00  0.00    +0.000 HD
ATOM      9  H   UNL     1       9.290   6.633  -3.643  0.00  0.00    +0.000 HD
ATOM     10  H   UNL     1       9.679   7.379  -5.198  0.00  0.00    +0.000 HD
ENDBRANCH   1   7
BRANCH   1  11
ATOM     11  C   UNL     1      12.489   7.786  -4.354  0.00  0.00    +0.000 C 
ATOM     12  H   UNL     1      12.658   8.391  -3.454  0.00  0.00    +0.000 HD
ATOM     13  H   UNL     1      12.120   8.490  -5.111  0.00  0.00    +0.000 HD
BRANCH  11  14
ATOM     14  C   UNL     1      13.815   7.203  -4.826  0.00  0.00    +0.000 C 
ATOM     15  H   UNL     1      14.395   6.771  -4.007  0.00  0.00    +0.000 HD
ATOM     16  H   UNL     1      13.676   6.441  -5.597  0.00  0.00    +0.000 HD
BRANCH  14  17
ATOM     17  O   UNL     1      14.590   8.245  -5.407  0.00  0.00    +0.000 OA
ATOM     18  H   UNL     1      15.428   8.296  -4.917  0.00  0.00    +0.000 HD
ENDBRANCH  14  17
ENDBRANCH  11  14
ENDBRANCH   1  11
TORSDOF 5
ENDMDL
MODEL 6
REMARK VINA RESULT:    -3.250      2.398      3.352
REMARK INTER + INTRA:          -3.948
REMARK INTER:                  -3.911
REMARK INTRA:                  -0.038
REMARK UNBOUND:                -0.033
REMARK  Name = 31260
REMARK  5 active torsions:
REMARK  status: ('A' for Active; 'I' for Inactive)
REMARK    1  A    between atoms: O_1  and  C_6
REMARK    2  A    between atoms: C_2  and  C_3
REMARK    3  A    between atoms: C_2  and  C_4
REMARK    4  A    between atoms: C_2  and  C_5
REMARK    5  A    between atoms: C_3  and  C_6
REMARK                            x       y       z     vdW  Elec       q    Type
REMARK                         _______ _______ _______ _____ _____    ______ ____
ROOT
ATOM      1  C   UNL     1       7.064  -1.669  -3.416  0.00  0.00    +0.000 C 
ATOM      2  H   UNL     1       7.423  -2.437  -4.112  0.00  0.00    +0.000 HD
ENDROOT
BRANCH   1   3
ATOM      3  C   UNL     1       8.245  -1.190  -2.569  0.00  0.00    +0.000 C 
ATOM      4  H   UNL     1       9.062  -1.918  -2.617  0.00  0.00    +0.000 HD
ATOM      5  H   UNL     1       7.983  -1.073  -1.513  0.00  0.00    +0.000 HD
ATOM      6  H   UNL     1       8.635  -0.235  -2.938  0.00  0.00    +0.000 HD
ENDBRANCH   1   3
BRANCH   1   7
ATOM      7  C   UNL     1       6.002  -2.296  -2.513  0.00  0.00    +0.000 C 
ATOM      8  H   UNL     1       6.172  -3.366  -2.354  0.00  0.00    +0.000 HD
ATOM      9  H   UNL     1       5.008  -2.186  -2.960  0.00  0.00    +0.000 HD
ATOM     10  H   UNL     1       5.984  -1.804  -1.535  0.00  0.00    +0.000 HD
ENDBRANCH   1   7
BRANCH   1  11
ATOM     11  C   UNL     1       6.510  -0.501  -4.248  0.00  0.00    +0.000 C 
ATOM     12  H   UNL     1       5.637  -0.841  -4.820  0.00  0.00    +0.000 HD
ATOM     13  H   UNL     1       7.250  -0.200  -5.001  0.00  0.00    +0.000 HD
BRANCH  11  14
ATOM     14  C   UNL     1       6.127   0.716  -3.416  0.00  0.00    +0.000 C 
ATOM     15  H   UNL     1       6.166   0.516  -2.342  0.00  0.00    +0.000 HD
ATOM     16  H   UNL     1       6.762   1.578  -3.635  0.00  0.00    +0.000 HD
BRANCH  14  17
ATOM     17  O   UNL     1       4.793   1.089  -3.742  0.00  0.00    +0.000 OA
ATOM     18  H   UNL     1       4.457   0.446  -4.389  0.00  0.00    +0.000 HD
ENDBRANCH  14  17
ENDBRANCH  11  14
ENDBRANCH   1  11
TORSDOF 5
ENDMDL
MODEL 7
REMARK VINA RESULT:    -3.224     14.608     15.232
REMARK INTER + INTRA:          -3.916
REMARK INTER:                  -3.902
REMARK INTRA:                  -0.014
REMARK UNBOUND:                -0.033
REMARK  Name = 31260
REMARK  5 active torsions:
REMARK  status: ('A' for Active; 'I' for Inactive)
REMARK    1  A    between atoms: O_1  and  C_6
REMARK    2  A    between atoms: C_2  and  C_3
REMARK    3  A    between atoms: C_2  and  C_4
REMARK    4  A    between atoms: C_2  and  C_5
REMARK    5  A    between atoms: C_3  and  C_6
REMARK                            x       y       z     vdW  Elec       q    Type
REMARK                         _______ _______ _______ _____ _____    ______ ____
ROOT
ATOM      1  C   UNL     1      -1.505 -13.546 -10.017  0.00  0.00    +0.000 C 
ATOM      2  H   UNL     1      -2.525 -13.177 -10.180  0.00  0.00    +0.000 HD
ENDROOT
BRANCH   1   3
ATOM      3  C   UNL     1      -0.844 -13.766 -11.380  0.00  0.00    +0.000 C 
ATOM      4  H   UNL     1      -0.763 -14.838 -11.590  0.00  0.00    +0.000 HD
ATOM      5  H   UNL     1       0.169 -13.353 -11.425  0.00  0.00    +0.000 HD
ATOM      6  H   UNL     1      -1.438 -13.318 -12.184  0.00  0.00    +0.000 HD
ENDBRANCH   1   3
BRANCH   1   7
ATOM      7  C   UNL     1      -1.588 -14.875  -9.264  0.00  0.00    +0.000 C 
ATOM      8  H   UNL     1      -0.694 -15.067  -8.663  0.00  0.00    +0.000 HD
ATOM      9  H   UNL     1      -1.694 -15.706  -9.969  0.00  0.00    +0.000 HD
ATOM     10  H   UNL     1      -2.458 -14.889  -8.599  0.00  0.00    +0.000 HD
ENDBRANCH   1   7
BRANCH   1  11
ATOM     11  C   UNL     1      -0.735 -12.474  -9.230  0.00  0.00    +0.000 C 
ATOM     12  H   UNL     1      -1.059 -11.477  -9.555  0.00  0.00    +0.000 HD
ATOM     13  H   UNL     1       0.333 -12.527  -9.480  0.00  0.00    +0.000 HD
BRANCH  11  14
ATOM     14  C   UNL     1      -0.895 -12.589  -7.719  0.00  0.00    +0.000 C 
ATOM     15  H   UNL     1      -1.893 -12.297  -7.383  0.00  0.00    +0.000 HD
ATOM     16  H   UNL     1      -0.687 -13.600  -7.362  0.00  0.00    +0.000 HD
BRANCH  14  17
ATOM     17  O   UNL     1       0.046 -11.725  -7.094  0.00  0.00    +0.000 OA
ATOM     18  H   UNL     1       0.770 -11.572  -7.725  0.00  0.00    +0.000 HD
ENDBRANCH  14  17
ENDBRANCH  11  14
ENDBRANCH   1  11
TORSDOF 5
ENDMDL
MODEL 8
REMARK VINA RESULT:    -3.088     14.055     14.888
REMARK INTER + INTRA:          -3.753
REMARK INTER:                  -3.714
REMARK INTRA:                  -0.039
REMARK UNBOUND:                -0.033
REMARK  Name = 31260
REMARK  5 active torsions:
REMARK  status: ('A' for Active; 'I' for Inactive)
REMARK    1  A    between atoms: O_1  and  C_6
REMARK    2  A    between atoms: C_2  and  C_3
REMARK    3  A    between atoms: C_2  and  C_4
REMARK    4  A    between atoms: C_2  and  C_5
REMARK    5  A    between atoms: C_3  and  C_6
REMARK                            x       y       z     vdW  Elec       q    Type
REMARK                         _______ _______ _______ _____ _____    ______ ____
ROOT
ATOM      1  C   UNL     1      -1.613   4.397 -14.591  0.00  0.00    +0.000 C 
ATOM      2  H   UNL     1      -1.703   5.305 -15.199  0.00  0.00    +0.000 HD
ENDROOT
BRANCH   1   3
ATOM      3  C   UNL     1      -1.267   4.804 -13.157  0.00  0.00    +0.000 C 
ATOM      4  H   UNL     1      -0.180   4.847 -13.030  0.00  0.00    +0.000 HD
ATOM      5  H   UNL     1      -1.648   4.093 -12.417  0.00  0.00    +0.000 HD
ATOM      6  H   UNL     1      -1.665   5.797 -12.921  0.00  0.00    +0.000 HD
ENDBRANCH   1   3
BRANCH   1   7
ATOM      7  C   UNL     1      -0.485   3.540 -15.170  0.00  0.00    +0.000 C 
ATOM      8  H   UNL     1       0.411   4.128 -15.390  0.00  0.00    +0.000 HD
ATOM      9  H   UNL     1      -0.806   3.071 -16.106  0.00  0.00    +0.000 HD
ATOM     10  H   UNL     1      -0.209   2.742 -14.474  0.00  0.00    +0.000 HD
ENDBRANCH   1   7
BRANCH   1  11
ATOM     11  C   UNL     1      -2.969   3.675 -14.618  0.00  0.00    +0.000 C 
ATOM     12  H   UNL     1      -3.761   4.392 -14.869  0.00  0.00    +0.000 HD
ATOM     13  H   UNL     1      -3.215   3.313 -13.610  0.00  0.00    +0.000 HD
BRANCH  11  14
ATOM     14  C   UNL     1      -3.021   2.502 -15.589  0.00  0.00    +0.000 C 
ATOM     15  H   UNL     1      -3.745   2.661 -16.393  0.00  0.00    +0.000 HD
ATOM     16  H   UNL     1      -2.045   2.295 -16.033  0.00  0.00    +0.000 HD
BRANCH  14  17
ATOM     17  O   UNL     1      -3.411   1.335 -14.875  0.00  0.00    +0.000 OA
ATOM     18  H   UNL     1      -4.091   0.882 -15.402  0.00  0.00    +0.000 HD
ENDBRANCH  14  17
ENDBRANCH  11  14
ENDBRANCH   1  11
TORSDOF 5
ENDMDL
MODEL 9
REMARK VINA RESULT:    -3.087      2.152      2.872
REMARK INTER + INTRA:          -3.751
REMARK INTER:                  -3.739
REMARK INTRA:                  -0.012
REMARK UNBOUND:                -0.033
REMARK  Name = 31260
REMARK  5 active torsions:
REMARK  status: ('A' for Active; 'I' for Inactive)
REMARK    1  A    between atoms: O_1  and  C_6
REMARK    2  A    between atoms: C_2  and  C_3
REMARK    3  A    between atoms: C_2  and  C_4
REMARK    4  A    between atoms: C_2  and  C_5
REMARK    5  A    between atoms: C_3  and  C_6
REMARK                            x       y       z     vdW  Elec       q    Type
REMARK                         _______ _______ _______ _____ _____    ______ ____
ROOT
ATOM      1  C   UNL     1       5.968  -0.986  -3.499  0.00  0.00    +0.000 C 
ATOM      2  H   UNL     1       4.999  -1.010  -4.014  0.00  0.00    +0.000 HD
ENDROOT
BRANCH   1   3
ATOM      3  C   UNL     1       7.079  -1.031  -4.551  0.00  0.00    +0.000 C 
ATOM      4  H   UNL     1       6.679  -1.394  -5.504  0.00  0.00    +0.000 HD
ATOM      5  H   UNL     1       7.895  -1.704  -4.269  0.00  0.00    +0.000 HD
ATOM      6  H   UNL     1       7.496  -0.034  -4.728  0.00  0.00    +0.000 HD
ENDBRANCH   1   3
BRANCH   1   7
ATOM      7  C   UNL     1       6.063  -2.216  -2.595  0.00  0.00    +0.000 C 
ATOM      8  H   UNL     1       5.288  -2.224  -1.823  0.00  0.00    +0.000 HD
ATOM      9  H   UNL     1       7.032  -2.239  -2.085  0.00  0.00    +0.000 HD
ATOM     10  H   UNL     1       5.973  -3.136  -3.181  0.00  0.00    +0.000 HD
ENDBRANCH   1   7
BRANCH   1  11
ATOM     11  C   UNL     1       6.049   0.330  -2.709  0.00  0.00    +0.000 C 
ATOM     12  H   UNL     1       5.368   0.283  -1.849  0.00  0.00    +0.000 HD
ATOM     13  H   UNL     1       5.677   1.157  -3.328  0.00  0.00    +0.000 HD
BRANCH  11  14
ATOM     14  C   UNL     1       7.453   0.669  -2.224  0.00  0.00    +0.000 C 
ATOM     15  H   UNL     1       7.963  -0.195  -1.790  0.00  0.00    +0.000 HD
ATOM     16  H   UNL     1       8.075   1.077  -3.025  0.00  0.00    +0.000 HD
BRANCH  14  17
ATOM     17  O   UNL     1       7.359   1.670  -1.218  0.00  0.00    +0.000 OA
ATOM     18  H   UNL     1       6.692   2.316  -1.508  0.00  0.00    +0.000 HD
ENDBRANCH  14  17
ENDBRANCH  11  14
ENDBRANCH   1  11
TORSDOF 5
ENDMDL
MODEL 10
REMARK VINA RESULT:    -3.064      1.802      2.484
REMARK INTER + INTRA:          -3.724
REMARK INTER:                  -3.691
REMARK INTRA:                  -0.033
REMARK UNBOUND:                -0.033
REMARK  Name = 31260
REMARK  5 active torsions:
REMARK  status: ('A' for Active; 'I' for Inactive)
REMARK    1  A    between atoms: O_1  and  C_6
REMARK    2  A    between atoms: C_2  and  C_3
REMARK    3  A    between atoms: C_2  and  C_4
REMARK    4  A    between atoms: C_2  and  C_5
REMARK    5  A    between atoms: C_3  and  C_6
REMARK                            x       y       z     vdW  Elec       q    Type
REMARK                         _______ _______ _______ _____ _____    ______ ____
ROOT
ATOM      1  C   UNL     1       8.078  -1.086  -3.602  0.00  0.00    +0.000 C 
ATOM      2  H   UNL     1       7.977  -0.076  -3.187  0.00  0.00    +0.000 HD
ENDROOT
BRANCH   1   3
ATOM      3  C   UNL     1       8.815  -1.959  -2.584  0.00  0.00    +0.000 C 
ATOM      4  H   UNL     1       8.176  -2.142  -1.713  0.00  0.00    +0.000 HD
ATOM      5  H   UNL     1       9.731  -1.488  -2.215  0.00  0.00    +0.000 HD
ATOM      6  H   UNL     1       9.073  -2.934  -3.012  0.00  0.00    +0.000 HD
ENDBRANCH   1   3
BRANCH   1   7
ATOM      7  C   UNL     1       8.894  -0.998  -4.893  0.00  0.00    +0.000 C 
ATOM      8  H   UNL     1       9.696  -0.256  -4.826  0.00  0.00    +0.000 HD
ATOM      9  H   UNL     1       8.250  -0.709  -5.731  0.00  0.00    +0.000 HD
ATOM     10  H   UNL     1       9.342  -1.967  -5.135  0.00  0.00    +0.000 HD
ENDBRANCH   1   7
BRANCH   1  11
ATOM     11  C   UNL     1       6.664  -1.641  -3.840  0.00  0.00    +0.000 C 
ATOM     12  H   UNL     1       6.714  -2.478  -4.549  0.00  0.00    +0.000 HD
ATOM     13  H   UNL     1       6.047  -0.880  -4.334  0.00  0.00    +0.000 HD
BRANCH  11  14
ATOM     14  C   UNL     1       5.962  -2.098  -2.568  0.00  0.00    +0.000 C 
ATOM     15  H   UNL     1       5.318  -2.965  -2.737  0.00  0.00    +0.000 HD
ATOM     16  H   UNL     1       6.672  -2.338  -1.773  0.00  0.00    +0.000 HD
BRANCH  14  17
ATOM     17  O   UNL     1       5.146  -1.035  -2.091  0.00  0.00    +0.000 OA
ATOM     18  H   UNL     1       4.243  -1.189  -2.416  0.00  0.00    +0.000 HD
ENDBRANCH  14  17
ENDBRANCH  11  14
ENDBRANCH   1  11
TORSDOF 5
ENDMDL
