MODEL 1
REMARK VINA RESULT:    -4.701      0.000      0.000
REMARK INTER + INTRA:          -6.937
REMARK INTER:                  -6.604
REMARK INTRA:                  -0.333
REMARK UNBOUND:                -0.312
REMARK  Name = 61235
REMARK  8 active torsions:
REMARK  status: ('A' for Active; 'I' for Inactive)
REMARK    1  A    between atoms: C_2  and  C_3
REMARK    2  A    between atoms: C_2  and  C_4
REMARK    3  A    between atoms: C_3  and  C_5
REMARK    4  A    between atoms: C_4  and  C_6
REMARK    5  A    between atoms: C_5  and  C_7
REMARK    6  A    between atoms: C_6  and  C_8
REMARK    7  A    between atoms: C_7  and  C_9
REMARK    8  A    between atoms: C_9  and  C_10
REMARK                            x       y       z     vdW  Elec       q    Type
REMARK                         _______ _______ _______ _____ _____    ______ ____
ROOT
ATOM      1  C   UNL     1       6.729   1.572  -1.359  0.00  0.00    +0.000 C 
ATOM      2  H   UNL     1       6.532   2.650  -1.402  0.00  0.00    +0.000 HD
ATOM      3  H   UNL     1       5.892   1.123  -0.809  0.00  0.00    +0.000 HD
ENDROOT
BRANCH   1   4
ATOM      4  C   UNL     1       8.033   1.317  -0.596  0.00  0.00    +0.000 C 
ATOM      5  H   UNL     1       8.763   0.846  -1.264  0.00  0.00    +0.000 HD
ATOM      6  H   UNL     1       7.845   0.615   0.225  0.00  0.00    +0.000 HD
BRANCH   4   7
ATOM      7  C   UNL     1       8.611   2.619  -0.036  0.00  0.00    +0.000 C 
ATOM      8  H   UNL     1       9.122   2.417   0.913  0.00  0.00    +0.000 HD
ATOM      9  H   UNL     1       9.363   3.015  -0.730  0.00  0.00    +0.000 HD
BRANCH   7  10
ATOM     10  C   UNL     1       7.517   3.664   0.180  0.00  0.00    +0.000 C 
ATOM     11  H   UNL     1       7.234   4.112  -0.780  0.00  0.00    +0.000 HD
ATOM     12  H   UNL     1       6.621   3.185   0.592  0.00  0.00    +0.000 HD
BRANCH  10  13
ATOM     13  C   UNL     1       7.976   4.764   1.124  0.00  0.00    +0.000 C 
ATOM     14  H   UNL     1       8.577   4.341   1.935  0.00  0.00    +0.000 HD
ATOM     15  H   UNL     1       8.589   5.503   0.597  0.00  0.00    +0.000 HD
ATOM     16  H   UNL     1       7.121   5.283   1.570  0.00  0.00    +0.000 HD
ENDBRANCH  10  13
ENDBRANCH   7  10
ENDBRANCH   4   7
ENDBRANCH   1   4
BRANCH   1  17
ATOM     17  C   UNL     1       6.764   1.005  -2.777  0.00  0.00    +0.000 C 
ATOM     18  H   UNL     1       6.851   1.824  -3.501  0.00  0.00    +0.000 HD
ATOM     19  H   UNL     1       7.636   0.351  -2.888  0.00  0.00    +0.000 HD
BRANCH  17  21
ATOM     20  O   UNL     1       4.791   0.503  -4.074  0.00  0.00    +0.000 OA
ATOM     21  C   UNL     1       5.532   0.190  -3.144  0.00  0.00    +0.000 C 
BRANCH  21  22
ATOM     22  C   UNL     1       5.256  -1.015  -2.260  0.00  0.00    +0.000 C 
ATOM     23  H   UNL     1       4.198  -1.277  -2.359  0.00  0.00    +0.000 HD
ATOM     24  H   UNL     1       5.450  -0.727  -1.221  0.00  0.00    +0.000 HD
BRANCH  22  25
ATOM     25  C   UNL     1       6.113  -2.215  -2.619  0.00  0.00    +0.000 C 
ATOM     26  H   UNL     1       5.904  -2.557  -3.637  0.00  0.00    +0.000 HD
ATOM     27  H   UNL     1       5.916  -3.044  -1.932  0.00  0.00    +0.000 HD
ATOM     28  H   UNL     1       7.179  -1.969  -2.561  0.00  0.00    +0.000 HD
ENDBRANCH  22  25
ENDBRANCH  21  22
ENDBRANCH  17  21
ENDBRANCH   1  17
TORSDOF 8
ENDMDL
MODEL 2
REMARK VINA RESULT:    -4.622      8.096      9.370
REMARK INTER + INTRA:          -6.825
REMARK INTER:                  -6.480
REMARK INTRA:                  -0.345
REMARK UNBOUND:                -0.312
REMARK  Name = 61235
REMARK  8 active torsions:
REMARK  status: ('A' for Active; 'I' for Inactive)
REMARK    1  A    between atoms: C_2  and  C_3
REMARK    2  A    between atoms: C_2  and  C_4
REMARK    3  A    between atoms: C_3  and  C_5
REMARK    4  A    between atoms: C_4  and  C_6
REMARK    5  A    between atoms: C_5  and  C_7
REMARK    6  A    between atoms: C_6  and  C_8
REMARK    7  A    between atoms: C_7  and  C_9
REMARK    8  A    between atoms: C_9  and  C_10
REMARK                            x       y       z     vdW  Elec       q    Type
REMARK                         _______ _______ _______ _____ _____    ______ ____
ROOT
ATOM      1  C   UNL     1      11.704   6.705  -2.988  0.00  0.00    +0.000 C 
ATOM      2  H   UNL     1      11.578   5.898  -2.256  0.00  0.00    +0.000 HD
ATOM      3  H   UNL     1      12.294   7.486  -2.494  0.00  0.00    +0.000 HD
ENDROOT
BRANCH   1   4
ATOM      4  C   UNL     1      10.333   7.270  -3.375  0.00  0.00    +0.000 C 
ATOM      5  H   UNL     1       9.798   7.584  -2.471  0.00  0.00    +0.000 HD
ATOM      6  H   UNL     1       9.735   6.483  -3.850  0.00  0.00    +0.000 HD
BRANCH   4   7
ATOM      7  C   UNL     1      10.473   8.456  -4.331  0.00  0.00    +0.000 C 
ATOM      8  H   UNL     1      10.522   9.389  -3.757  0.00  0.00    +0.000 HD
ATOM      9  H   UNL     1      11.414   8.369  -4.888  0.00  0.00    +0.000 HD
BRANCH   7  10
ATOM     10  C   UNL     1       9.304   8.517  -5.314  0.00  0.00    +0.000 C 
ATOM     11  H   UNL     1       8.436   8.982  -4.833  0.00  0.00    +0.000 HD
ATOM     12  H   UNL     1       9.573   9.142  -6.174  0.00  0.00    +0.000 HD
BRANCH  10  13
ATOM     13  C   UNL     1       8.915   7.131  -5.805  0.00  0.00    +0.000 C 
ATOM     14  H   UNL     1       9.393   6.922  -6.768  0.00  0.00    +0.000 HD
ATOM     15  H   UNL     1       9.232   6.360  -5.095  0.00  0.00    +0.000 HD
ATOM     16  H   UNL     1       7.832   7.051  -5.939  0.00  0.00    +0.000 HD
ENDBRANCH  10  13
ENDBRANCH   7  10
ENDBRANCH   4   7
ENDBRANCH   1   4
BRANCH   1  17
ATOM     17  C   UNL     1      12.477   6.178  -4.196  0.00  0.00    +0.000 C 
ATOM     18  H   UNL     1      12.819   5.155  -3.999  0.00  0.00    +0.000 HD
ATOM     19  H   UNL     1      11.819   6.159  -5.072  0.00  0.00    +0.000 HD
BRANCH  17  21
ATOM     20  O   UNL     1      13.976   8.057  -3.972  0.00  0.00    +0.000 OA
ATOM     21  C   UNL     1      13.696   7.013  -4.559  0.00  0.00    +0.000 C 
BRANCH  21  22
ATOM     22  C   UNL     1      14.525   6.492  -5.721  0.00  0.00    +0.000 C 
ATOM     23  H   UNL     1      15.484   7.021  -5.723  0.00  0.00    +0.000 HD
ATOM     24  H   UNL     1      13.995   6.727  -6.650  0.00  0.00    +0.000 HD
BRANCH  22  25
ATOM     25  C   UNL     1      14.771   4.996  -5.644  0.00  0.00    +0.000 C 
ATOM     26  H   UNL     1      15.819   4.759  -5.853  0.00  0.00    +0.000 HD
ATOM     27  H   UNL     1      14.148   4.469  -6.372  0.00  0.00    +0.000 HD
ATOM     28  H   UNL     1      14.533   4.610  -4.646  0.00  0.00    +0.000 HD
ENDBRANCH  22  25
ENDBRANCH  21  22
ENDBRANCH  17  21
ENDBRANCH   1  17
TORSDOF 8
ENDMDL
MODEL 3
REMARK VINA RESULT:    -4.558      3.545      4.792
REMARK INTER + INTRA:          -6.735
REMARK INTER:                  -6.078
REMARK INTRA:                  -0.657
REMARK UNBOUND:                -0.312
REMARK  Name = 61235
REMARK  8 active torsions:
REMARK  status: ('A' for Active; 'I' for Inactive)
REMARK    1  A    between atoms: C_2  and  C_3
REMARK    2  A    between atoms: C_2  and  C_4
REMARK    3  A    between atoms: C_3  and  C_5
REMARK    4  A    between atoms: C_4  and  C_6
REMARK    5  A    between atoms: C_5  and  C_7
REMARK    6  A    between atoms: C_6  and  C_8
REMARK    7  A    between atoms: C_7  and  C_9
REMARK    8  A    between atoms: C_9  and  C_10
REMARK                            x       y       z     vdW  Elec       q    Type
REMARK                         _______ _______ _______ _____ _____    ______ ____
ROOT
ATOM      1  C   UNL     1       7.273  -1.163  -1.177  0.00  0.00    +0.000 C 
ATOM      2  H   UNL     1       6.965  -1.534  -0.192  0.00  0.00    +0.000 HD
ATOM      3  H   UNL     1       7.186  -0.070  -1.140  0.00  0.00    +0.000 HD
ENDROOT
BRANCH   1   4
ATOM      4  C   UNL     1       6.329  -1.712  -2.252  0.00  0.00    +0.000 C 
ATOM      5  H   UNL     1       5.872  -2.643  -1.898  0.00  0.00    +0.000 HD
ATOM      6  H   UNL     1       6.905  -1.954  -3.154  0.00  0.00    +0.000 HD
BRANCH   4   7
ATOM      7  C   UNL     1       5.236  -0.699  -2.599  0.00  0.00    +0.000 C 
ATOM      8  H   UNL     1       4.437  -1.197  -3.161  0.00  0.00    +0.000 HD
ATOM      9  H   UNL     1       4.787  -0.312  -1.674  0.00  0.00    +0.000 HD
BRANCH   7  10
ATOM     10  C   UNL     1       5.795   0.463  -3.418  0.00  0.00    +0.000 C 
ATOM     11  H   UNL     1       5.623   1.409  -2.890  0.00  0.00    +0.000 HD
ATOM     12  H   UNL     1       6.879   0.349  -3.535  0.00  0.00    +0.000 HD
BRANCH  10  13
ATOM     13  C   UNL     1       5.148   0.539  -4.792  0.00  0.00    +0.000 C 
ATOM     14  H   UNL     1       5.692   1.244  -5.429  0.00  0.00    +0.000 HD
ATOM     15  H   UNL     1       5.157  -0.439  -5.284  0.00  0.00    +0.000 HD
ATOM     16  H   UNL     1       4.109   0.878  -4.719  0.00  0.00    +0.000 HD
ENDBRANCH  10  13
ENDBRANCH   7  10
ENDBRANCH   4   7
ENDBRANCH   1   4
BRANCH   1  17
ATOM     17  C   UNL     1       8.730  -1.544  -1.432  0.00  0.00    +0.000 C 
ATOM     18  H   UNL     1       9.315  -1.405  -0.515  0.00  0.00    +0.000 HD
ATOM     19  H   UNL     1       8.787  -2.600  -1.720  0.00  0.00    +0.000 HD
BRANCH  17  21
ATOM     20  O   UNL     1       9.637   0.466  -2.414  0.00  0.00    +0.000 OA
ATOM     21  C   UNL     1       9.395  -0.734  -2.535  0.00  0.00    +0.000 C 
BRANCH  21  22
ATOM     22  C   UNL     1       9.704  -1.496  -3.812  0.00  0.00    +0.000 C 
ATOM     23  H   UNL     1       9.580  -2.565  -3.612  0.00  0.00    +0.000 HD
ATOM     24  H   UNL     1      10.751  -1.309  -4.076  0.00  0.00    +0.000 HD
BRANCH  22  25
ATOM     25  C   UNL     1       8.811  -1.089  -4.971  0.00  0.00    +0.000 C 
ATOM     26  H   UNL     1       7.850  -0.708  -4.611  0.00  0.00    +0.000 HD
ATOM     27  H   UNL     1       8.618  -1.946  -5.623  0.00  0.00    +0.000 HD
ATOM     28  H   UNL     1       9.280  -0.301  -5.570  0.00  0.00    +0.000 HD
ENDBRANCH  22  25
ENDBRANCH  21  22
ENDBRANCH  17  21
ENDBRANCH   1  17
TORSDOF 8
ENDMDL
MODEL 4
REMARK VINA RESULT:    -4.518      7.831      8.813
REMARK INTER + INTRA:          -6.679
REMARK INTER:                  -6.392
REMARK INTRA:                  -0.286
REMARK UNBOUND:                -0.312
REMARK  Name = 61235
REMARK  8 active torsions:
REMARK  status: ('A' for Active; 'I' for Inactive)
REMARK    1  A    between atoms: C_2  and  C_3
REMARK    2  A    between atoms: C_2  and  C_4
REMARK    3  A    between atoms: C_3  and  C_5
REMARK    4  A    between atoms: C_4  and  C_6
REMARK    5  A    between atoms: C_5  and  C_7
REMARK    6  A    between atoms: C_6  and  C_8
REMARK    7  A    between atoms: C_7  and  C_9
REMARK    8  A    between atoms: C_9  and  C_10
REMARK                            x       y       z     vdW  Elec       q    Type
REMARK                         _______ _______ _______ _____ _____    ______ ____
ROOT
ATOM      1  C   UNL     1      12.171   5.047  -3.971  0.00  0.00    +0.000 C 
ATOM      2  H   UNL     1      12.583   5.169  -4.980  0.00  0.00    +0.000 HD
ATOM      3  H   UNL     1      11.262   4.442  -4.076  0.00  0.00    +0.000 HD
ENDROOT
BRANCH   1   4
ATOM      4  C   UNL     1      11.806   6.418  -3.393  0.00  0.00    +0.000 C 
ATOM      5  H   UNL     1      12.697   6.881  -2.954  0.00  0.00    +0.000 HD
ATOM      6  H   UNL     1      11.074   6.291  -2.586  0.00  0.00    +0.000 HD
BRANCH   4   7
ATOM      7  C   UNL     1      11.226   7.336  -4.471  0.00  0.00    +0.000 C 
ATOM      8  H   UNL     1      11.670   8.335  -4.384  0.00  0.00    +0.000 HD
ATOM      9  H   UNL     1      11.492   6.950  -5.464  0.00  0.00    +0.000 HD
BRANCH   7  10
ATOM     10  C   UNL     1       9.705   7.438  -4.356  0.00  0.00    +0.000 C 
ATOM     11  H   UNL     1       9.338   6.713  -3.619  0.00  0.00    +0.000 HD
ATOM     12  H   UNL     1       9.425   8.435  -3.998  0.00  0.00    +0.000 HD
BRANCH  10  13
ATOM     13  C   UNL     1       9.026   7.175  -5.691  0.00  0.00    +0.000 C 
ATOM     14  H   UNL     1       9.513   6.342  -6.206  0.00  0.00    +0.000 HD
ATOM     15  H   UNL     1       7.971   6.917  -5.550  0.00  0.00    +0.000 HD
ATOM     16  H   UNL     1       9.081   8.055  -6.339  0.00  0.00    +0.000 HD
ENDBRANCH  10  13
ENDBRANCH   7  10
ENDBRANCH   4   7
ENDBRANCH   1   4
BRANCH   1  17
ATOM     17  C   UNL     1      13.177   4.298  -3.098  0.00  0.00    +0.000 C 
ATOM     18  H   UNL     1      13.475   4.929  -2.252  0.00  0.00    +0.000 HD
ATOM     19  H   UNL     1      12.712   3.388  -2.703  0.00  0.00    +0.000 HD
BRANCH  17  21
ATOM     20  O   UNL     1      15.365   3.295  -3.275  0.00  0.00    +0.000 OA
ATOM     21  C   UNL     1      14.441   3.882  -3.835  0.00  0.00    +0.000 C 
BRANCH  21  22
ATOM     22  C   UNL     1      14.504   4.274  -5.302  0.00  0.00    +0.000 C 
ATOM     23  H   UNL     1      14.014   5.246  -5.418  0.00  0.00    +0.000 HD
ATOM     24  H   UNL     1      13.945   3.529  -5.879  0.00  0.00    +0.000 HD
BRANCH  22  25
ATOM     25  C   UNL     1      15.925   4.357  -5.828  0.00  0.00    +0.000 C 
ATOM     26  H   UNL     1      15.939   4.673  -6.876  0.00  0.00    +0.000 HD
ATOM     27  H   UNL     1      16.416   3.382  -5.758  0.00  0.00    +0.000 HD
ATOM     28  H   UNL     1      16.515   5.080  -5.254  0.00  0.00    +0.000 HD
ENDBRANCH  22  25
ENDBRANCH  21  22
ENDBRANCH  17  21
ENDBRANCH   1  17
TORSDOF 8
ENDMDL
MODEL 5
REMARK VINA RESULT:    -4.479      2.379      4.062
REMARK INTER + INTRA:          -6.624
REMARK INTER:                  -6.150
REMARK INTRA:                  -0.473
REMARK UNBOUND:                -0.312
REMARK  Name = 61235
REMARK  8 active torsions:
REMARK  status: ('A' for Active; 'I' for Inactive)
REMARK    1  A    between atoms: C_2  and  C_3
REMARK    2  A    between atoms: C_2  and  C_4
REMARK    3  A    between atoms: C_3  and  C_5
REMARK    4  A    between atoms: C_4  and  C_6
REMARK    5  A    between atoms: C_5  and  C_7
REMARK    6  A    between atoms: C_6  and  C_8
REMARK    7  A    between atoms: C_7  and  C_9
REMARK    8  A    between atoms: C_9  and  C_10
REMARK                            x       y       z     vdW  Elec       q    Type
REMARK                         _______ _______ _______ _____ _____    ______ ____
ROOT
ATOM      1  C   UNL     1       7.345   0.792  -1.348  0.00  0.00    +0.000 C 
ATOM      2  H   UNL     1       7.370   1.520  -0.527  0.00  0.00    +0.000 HD
ATOM      3  H   UNL     1       6.949  -0.140  -0.927  0.00  0.00    +0.000 HD
ENDROOT
BRANCH   1   4
ATOM      4  C   UNL     1       8.766   0.553  -1.868  0.00  0.00    +0.000 C 
ATOM      5  H   UNL     1       9.492   0.852  -1.103  0.00  0.00    +0.000 HD
ATOM      6  H   UNL     1       8.943   1.182  -2.748  0.00  0.00    +0.000 HD
BRANCH   4   7
ATOM      7  C   UNL     1       8.980  -0.917  -2.236  0.00  0.00    +0.000 C 
ATOM      8  H   UNL     1       9.902  -1.283  -1.770  0.00  0.00    +0.000 HD
ATOM      9  H   UNL     1       8.154  -1.519  -1.837  0.00  0.00    +0.000 HD
BRANCH   7  10
ATOM     10  C   UNL     1       9.060  -1.103  -3.751  0.00  0.00    +0.000 C 
ATOM     11  H   UNL     1       8.208  -1.700  -4.099  0.00  0.00    +0.000 HD
ATOM     12  H   UNL     1       9.000  -0.129  -4.250  0.00  0.00    +0.000 HD
BRANCH  10  13
ATOM     13  C   UNL     1      10.350  -1.797  -4.160  0.00  0.00    +0.000 C 
ATOM     14  H   UNL     1      11.183  -1.438  -3.548  0.00  0.00    +0.000 HD
ATOM     15  H   UNL     1      10.272  -2.881  -4.027  0.00  0.00    +0.000 HD
ATOM     16  H   UNL     1      10.589  -1.596  -5.210  0.00  0.00    +0.000 HD
ENDBRANCH  10  13
ENDBRANCH   7  10
ENDBRANCH   4   7
ENDBRANCH   1   4
BRANCH   1  17
ATOM     17  C   UNL     1       6.402   1.292  -2.441  0.00  0.00    +0.000 C 
ATOM     18  H   UNL     1       5.734   2.059  -2.032  0.00  0.00    +0.000 HD
ATOM     19  H   UNL     1       6.987   1.741  -3.252  0.00  0.00    +0.000 HD
BRANCH  17  21
ATOM     20  O   UNL     1       5.418  -0.910  -2.539  0.00  0.00    +0.000 OA
ATOM     21  C   UNL     1       5.535   0.201  -3.053  0.00  0.00    +0.000 C 
BRANCH  21  22
ATOM     22  C   UNL     1       4.855   0.561  -4.363  0.00  0.00    +0.000 C 
ATOM     23  H   UNL     1       4.715   1.647  -4.389  0.00  0.00    +0.000 HD
ATOM     24  H   UNL     1       3.871   0.081  -4.380  0.00  0.00    +0.000 HD
BRANCH  22  25
ATOM     25  C   UNL     1       5.652   0.123  -5.579  0.00  0.00    +0.000 C 
ATOM     26  H   UNL     1       4.993  -0.073  -6.430  0.00  0.00    +0.000 HD
ATOM     27  H   UNL     1       6.211  -0.791  -5.359  0.00  0.00    +0.000 HD
ATOM     28  H   UNL     1       6.366   0.897  -5.880  0.00  0.00    +0.000 HD
ENDBRANCH  22  25
ENDBRANCH  21  22
ENDBRANCH  17  21
ENDBRANCH   1  17
TORSDOF 8
ENDMDL
MODEL 6
REMARK VINA RESULT:    -4.448      2.508      4.723
REMARK INTER + INTRA:          -6.580
REMARK INTER:                  -5.766
REMARK INTRA:                  -0.815
REMARK UNBOUND:                -0.312
REMARK  Name = 61235
REMARK  8 active torsions:
REMARK  status: ('A' for Active; 'I' for Inactive)
REMARK    1  A    between atoms: C_2  and  C_3
REMARK    2  A    between atoms: C_2  and  C_4
REMARK    3  A    between atoms: C_3  and  C_5
REMARK    4  A    between atoms: C_4  and  C_6
REMARK    5  A    between atoms: C_5  and  C_7
REMARK    6  A    between atoms: C_6  and  C_8
REMARK    7  A    between atoms: C_7  and  C_9
REMARK    8  A    between atoms: C_9  and  C_10
REMARK                            x       y       z     vdW  Elec       q    Type
REMARK                         _______ _______ _______ _____ _____    ______ ____
ROOT
ATOM      1  C   UNL     1       8.053  -1.723  -2.169  0.00  0.00    +0.000 C 
ATOM      2  H   UNL     1       8.147  -0.946  -2.937  0.00  0.00    +0.000 HD
ATOM      3  H   UNL     1       8.789  -2.498  -2.417  0.00  0.00    +0.000 HD
ENDROOT
BRANCH   1   4
ATOM      4  C   UNL     1       6.645  -2.326  -2.217  0.00  0.00    +0.000 C 
ATOM      5  H   UNL     1       6.417  -2.801  -1.255  0.00  0.00    +0.000 HD
ATOM      6  H   UNL     1       6.609  -3.111  -2.983  0.00  0.00    +0.000 HD
BRANCH   4   7
ATOM      7  C   UNL     1       5.595  -1.258  -2.528  0.00  0.00    +0.000 C 
ATOM      8  H   UNL     1       4.652  -1.739  -2.813  0.00  0.00    +0.000 HD
ATOM      9  H   UNL     1       5.395  -0.666  -1.625  0.00  0.00    +0.000 HD
BRANCH   7  10
ATOM     10  C   UNL     1       6.061  -0.332  -3.651  0.00  0.00    +0.000 C 
ATOM     11  H   UNL     1       7.151  -0.219  -3.614  0.00  0.00    +0.000 HD
ATOM     12  H   UNL     1       5.812  -0.772  -4.623  0.00  0.00    +0.000 HD
BRANCH  10  13
ATOM     13  C   UNL     1       5.417   1.042  -3.543  0.00  0.00    +0.000 C 
ATOM     14  H   UNL     1       6.099   1.810  -3.920  0.00  0.00    +0.000 HD
ATOM     15  H   UNL     1       4.494   1.090  -4.131  0.00  0.00    +0.000 HD
ATOM     16  H   UNL     1       5.175   1.283  -2.503  0.00  0.00    +0.000 HD
ENDBRANCH  10  13
ENDBRANCH   7  10
ENDBRANCH   4   7
ENDBRANCH   1   4
BRANCH   1  17
ATOM     17  C   UNL     1       8.386  -1.130  -0.801  0.00  0.00    +0.000 C 
ATOM     18  H   UNL     1       7.609  -1.408  -0.079  0.00  0.00    +0.000 HD
ATOM     19  H   UNL     1       9.343  -1.534  -0.451  0.00  0.00    +0.000 HD
BRANCH  17  21
ATOM     20  O   UNL     1       9.498   0.971  -1.220  0.00  0.00    +0.000 OA
ATOM     21  C   UNL     1       8.501   0.387  -0.800  0.00  0.00    +0.000 C 
BRANCH  21  22
ATOM     22  C   UNL     1       7.317   1.133  -0.206  0.00  0.00    +0.000 C 
ATOM     23  H   UNL     1       6.681   1.475  -1.028  0.00  0.00    +0.000 HD
ATOM     24  H   UNL     1       7.700   2.009   0.329  0.00  0.00    +0.000 HD
BRANCH  22  25
ATOM     25  C   UNL     1       6.501   0.277   0.745  0.00  0.00    +0.000 C 
ATOM     26  H   UNL     1       6.858   0.384   1.775  0.00  0.00    +0.000 HD
ATOM     27  H   UNL     1       6.572  -0.778   0.466  0.00  0.00    +0.000 HD
ATOM     28  H   UNL     1       5.444   0.567   0.726  0.00  0.00    +0.000 HD
ENDBRANCH  22  25
ENDBRANCH  21  22
ENDBRANCH  17  21
ENDBRANCH   1  17
TORSDOF 8
ENDMDL
MODEL 7
REMARK VINA RESULT:    -4.345      1.582      2.084
REMARK INTER + INTRA:          -6.436
REMARK INTER:                  -6.204
REMARK INTRA:                  -0.231
REMARK UNBOUND:                -0.312
REMARK  Name = 61235
REMARK  8 active torsions:
REMARK  status: ('A' for Active; 'I' for Inactive)
REMARK    1  A    between atoms: C_2  and  C_3
REMARK    2  A    between atoms: C_2  and  C_4
REMARK    3  A    between atoms: C_3  and  C_5
REMARK    4  A    between atoms: C_4  and  C_6
REMARK    5  A    between atoms: C_5  and  C_7
REMARK    6  A    between atoms: C_6  and  C_8
REMARK    7  A    between atoms: C_7  and  C_9
REMARK    8  A    between atoms: C_9  and  C_10
REMARK                            x       y       z     vdW  Elec       q    Type
REMARK                         _______ _______ _______ _____ _____    ______ ____
ROOT
ATOM      1  C   UNL     1       6.946   1.041  -1.798  0.00  0.00    +0.000 C 
ATOM      2  H   UNL     1       7.959   0.710  -2.055  0.00  0.00    +0.000 HD
ATOM      3  H   UNL     1       6.670   1.804  -2.536  0.00  0.00    +0.000 HD
ENDROOT
BRANCH   1   4
ATOM      4  C   UNL     1       6.947   1.664  -0.398  0.00  0.00    +0.000 C 
ATOM      5  H   UNL     1       7.968   1.667   0.002  0.00  0.00    +0.000 HD
ATOM      6  H   UNL     1       6.337   1.051   0.275  0.00  0.00    +0.000 HD
BRANCH   4   7
ATOM      7  C   UNL     1       6.400   3.093  -0.428  0.00  0.00    +0.000 C 
ATOM      8  H   UNL     1       6.624   3.554  -1.397  0.00  0.00    +0.000 HD
ATOM      9  H   UNL     1       5.307   3.069  -0.327  0.00  0.00    +0.000 HD
BRANCH   7  10
ATOM     10  C   UNL     1       6.996   3.940   0.696  0.00  0.00    +0.000 C 
ATOM     11  H   UNL     1       6.238   4.629   1.086  0.00  0.00    +0.000 HD
ATOM     12  H   UNL     1       7.305   3.293   1.525  0.00  0.00    +0.000 HD
BRANCH  10  13
ATOM     13  C   UNL     1       8.194   4.742   0.213  0.00  0.00    +0.000 C 
ATOM     14  H   UNL     1       8.483   4.423  -0.793  0.00  0.00    +0.000 HD
ATOM     15  H   UNL     1       7.961   5.812   0.177  0.00  0.00    +0.000 HD
ATOM     16  H   UNL     1       9.055   4.600   0.875  0.00  0.00    +0.000 HD
ENDBRANCH  10  13
ENDBRANCH   7  10
ENDBRANCH   4   7
ENDBRANCH   1   4
BRANCH   1  17
ATOM     17  C   UNL     1       5.982  -0.139  -1.908  0.00  0.00    +0.000 C 
ATOM     18  H   UNL     1       6.089  -0.788  -1.031  0.00  0.00    +0.000 HD
ATOM     19  H   UNL     1       4.951   0.232  -1.940  0.00  0.00    +0.000 HD
BRANCH  17  21
ATOM     20  O   UNL     1       6.134  -2.223  -3.116  0.00  0.00    +0.000 OA
ATOM     21  C   UNL     1       6.197  -0.996  -3.147  0.00  0.00    +0.000 C 
BRANCH  21  22
ATOM     22  C   UNL     1       6.535  -0.235  -4.419  0.00  0.00    +0.000 C 
ATOM     23  H   UNL     1       7.093  -0.905  -5.081  0.00  0.00    +0.000 HD
ATOM     24  H   UNL     1       7.181   0.608  -4.150  0.00  0.00    +0.000 HD
BRANCH  22  25
ATOM     25  C   UNL     1       5.303   0.282  -5.140  0.00  0.00    +0.000 C 
ATOM     26  H   UNL     1       5.580   0.953  -5.959  0.00  0.00    +0.000 HD
ATOM     27  H   UNL     1       4.659   0.832  -4.448  0.00  0.00    +0.000 HD
ATOM     28  H   UNL     1       4.722  -0.544  -5.565  0.00  0.00    +0.000 HD
ENDBRANCH  22  25
ENDBRANCH  21  22
ENDBRANCH  17  21
ENDBRANCH   1  17
TORSDOF 8
ENDMDL
MODEL 8
REMARK VINA RESULT:    -4.301      7.899      9.529
REMARK INTER + INTRA:          -6.374
REMARK INTER:                  -5.703
REMARK INTRA:                  -0.671
REMARK UNBOUND:                -0.312
REMARK  Name = 61235
REMARK  8 active torsions:
REMARK  status: ('A' for Active; 'I' for Inactive)
REMARK    1  A    between atoms: C_2  and  C_3
REMARK    2  A    between atoms: C_2  and  C_4
REMARK    3  A    between atoms: C_3  and  C_5
REMARK    4  A    between atoms: C_4  and  C_6
REMARK    5  A    between atoms: C_5  and  C_7
REMARK    6  A    between atoms: C_6  and  C_8
REMARK    7  A    between atoms: C_7  and  C_9
REMARK    8  A    between atoms: C_9  and  C_10
REMARK                            x       y       z     vdW  Elec       q    Type
REMARK                         _______ _______ _______ _____ _____    ______ ____
ROOT
ATOM      1  C   UNL     1      13.260   4.177  -2.990  0.00  0.00    +0.000 C 
ATOM      2  H   UNL     1      13.450   4.613  -2.001  0.00  0.00    +0.000 HD
ATOM      3  H   UNL     1      12.786   3.203  -2.817  0.00  0.00    +0.000 HD
ENDROOT
BRANCH   1   4
ATOM      4  C   UNL     1      14.587   3.973  -3.727  0.00  0.00    +0.000 C 
ATOM      5  H   UNL     1      15.042   3.028  -3.409  0.00  0.00    +0.000 HD
ATOM      6  H   UNL     1      15.283   4.776  -3.455  0.00  0.00    +0.000 HD
BRANCH   4   7
ATOM      7  C   UNL     1      14.383   3.964  -5.243  0.00  0.00    +0.000 C 
ATOM      8  H   UNL     1      14.285   2.930  -5.596  0.00  0.00    +0.000 HD
ATOM      9  H   UNL     1      13.446   4.479  -5.491  0.00  0.00    +0.000 HD
BRANCH   7  10
ATOM     10  C   UNL     1      15.545   4.646  -5.965  0.00  0.00    +0.000 C 
ATOM     11  H   UNL     1      15.804   4.083  -6.869  0.00  0.00    +0.000 HD
ATOM     12  H   UNL     1      15.247   5.652  -6.282  0.00  0.00    +0.000 HD
BRANCH  10  13
ATOM     13  C   UNL     1      16.773   4.745  -5.074  0.00  0.00    +0.000 C 
ATOM     14  H   UNL     1      17.662   4.958  -5.676  0.00  0.00    +0.000 HD
ATOM     15  H   UNL     1      16.661   5.548  -4.338  0.00  0.00    +0.000 HD
ATOM     16  H   UNL     1      16.945   3.807  -4.536  0.00  0.00    +0.000 HD
ENDBRANCH  10  13
ENDBRANCH   7  10
ENDBRANCH   4   7
ENDBRANCH   1   4
BRANCH   1  17
ATOM     17  C   UNL     1      12.297   5.076  -3.765  0.00  0.00    +0.000 C 
ATOM     18  H   UNL     1      12.633   5.169  -4.804  0.00  0.00    +0.000 HD
ATOM     19  H   UNL     1      11.297   4.627  -3.764  0.00  0.00    +0.000 HD
BRANCH  17  21
ATOM     20  O   UNL     1      11.886   6.683  -2.011  0.00  0.00    +0.000 OA
ATOM     21  C   UNL     1      12.167   6.479  -3.191  0.00  0.00    +0.000 C 
BRANCH  21  22
ATOM     22  C   UNL     1      12.370   7.613  -4.182  0.00  0.00    +0.000 C 
ATOM     23  H   UNL     1      12.099   8.552  -3.689  0.00  0.00    +0.000 HD
ATOM     24  H   UNL     1      11.692   7.453  -5.027  0.00  0.00    +0.000 HD
BRANCH  22  25
ATOM     25  C   UNL     1      13.798   7.701  -4.690  0.00  0.00    +0.000 C 
ATOM     26  H   UNL     1      14.394   8.380  -4.071  0.00  0.00    +0.000 HD
ATOM     27  H   UNL     1      13.815   8.072  -5.719  0.00  0.00    +0.000 HD
ATOM     28  H   UNL     1      14.283   6.719  -4.671  0.00  0.00    +0.000 HD
ENDBRANCH  22  25
ENDBRANCH  21  22
ENDBRANCH  17  21
ENDBRANCH   1  17
TORSDOF 8
ENDMDL
MODEL 9
REMARK VINA RESULT:    -4.190      1.791      2.459
REMARK INTER + INTRA:          -6.216
REMARK INTER:                  -5.540
REMARK INTRA:                  -0.676
REMARK UNBOUND:                -0.312
REMARK  Name = 61235
REMARK  8 active torsions:
REMARK  status: ('A' for Active; 'I' for Inactive)
REMARK    1  A    between atoms: C_2  and  C_3
REMARK    2  A    between atoms: C_2  and  C_4
REMARK    3  A    between atoms: C_3  and  C_5
REMARK    4  A    between atoms: C_4  and  C_6
REMARK    5  A    between atoms: C_5  and  C_7
REMARK    6  A    between atoms: C_6  and  C_8
REMARK    7  A    between atoms: C_7  and  C_9
REMARK    8  A    between atoms: C_9  and  C_10
REMARK                            x       y       z     vdW  Elec       q    Type
REMARK                         _______ _______ _______ _____ _____    ______ ____
ROOT
ATOM      1  C   UNL     1       8.528  -1.233  -1.236  0.00  0.00    +0.000 C 
ATOM      2  H   UNL     1       7.836  -1.651  -0.494  0.00  0.00    +0.000 HD
ATOM      3  H   UNL     1       9.384  -1.917  -1.285  0.00  0.00    +0.000 HD
ENDROOT
BRANCH   1   4
ATOM      4  C   UNL     1       9.005   0.148  -0.776  0.00  0.00    +0.000 C 
ATOM      5  H   UNL     1       9.269   0.755  -1.650  0.00  0.00    +0.000 HD
ATOM      6  H   UNL     1       9.912   0.038  -0.170  0.00  0.00    +0.000 HD
BRANCH   4   7
ATOM      7  C   UNL     1       7.926   0.862   0.041  0.00  0.00    +0.000 C 
ATOM      8  H   UNL     1       6.935   0.512  -0.270  0.00  0.00    +0.000 HD
ATOM      9  H   UNL     1       8.040   0.606   1.102  0.00  0.00    +0.000 HD
BRANCH   7  10
ATOM     10  C   UNL     1       8.013   2.379  -0.128  0.00  0.00    +0.000 C 
ATOM     11  H   UNL     1       8.589   2.814   0.697  0.00  0.00    +0.000 HD
ATOM     12  H   UNL     1       8.544   2.619  -1.057  0.00  0.00    +0.000 HD
BRANCH  10  13
ATOM     13  C   UNL     1       6.633   3.016  -0.160  0.00  0.00    +0.000 C 
ATOM     14  H   UNL     1       6.520   3.629  -1.060  0.00  0.00    +0.000 HD
ATOM     15  H   UNL     1       5.848   2.253  -0.169  0.00  0.00    +0.000 HD
ATOM     16  H   UNL     1       6.478   3.661   0.711  0.00  0.00    +0.000 HD
ENDBRANCH  10  13
ENDBRANCH   7  10
ENDBRANCH   4   7
ENDBRANCH   1   4
BRANCH   1  17
ATOM     17  C   UNL     1       7.841  -1.187  -2.600  0.00  0.00    +0.000 C 
ATOM     18  H   UNL     1       7.885  -0.168  -3.002  0.00  0.00    +0.000 HD
ATOM     19  H   UNL     1       8.364  -1.855  -3.295  0.00  0.00    +0.000 HD
BRANCH  17  21
ATOM     20  O   UNL     1       6.039  -2.793  -2.552  0.00  0.00    +0.000 OA
ATOM     21  C   UNL     1       6.381  -1.611  -2.569  0.00  0.00    +0.000 C 
BRANCH  21  22
ATOM     22  C   UNL     1       5.368  -0.478  -2.602  0.00  0.00    +0.000 C 
ATOM     23  H   UNL     1       5.003  -0.316  -1.582  0.00  0.00    +0.000 HD
ATOM     24  H   UNL     1       4.527  -0.790  -3.229  0.00  0.00    +0.000 HD
BRANCH  22  25
ATOM     25  C   UNL     1       5.951   0.815  -3.144  0.00  0.00    +0.000 C 
ATOM     26  H   UNL     1       6.904   1.049  -2.661  0.00  0.00    +0.000 HD
ATOM     27  H   UNL     1       5.263   1.647  -2.967  0.00  0.00    +0.000 HD
ATOM     28  H   UNL     1       6.131   0.742  -4.222  0.00  0.00    +0.000 HD
ENDBRANCH  22  25
ENDBRANCH  21  22
ENDBRANCH  17  21
ENDBRANCH   1  17
TORSDOF 8
ENDMDL
MODEL 10
REMARK VINA RESULT:    -4.086      1.998      2.752
REMARK INTER + INTRA:          -6.071
REMARK INTER:                  -5.759
REMARK INTRA:                  -0.312
REMARK UNBOUND:                -0.312
REMARK  Name = 61235
REMARK  8 active torsions:
REMARK  status: ('A' for Active; 'I' for Inactive)
REMARK    1  A    between atoms: C_2  and  C_3
REMARK    2  A    between atoms: C_2  and  C_4
REMARK    3  A    between atoms: C_3  and  C_5
REMARK    4  A    between atoms: C_4  and  C_6
REMARK    5  A    between atoms: C_5  and  C_7
REMARK    6  A    between atoms: C_6  and  C_8
REMARK    7  A    between atoms: C_7  and  C_9
REMARK    8  A    between atoms: C_9  and  C_10
REMARK                            x       y       z     vdW  Elec       q    Type
REMARK                         _______ _______ _______ _____ _____    ______ ____
ROOT
ATOM      1  C   UNL     1       6.961   1.151  -1.169  0.00  0.00    +0.000 C 
ATOM      2  H   UNL     1       6.623   1.950  -0.498  0.00  0.00    +0.000 HD
ATOM      3  H   UNL     1       6.648   0.205  -0.710  0.00  0.00    +0.000 HD
ENDROOT
BRANCH   1   4
ATOM      4  C   UNL     1       8.488   1.182  -1.280  0.00  0.00    +0.000 C 
ATOM      5  H   UNL     1       8.800   2.095  -1.801  0.00  0.00    +0.000 HD
ATOM      6  H   UNL     1       8.828   0.332  -1.884  0.00  0.00    +0.000 HD
BRANCH   4   7
ATOM      7  C   UNL     1       9.145   1.125   0.101  0.00  0.00    +0.000 C 
ATOM      8  H   UNL     1      10.182   1.473   0.031  0.00  0.00    +0.000 HD
ATOM      9  H   UNL     1       8.622   1.806   0.784  0.00  0.00    +0.000 HD
BRANCH   7  10
ATOM     10  C   UNL     1       9.114  -0.292   0.673  0.00  0.00    +0.000 C 
ATOM     11  H   UNL     1       8.099  -0.536   1.009  0.00  0.00    +0.000 HD
ATOM     12  H   UNL     1       9.380  -1.014  -0.108  0.00  0.00    +0.000 HD
BRANCH  10  13
ATOM     13  C   UNL     1      10.074  -0.442   1.842  0.00  0.00    +0.000 C 
ATOM     14  H   UNL     1       9.900   0.348   2.579  0.00  0.00    +0.000 HD
ATOM     15  H   UNL     1       9.936  -1.408   2.341  0.00  0.00    +0.000 HD
ATOM     16  H   UNL     1      11.114  -0.373   1.509  0.00  0.00    +0.000 HD
ENDBRANCH  10  13
ENDBRANCH   7  10
ENDBRANCH   4   7
ENDBRANCH   1   4
BRANCH   1  17
ATOM     17  C   UNL     1       6.276   1.304  -2.526  0.00  0.00    +0.000 C 
ATOM     18  H   UNL     1       5.382   1.931  -2.421  0.00  0.00    +0.000 HD
ATOM     19  H   UNL     1       6.960   1.794  -3.228  0.00  0.00    +0.000 HD
BRANCH  17  21
ATOM     20  O   UNL     1       5.217  -0.865  -2.525  0.00  0.00    +0.000 OA
ATOM     21  C   UNL     1       5.847  -0.015  -3.151  0.00  0.00    +0.000 C 
BRANCH  21  22
ATOM     22  C   UNL     1       6.283  -0.230  -4.591  0.00  0.00    +0.000 C 
ATOM     23  H   UNL     1       6.094   0.693  -5.148  0.00  0.00    +0.000 HD
ATOM     24  H   UNL     1       5.667  -1.029  -5.019  0.00  0.00    +0.000 HD
BRANCH  22  25
ATOM     25  C   UNL     1       7.750  -0.604  -4.711  0.00  0.00    +0.000 C 
ATOM     26  H   UNL     1       7.871  -1.555  -5.239  0.00  0.00    +0.000 HD
ATOM     27  H   UNL     1       8.201  -0.702  -3.720  0.00  0.00    +0.000 HD
ATOM     28  H   UNL     1       8.305   0.160  -5.267  0.00  0.00    +0.000 HD
ENDBRANCH  22  25
ENDBRANCH  21  22
ENDBRANCH  17  21
ENDBRANCH   1  17
TORSDOF 8
ENDMDL
