MODEL 1
REMARK VINA RESULT:    -4.510      0.000      0.000
REMARK INTER + INTRA:          -6.425
REMARK INTER:                  -5.984
REMARK INTRA:                  -0.441
REMARK UNBOUND:                -0.334
REMARK  Name = 246728
REMARK  7 active torsions:
REMARK  status: ('A' for Active; 'I' for Inactive)
REMARK    1  A    between atoms: C_2  and  C_3
REMARK    2  A    between atoms: C_2  and  C_4
REMARK    3  A    between atoms: C_3  and  C_5
REMARK    4  A    between atoms: C_4  and  C_6
REMARK    5  A    between atoms: C_5  and  C_8
REMARK    6  A    between atoms: C_6  and  C_7
REMARK    7  A    between atoms: C_7  and  C_9
REMARK                            x       y       z     vdW  Elec       q    Type
REMARK                         _______ _______ _______ _____ _____    ______ ____
ROOT
ATOM      1  C   UNL     1       5.445  -0.896  -2.578  0.00  0.00    +0.000 C 
ATOM      2  H   UNL     1       4.558  -1.218  -3.137  0.00  0.00    +0.000 HD
ATOM      3  H   UNL     1       5.085  -0.532  -1.606  0.00  0.00    +0.000 HD
ENDROOT
BRANCH   1   4
ATOM      4  C   UNL     1       6.139   0.248  -3.323  0.00  0.00    +0.000 C 
ATOM      5  H   UNL     1       5.522   1.153  -3.265  0.00  0.00    +0.000 HD
ATOM      6  H   UNL     1       7.094   0.475  -2.834  0.00  0.00    +0.000 HD
BRANCH   4   7
ATOM      7  C   UNL     1       6.386  -0.115  -4.788  0.00  0.00    +0.000 C 
ATOM      8  H   UNL     1       6.565  -1.194  -4.879  0.00  0.00    +0.000 HD
ATOM      9  H   UNL     1       7.285   0.394  -5.153  0.00  0.00    +0.000 HD
BRANCH   7  10
ATOM     10  C   UNL     1       5.205   0.272  -5.663  0.00  0.00    +0.000 C 
ATOM     11  H   UNL     1       5.504   1.041  -6.383  0.00  0.00    +0.000 HD
ATOM     12  H   UNL     1       4.832  -0.591  -6.224  0.00  0.00    +0.000 HD
ATOM     13  H   UNL     1       4.383   0.673  -5.061  0.00  0.00    +0.000 HD
ENDBRANCH   7  10
ENDBRANCH   4   7
ENDBRANCH   1   4
BRANCH   1  14
ATOM     14  C   UNL     1       6.368  -2.095  -2.361  0.00  0.00    +0.000 C 
ATOM     15  H   UNL     1       5.849  -2.857  -1.768  0.00  0.00    +0.000 HD
ATOM     16  H   UNL     1       6.631  -2.531  -3.330  0.00  0.00    +0.000 HD
BRANCH  14  18
ATOM     17  O   UNL     1       7.684  -1.201  -0.544  0.00  0.00    +0.000 OA
ATOM     18  C   UNL     1       7.666  -1.752  -1.643  0.00  0.00    +0.000 C 
BRANCH  18  19
ATOM     19  C   UNL     1       8.940  -2.104  -2.394  0.00  0.00    +0.000 C 
ATOM     20  H   UNL     1       9.635  -2.568  -1.687  0.00  0.00    +0.000 HD
ATOM     21  H   UNL     1       8.689  -2.834  -3.171  0.00  0.00    +0.000 HD
BRANCH  19  22
ATOM     22  C   UNL     1       9.597  -0.894  -3.033  0.00  0.00    +0.000 C 
ATOM     23  H   UNL     1       8.847  -0.197  -3.422  0.00  0.00    +0.000 HD
ATOM     24  H   UNL     1      10.243  -1.191  -3.867  0.00  0.00    +0.000 HD
ATOM     25  H   UNL     1      10.210  -0.361  -2.300  0.00  0.00    +0.000 HD
ENDBRANCH  19  22
ENDBRANCH  18  19
ENDBRANCH  14  18
ENDBRANCH   1  14
TORSDOF 7
ENDMDL
MODEL 2
REMARK VINA RESULT:    -4.498      1.956      2.646
REMARK INTER + INTRA:          -6.409
REMARK INTER:                  -6.075
REMARK INTRA:                  -0.335
REMARK UNBOUND:                -0.334
REMARK  Name = 246728
REMARK  7 active torsions:
REMARK  status: ('A' for Active; 'I' for Inactive)
REMARK    1  A    between atoms: C_2  and  C_3
REMARK    2  A    between atoms: C_2  and  C_4
REMARK    3  A    between atoms: C_3  and  C_5
REMARK    4  A    between atoms: C_4  and  C_6
REMARK    5  A    between atoms: C_5  and  C_8
REMARK    6  A    between atoms: C_6  and  C_7
REMARK    7  A    between atoms: C_7  and  C_9
REMARK                            x       y       z     vdW  Elec       q    Type
REMARK                         _______ _______ _______ _____ _____    ______ ____
ROOT
ATOM      1  C   UNL     1       6.943  -1.060  -4.353  0.00  0.00    +0.000 C 
ATOM      2  H   UNL     1       6.629  -2.101  -4.498  0.00  0.00    +0.000 HD
ATOM      3  H   UNL     1       6.877  -0.862  -3.275  0.00  0.00    +0.000 HD
ENDROOT
BRANCH   1   4
ATOM      4  C   UNL     1       5.989  -0.124  -5.100  0.00  0.00    +0.000 C 
ATOM      5  H   UNL     1       6.557   0.490  -5.810  0.00  0.00    +0.000 HD
ATOM      6  H   UNL     1       5.277  -0.719  -5.685  0.00  0.00    +0.000 HD
BRANCH   4   7
ATOM      7  C   UNL     1       5.227   0.780  -4.130  0.00  0.00    +0.000 C 
ATOM      8  H   UNL     1       4.297   0.291  -3.818  0.00  0.00    +0.000 HD
ATOM      9  H   UNL     1       4.950   1.715  -4.630  0.00  0.00    +0.000 HD
BRANCH   7  10
ATOM     10  C   UNL     1       6.061   1.102  -2.900  0.00  0.00    +0.000 C 
ATOM     11  H   UNL     1       5.409   1.363  -2.059  0.00  0.00    +0.000 HD
ATOM     12  H   UNL     1       6.671   0.242  -2.604  0.00  0.00    +0.000 HD
ATOM     13  H   UNL     1       6.728   1.949  -3.087  0.00  0.00    +0.000 HD
ENDBRANCH   7  10
ENDBRANCH   4   7
ENDBRANCH   1   4
BRANCH   1  14
ATOM     14  C   UNL     1       8.393  -0.902  -4.811  0.00  0.00    +0.000 C 
ATOM     15  H   UNL     1       8.574  -1.537  -5.686  0.00  0.00    +0.000 HD
ATOM     16  H   UNL     1       8.572   0.140  -5.098  0.00  0.00    +0.000 HD
BRANCH  14  18
ATOM     17  O   UNL     1      10.612  -0.993  -3.863  0.00  0.00    +0.000 OA
ATOM     18  C   UNL     1       9.419  -1.269  -3.749  0.00  0.00    +0.000 C 
BRANCH  18  19
ATOM     19  C   UNL     1       8.876  -2.034  -2.553  0.00  0.00    +0.000 C 
ATOM     20  H   UNL     1       7.844  -2.325  -2.774  0.00  0.00    +0.000 HD
ATOM     21  H   UNL     1       9.477  -2.939  -2.424  0.00  0.00    +0.000 HD
BRANCH  19  22
ATOM     22  C   UNL     1       8.910  -1.219  -1.272  0.00  0.00    +0.000 C 
ATOM     23  H   UNL     1       9.627  -1.638  -0.558  0.00  0.00    +0.000 HD
ATOM     24  H   UNL     1       7.926  -1.204  -0.789  0.00  0.00    +0.000 HD
ATOM     25  H   UNL     1       9.202  -0.186  -1.484  0.00  0.00    +0.000 HD
ENDBRANCH  19  22
ENDBRANCH  18  19
ENDBRANCH  14  18
ENDBRANCH   1  14
TORSDOF 7
ENDMDL
MODEL 3
REMARK VINA RESULT:    -4.354      9.063     10.211
REMARK INTER + INTRA:          -6.215
REMARK INTER:                  -5.839
REMARK INTRA:                  -0.375
REMARK UNBOUND:                -0.334
REMARK  Name = 246728
REMARK  7 active torsions:
REMARK  status: ('A' for Active; 'I' for Inactive)
REMARK    1  A    between atoms: C_2  and  C_3
REMARK    2  A    between atoms: C_2  and  C_4
REMARK    3  A    between atoms: C_3  and  C_5
REMARK    4  A    between atoms: C_4  and  C_6
REMARK    5  A    between atoms: C_5  and  C_8
REMARK    6  A    between atoms: C_6  and  C_7
REMARK    7  A    between atoms: C_7  and  C_9
REMARK                            x       y       z     vdW  Elec       q    Type
REMARK                         _______ _______ _______ _____ _____    ______ ____
ROOT
ATOM      1  C   UNL     1      11.763   7.423  -2.964  0.00  0.00    +0.000 C 
ATOM      2  H   UNL     1      11.062   6.602  -3.158  0.00  0.00    +0.000 HD
ATOM      3  H   UNL     1      12.772   6.997  -3.044  0.00  0.00    +0.000 HD
ENDROOT
BRANCH   1   4
ATOM      4  C   UNL     1      11.551   7.959  -1.545  0.00  0.00    +0.000 C 
ATOM      5  H   UNL     1      12.497   7.919  -0.991  0.00  0.00    +0.000 HD
ATOM      6  H   UNL     1      11.249   9.013  -1.594  0.00  0.00    +0.000 HD
BRANCH   4   7
ATOM      7  C   UNL     1      10.484   7.154  -0.802  0.00  0.00    +0.000 C 
ATOM      8  H   UNL     1      10.446   7.466   0.249  0.00  0.00    +0.000 HD
ATOM      9  H   UNL     1      10.743   6.089  -0.815  0.00  0.00    +0.000 HD
BRANCH   7  10
ATOM     10  C   UNL     1       9.112   7.340  -1.429  0.00  0.00    +0.000 C 
ATOM     11  H   UNL     1       9.115   6.977  -2.462  0.00  0.00    +0.000 HD
ATOM     12  H   UNL     1       8.348   6.783  -0.876  0.00  0.00    +0.000 HD
ATOM     13  H   UNL     1       8.825   8.397  -1.442  0.00  0.00    +0.000 HD
ENDBRANCH   7  10
ENDBRANCH   4   7
ENDBRANCH   1   4
BRANCH   1  14
ATOM     14  C   UNL     1      11.582   8.505  -4.028  0.00  0.00    +0.000 C 
ATOM     15  H   UNL     1      11.726   9.493  -3.578  0.00  0.00    +0.000 HD
ATOM     16  H   UNL     1      12.333   8.371  -4.814  0.00  0.00    +0.000 HD
BRANCH  14  18
ATOM     17  O   UNL     1       9.538   9.510  -4.830  0.00  0.00    +0.000 OA
ATOM     18  C   UNL     1      10.214   8.491  -4.694  0.00  0.00    +0.000 C 
BRANCH  18  19
ATOM     19  C   UNL     1       9.721   7.127  -5.148  0.00  0.00    +0.000 C 
ATOM     20  H   UNL     1      10.514   6.656  -5.737  0.00  0.00    +0.000 HD
ATOM     21  H   UNL     1       9.535   6.517  -4.258  0.00  0.00    +0.000 HD
BRANCH  19  22
ATOM     22  C   UNL     1       8.452   7.207  -5.978  0.00  0.00    +0.000 C 
ATOM     23  H   UNL     1       7.587   7.453  -5.352  0.00  0.00    +0.000 HD
ATOM     24  H   UNL     1       8.245   6.253  -6.475  0.00  0.00    +0.000 HD
ATOM     25  H   UNL     1       8.547   7.979  -6.747  0.00  0.00    +0.000 HD
ENDBRANCH  19  22
ENDBRANCH  18  19
ENDBRANCH  14  18
ENDBRANCH   1  14
TORSDOF 7
ENDMDL
MODEL 4
REMARK VINA RESULT:    -4.231      2.770      3.875
REMARK INTER + INTRA:          -6.048
REMARK INTER:                  -5.833
REMARK INTRA:                  -0.215
REMARK UNBOUND:                -0.334
REMARK  Name = 246728
REMARK  7 active torsions:
REMARK  status: ('A' for Active; 'I' for Inactive)
REMARK    1  A    between atoms: C_2  and  C_3
REMARK    2  A    between atoms: C_2  and  C_4
REMARK    3  A    between atoms: C_3  and  C_5
REMARK    4  A    between atoms: C_4  and  C_6
REMARK    5  A    between atoms: C_5  and  C_8
REMARK    6  A    between atoms: C_6  and  C_7
REMARK    7  A    between atoms: C_7  and  C_9
REMARK                            x       y       z     vdW  Elec       q    Type
REMARK                         _______ _______ _______ _____ _____    ______ ____
ROOT
ATOM      1  C   UNL     1       5.820   1.305  -2.933  0.00  0.00    +0.000 C 
ATOM      2  H   UNL     1       4.998   1.819  -2.421  0.00  0.00    +0.000 HD
ATOM      3  H   UNL     1       6.104   1.940  -3.783  0.00  0.00    +0.000 HD
ENDROOT
BRANCH   1   4
ATOM      4  C   UNL     1       5.337  -0.052  -3.454  0.00  0.00    +0.000 C 
ATOM      5  H   UNL     1       4.466  -0.380  -2.873  0.00  0.00    +0.000 HD
ATOM      6  H   UNL     1       5.011   0.052  -4.496  0.00  0.00    +0.000 HD
BRANCH   4   7
ATOM      7  C   UNL     1       6.443  -1.105  -3.365  0.00  0.00    +0.000 C 
ATOM      8  H   UNL     1       7.325  -0.678  -2.872  0.00  0.00    +0.000 HD
ATOM      9  H   UNL     1       6.750  -1.410  -4.372  0.00  0.00    +0.000 HD
BRANCH   7  10
ATOM     10  C   UNL     1       5.982  -2.331  -2.593  0.00  0.00    +0.000 C 
ATOM     11  H   UNL     1       5.732  -3.142  -3.285  0.00  0.00    +0.000 HD
ATOM     12  H   UNL     1       6.768  -2.689  -1.920  0.00  0.00    +0.000 HD
ATOM     13  H   UNL     1       5.093  -2.109  -1.996  0.00  0.00    +0.000 HD
ENDBRANCH   7  10
ENDBRANCH   4   7
ENDBRANCH   1   4
BRANCH   1  14
ATOM     14  C   UNL     1       7.006   1.174  -1.978  0.00  0.00    +0.000 C 
ATOM     15  H   UNL     1       7.316   0.124  -1.917  0.00  0.00    +0.000 HD
ATOM     16  H   UNL     1       7.848   1.760  -2.362  0.00  0.00    +0.000 HD
BRANCH  14  18
ATOM     17  O   UNL     1       6.760   0.906   0.409  0.00  0.00    +0.000 OA
ATOM     18  C   UNL     1       6.716   1.657  -0.564  0.00  0.00    +0.000 C 
BRANCH  18  19
ATOM     19  C   UNL     1       6.333   3.122  -0.440  0.00  0.00    +0.000 C 
ATOM     20  H   UNL     1       6.320   3.558  -1.445  0.00  0.00    +0.000 HD
ATOM     21  H   UNL     1       5.323   3.178  -0.021  0.00  0.00    +0.000 HD
BRANCH  19  22
ATOM     22  C   UNL     1       7.288   3.906   0.441  0.00  0.00    +0.000 C 
ATOM     23  H   UNL     1       6.813   4.815   0.826  0.00  0.00    +0.000 HD
ATOM     24  H   UNL     1       8.182   4.207  -0.117  0.00  0.00    +0.000 HD
ATOM     25  H   UNL     1       7.606   3.299   1.294  0.00  0.00    +0.000 HD
ENDBRANCH  19  22
ENDBRANCH  18  19
ENDBRANCH  14  18
ENDBRANCH   1  14
TORSDOF 7
ENDMDL
MODEL 5
REMARK VINA RESULT:    -4.222      1.604      3.861
REMARK INTER + INTRA:          -6.036
REMARK INTER:                  -5.715
REMARK INTRA:                  -0.322
REMARK UNBOUND:                -0.334
REMARK  Name = 246728
REMARK  7 active torsions:
REMARK  status: ('A' for Active; 'I' for Inactive)
REMARK    1  A    between atoms: C_2  and  C_3
REMARK    2  A    between atoms: C_2  and  C_4
REMARK    3  A    between atoms: C_3  and  C_5
REMARK    4  A    between atoms: C_4  and  C_6
REMARK    5  A    between atoms: C_5  and  C_8
REMARK    6  A    between atoms: C_6  and  C_7
REMARK    7  A    between atoms: C_7  and  C_9
REMARK                            x       y       z     vdW  Elec       q    Type
REMARK                         _______ _______ _______ _____ _____    ______ ____
ROOT
ATOM      1  C   UNL     1       8.961  -1.861  -2.059  0.00  0.00    +0.000 C 
ATOM      2  H   UNL     1       9.450  -1.919  -1.079  0.00  0.00    +0.000 HD
ATOM      3  H   UNL     1       8.960  -2.880  -2.467  0.00  0.00    +0.000 HD
ENDROOT
BRANCH   1   4
ATOM      4  C   UNL     1       9.766  -0.945  -2.985  0.00  0.00    +0.000 C 
ATOM      5  H   UNL     1       9.124  -0.134  -3.350  0.00  0.00    +0.000 HD
ATOM      6  H   UNL     1      10.583  -0.481  -2.419  0.00  0.00    +0.000 HD
BRANCH   4   7
ATOM      7  C   UNL     1      10.341  -1.722  -4.171  0.00  0.00    +0.000 C 
ATOM      8  H   UNL     1       9.803  -1.452  -5.088  0.00  0.00    +0.000 HD
ATOM      9  H   UNL     1      10.199  -2.798  -4.016  0.00  0.00    +0.000 HD
BRANCH   7  10
ATOM     10  C   UNL     1      11.822  -1.437  -4.357  0.00  0.00    +0.000 C 
ATOM     11  H   UNL     1      12.016  -0.364  -4.256  0.00  0.00    +0.000 HD
ATOM     12  H   UNL     1      12.420  -1.963  -3.605  0.00  0.00    +0.000 HD
ATOM     13  H   UNL     1      12.162  -1.751  -5.349  0.00  0.00    +0.000 HD
ENDBRANCH   7  10
ENDBRANCH   4   7
ENDBRANCH   1   4
BRANCH   1  14
ATOM     14  C   UNL     1       7.520  -1.385  -1.877  0.00  0.00    +0.000 C 
ATOM     15  H   UNL     1       7.187  -1.599  -0.855  0.00  0.00    +0.000 HD
ATOM     16  H   UNL     1       7.472  -0.302  -2.036  0.00  0.00    +0.000 HD
BRANCH  14  18
ATOM     17  O   UNL     1       5.847  -3.005  -2.515  0.00  0.00    +0.000 OA
ATOM     18  C   UNL     1       6.530  -2.034  -2.834  0.00  0.00    +0.000 C 
BRANCH  18  19
ATOM     19  C   UNL     1       6.469  -1.422  -4.224  0.00  0.00    +0.000 C 
ATOM     20  H   UNL     1       7.415  -1.636  -4.733  0.00  0.00    +0.000 HD
ATOM     21  H   UNL     1       5.656  -1.906  -4.775  0.00  0.00    +0.000 HD
BRANCH  19  22
ATOM     22  C   UNL     1       6.236   0.078  -4.196  0.00  0.00    +0.000 C 
ATOM     23  H   UNL     1       6.918   0.595  -4.880  0.00  0.00    +0.000 HD
ATOM     24  H   UNL     1       6.400   0.483  -3.191  0.00  0.00    +0.000 HD
ATOM     25  H   UNL     1       5.210   0.311  -4.495  0.00  0.00    +0.000 HD
ENDBRANCH  19  22
ENDBRANCH  18  19
ENDBRANCH  14  18
ENDBRANCH   1  14
TORSDOF 7
ENDMDL
MODEL 6
REMARK VINA RESULT:    -4.193      3.216      4.397
REMARK INTER + INTRA:          -5.997
REMARK INTER:                  -5.839
REMARK INTRA:                  -0.158
REMARK UNBOUND:                -0.334
REMARK  Name = 246728
REMARK  7 active torsions:
REMARK  status: ('A' for Active; 'I' for Inactive)
REMARK    1  A    between atoms: C_2  and  C_3
REMARK    2  A    between atoms: C_2  and  C_4
REMARK    3  A    between atoms: C_3  and  C_5
REMARK    4  A    between atoms: C_4  and  C_6
REMARK    5  A    between atoms: C_5  and  C_8
REMARK    6  A    between atoms: C_6  and  C_7
REMARK    7  A    between atoms: C_7  and  C_9
REMARK                            x       y       z     vdW  Elec       q    Type
REMARK                         _______ _______ _______ _____ _____    ______ ____
ROOT
ATOM      1  C   UNL     1       6.327   1.647  -1.940  0.00  0.00    +0.000 C 
ATOM      2  H   UNL     1       6.295   2.602  -2.478  0.00  0.00    +0.000 HD
ATOM      3  H   UNL     1       5.285   1.329  -1.805  0.00  0.00    +0.000 HD
ENDROOT
BRANCH   1   4
ATOM      4  C   UNL     1       6.977   1.849  -0.567  0.00  0.00    +0.000 C 
ATOM      5  H   UNL     1       6.701   1.021   0.096  0.00  0.00    +0.000 HD
ATOM      6  H   UNL     1       8.069   1.829  -0.674  0.00  0.00    +0.000 HD
BRANCH   4   7
ATOM      7  C   UNL     1       6.547   3.177   0.059  0.00  0.00    +0.000 C 
ATOM      8  H   UNL     1       5.911   2.988   0.932  0.00  0.00    +0.000 HD
ATOM      9  H   UNL     1       5.950   3.752  -0.658  0.00  0.00    +0.000 HD
BRANCH   7  10
ATOM     10  C   UNL     1       7.749   4.005   0.484  0.00  0.00    +0.000 C 
ATOM     11  H   UNL     1       7.758   4.961  -0.050  0.00  0.00    +0.000 HD
ATOM     12  H   UNL     1       7.719   4.217   1.558  0.00  0.00    +0.000 HD
ATOM     13  H   UNL     1       8.685   3.483   0.262  0.00  0.00    +0.000 HD
ENDBRANCH   7  10
ENDBRANCH   4   7
ENDBRANCH   1   4
BRANCH   1  14
ATOM     14  C   UNL     1       7.069   0.615  -2.789  0.00  0.00    +0.000 C 
ATOM     15  H   UNL     1       7.826   1.117  -3.402  0.00  0.00    +0.000 HD
ATOM     16  H   UNL     1       7.575  -0.101  -2.132  0.00  0.00    +0.000 HD
BRANCH  14  18
ATOM     17  O   UNL     1       5.228   0.339  -4.328  0.00  0.00    +0.000 OA
ATOM     18  C   UNL     1       6.166  -0.179  -3.722  0.00  0.00    +0.000 C 
BRANCH  18  19
ATOM     19  C   UNL     1       6.478  -1.662  -3.828  0.00  0.00    +0.000 C 
ATOM     20  H   UNL     1       5.932  -2.065  -4.688  0.00  0.00    +0.000 HD
ATOM     21  H   UNL     1       7.551  -1.774  -4.010  0.00  0.00    +0.000 HD
BRANCH  19  22
ATOM     22  C   UNL     1       6.095  -2.433  -2.578  0.00  0.00    +0.000 C 
ATOM     23  H   UNL     1       5.848  -1.753  -1.756  0.00  0.00    +0.000 HD
ATOM     24  H   UNL     1       6.918  -3.076  -2.244  0.00  0.00    +0.000 HD
ATOM     25  H   UNL     1       5.224  -3.067  -2.771  0.00  0.00    +0.000 HD
ENDBRANCH  19  22
ENDBRANCH  18  19
ENDBRANCH  14  18
ENDBRANCH   1  14
TORSDOF 7
ENDMDL
MODEL 7
REMARK VINA RESULT:    -4.191      1.590      2.490
REMARK INTER + INTRA:          -5.995
REMARK INTER:                  -5.405
REMARK INTRA:                  -0.590
REMARK UNBOUND:                -0.334
REMARK  Name = 246728
REMARK  7 active torsions:
REMARK  status: ('A' for Active; 'I' for Inactive)
REMARK    1  A    between atoms: C_2  and  C_3
REMARK    2  A    between atoms: C_2  and  C_4
REMARK    3  A    between atoms: C_3  and  C_5
REMARK    4  A    between atoms: C_4  and  C_6
REMARK    5  A    between atoms: C_5  and  C_8
REMARK    6  A    between atoms: C_6  and  C_7
REMARK    7  A    between atoms: C_7  and  C_9
REMARK                            x       y       z     vdW  Elec       q    Type
REMARK                         _______ _______ _______ _____ _____    ______ ____
ROOT
ATOM      1  C   UNL     1       8.091  -1.018  -4.071  0.00  0.00    +0.000 C 
ATOM      2  H   UNL     1       8.649  -0.582  -4.909  0.00  0.00    +0.000 HD
ATOM      3  H   UNL     1       8.552  -1.993  -3.862  0.00  0.00    +0.000 HD
ENDROOT
BRANCH   1   4
ATOM      4  C   UNL     1       6.628  -1.225  -4.475  0.00  0.00    +0.000 C 
ATOM      5  H   UNL     1       6.548  -2.102  -5.129  0.00  0.00    +0.000 HD
ATOM      6  H   UNL     1       6.029  -1.432  -3.580  0.00  0.00    +0.000 HD
BRANCH   4   7
ATOM      7  C   UNL     1       6.072   0.007  -5.191  0.00  0.00    +0.000 C 
ATOM      8  H   UNL     1       5.736  -0.269  -6.198  0.00  0.00    +0.000 HD
ATOM      9  H   UNL     1       6.861   0.759  -5.307  0.00  0.00    +0.000 HD
BRANCH   7  10
ATOM     10  C   UNL     1       4.910   0.617  -4.425  0.00  0.00    +0.000 C 
ATOM     11  H   UNL     1       4.233  -0.169  -4.076  0.00  0.00    +0.000 HD
ATOM     12  H   UNL     1       5.265   1.173  -3.551  0.00  0.00    +0.000 HD
ATOM     13  H   UNL     1       4.337   1.301  -5.059  0.00  0.00    +0.000 HD
ENDBRANCH   7  10
ENDBRANCH   4   7
ENDBRANCH   1   4
BRANCH   1  14
ATOM     14  C   UNL     1       8.235  -0.116  -2.845  0.00  0.00    +0.000 C 
ATOM     15  H   UNL     1       9.297   0.043  -2.627  0.00  0.00    +0.000 HD
ATOM     16  H   UNL     1       7.777   0.857  -3.054  0.00  0.00    +0.000 HD
BRANCH  14  18
ATOM     17  O   UNL     1       7.851  -1.785  -1.142  0.00  0.00    +0.000 OA
ATOM     18  C   UNL     1       7.579  -0.671  -1.589  0.00  0.00    +0.000 C 
BRANCH  18  19
ATOM     19  C   UNL     1       6.538   0.228  -0.943  0.00  0.00    +0.000 C 
ATOM     20  H   UNL     1       5.548  -0.114  -1.262  0.00  0.00    +0.000 HD
ATOM     21  H   UNL     1       6.616   0.115   0.143  0.00  0.00    +0.000 HD
BRANCH  19  22
ATOM     22  C   UNL     1       6.714   1.689  -1.314  0.00  0.00    +0.000 C 
ATOM     23  H   UNL     1       6.243   1.911  -2.278  0.00  0.00    +0.000 HD
ATOM     24  H   UNL     1       7.775   1.951  -1.392  0.00  0.00    +0.000 HD
ATOM     25  H   UNL     1       6.259   2.333  -0.555  0.00  0.00    +0.000 HD
ENDBRANCH  19  22
ENDBRANCH  18  19
ENDBRANCH  14  18
ENDBRANCH   1  14
TORSDOF 7
ENDMDL
MODEL 8
REMARK VINA RESULT:    -4.178      1.575      2.221
REMARK INTER + INTRA:          -5.977
REMARK INTER:                  -5.776
REMARK INTRA:                  -0.201
REMARK UNBOUND:                -0.334
REMARK  Name = 246728
REMARK  7 active torsions:
REMARK  status: ('A' for Active; 'I' for Inactive)
REMARK    1  A    between atoms: C_2  and  C_3
REMARK    2  A    between atoms: C_2  and  C_4
REMARK    3  A    between atoms: C_3  and  C_5
REMARK    4  A    between atoms: C_4  and  C_6
REMARK    5  A    between atoms: C_5  and  C_8
REMARK    6  A    between atoms: C_6  and  C_7
REMARK    7  A    between atoms: C_7  and  C_9
REMARK                            x       y       z     vdW  Elec       q    Type
REMARK                         _______ _______ _______ _____ _____    ______ ____
ROOT
ATOM      1  C   UNL     1       7.443  -0.336  -4.234  0.00  0.00    +0.000 C 
ATOM      2  H   UNL     1       7.441   0.462  -4.987  0.00  0.00    +0.000 HD
ATOM      3  H   UNL     1       7.366  -1.283  -4.783  0.00  0.00    +0.000 HD
ENDROOT
BRANCH   1   4
ATOM      4  C   UNL     1       6.227  -0.182  -3.315  0.00  0.00    +0.000 C 
ATOM      5  H   UNL     1       5.820  -1.172  -3.074  0.00  0.00    +0.000 HD
ATOM      6  H   UNL     1       6.541   0.278  -2.369  0.00  0.00    +0.000 HD
BRANCH   4   7
ATOM      7  C   UNL     1       5.144   0.678  -3.968  0.00  0.00    +0.000 C 
ATOM      8  H   UNL     1       5.349   1.739  -3.782  0.00  0.00    +0.000 HD
ATOM      9  H   UNL     1       4.169   0.453  -3.521  0.00  0.00    +0.000 HD
BRANCH   7  10
ATOM     10  C   UNL     1       5.072   0.436  -5.467  0.00  0.00    +0.000 C 
ATOM     11  H   UNL     1       6.067   0.205  -5.861  0.00  0.00    +0.000 HD
ATOM     12  H   UNL     1       4.411  -0.406  -5.698  0.00  0.00    +0.000 HD
ATOM     13  H   UNL     1       4.698   1.321  -5.991  0.00  0.00    +0.000 HD
ENDBRANCH   7  10
ENDBRANCH   4   7
ENDBRANCH   1   4
BRANCH   1  14
ATOM     14  C   UNL     1       8.763  -0.300  -3.465  0.00  0.00    +0.000 C 
ATOM     15  H   UNL     1       9.482   0.335  -3.995  0.00  0.00    +0.000 HD
ATOM     16  H   UNL     1       8.593   0.126  -2.470  0.00  0.00    +0.000 HD
BRANCH  14  18
ATOM     17  O   UNL     1       9.072  -2.430  -2.368  0.00  0.00    +0.000 OA
ATOM     18  C   UNL     1       9.404  -1.668  -3.275  0.00  0.00    +0.000 C 
BRANCH  18  19
ATOM     19  C   UNL     1      10.507  -2.015  -4.261  0.00  0.00    +0.000 C 
ATOM     20  H   UNL     1      11.007  -2.922  -3.908  0.00  0.00    +0.000 HD
ATOM     21  H   UNL     1      10.045  -2.224  -5.232  0.00  0.00    +0.000 HD
BRANCH  19  22
ATOM     22  C   UNL     1      11.526  -0.901  -4.418  0.00  0.00    +0.000 C 
ATOM     23  H   UNL     1      11.268  -0.246  -5.257  0.00  0.00    +0.000 HD
ATOM     24  H   UNL     1      12.527  -1.306  -4.605  0.00  0.00    +0.000 HD
ATOM     25  H   UNL     1      11.569  -0.292  -3.509  0.00  0.00    +0.000 HD
ENDBRANCH  19  22
ENDBRANCH  18  19
ENDBRANCH  14  18
ENDBRANCH   1  14
TORSDOF 7
ENDMDL
MODEL 9
REMARK VINA RESULT:    -4.039      2.390      2.668
REMARK INTER + INTRA:          -5.790
REMARK INTER:                  -5.456
REMARK INTRA:                  -0.334
REMARK UNBOUND:                -0.334
REMARK  Name = 246728
REMARK  7 active torsions:
REMARK  status: ('A' for Active; 'I' for Inactive)
REMARK    1  A    between atoms: C_2  and  C_3
REMARK    2  A    between atoms: C_2  and  C_4
REMARK    3  A    between atoms: C_3  and  C_5
REMARK    4  A    between atoms: C_4  and  C_6
REMARK    5  A    between atoms: C_5  and  C_8
REMARK    6  A    between atoms: C_6  and  C_7
REMARK    7  A    between atoms: C_7  and  C_9
REMARK                            x       y       z     vdW  Elec       q    Type
REMARK                         _______ _______ _______ _____ _____    ______ ____
ROOT
ATOM      1  C   UNL     1       6.516  -0.780  -2.042  0.00  0.00    +0.000 C 
ATOM      2  H   UNL     1       6.560  -1.657  -2.700  0.00  0.00    +0.000 HD
ATOM      3  H   UNL     1       5.493  -0.737  -1.648  0.00  0.00    +0.000 HD
ENDROOT
BRANCH   1   4
ATOM      4  C   UNL     1       6.802   0.488  -2.852  0.00  0.00    +0.000 C 
ATOM      5  H   UNL     1       7.342   1.210  -2.227  0.00  0.00    +0.000 HD
ATOM      6  H   UNL     1       7.455   0.241  -3.699  0.00  0.00    +0.000 HD
BRANCH   4   7
ATOM      7  C   UNL     1       5.508   1.119  -3.369  0.00  0.00    +0.000 C 
ATOM      8  H   UNL     1       5.639   2.202  -3.478  0.00  0.00    +0.000 HD
ATOM      9  H   UNL     1       4.700   0.961  -2.645  0.00  0.00    +0.000 HD
BRANCH   7  10
ATOM     10  C   UNL     1       5.098   0.526  -4.708  0.00  0.00    +0.000 C 
ATOM     11  H   UNL     1       5.398  -0.525  -4.764  0.00  0.00    +0.000 HD
ATOM     12  H   UNL     1       4.013   0.578  -4.844  0.00  0.00    +0.000 HD
ATOM     13  H   UNL     1       5.574   1.060  -5.536  0.00  0.00    +0.000 HD
ENDBRANCH   7  10
ENDBRANCH   4   7
ENDBRANCH   1   4
BRANCH   1  14
ATOM     14  C   UNL     1       7.499  -0.967  -0.887  0.00  0.00    +0.000 C 
ATOM     15  H   UNL     1       7.339  -1.946  -0.421  0.00  0.00    +0.000 HD
ATOM     16  H   UNL     1       8.524  -0.932  -1.272  0.00  0.00    +0.000 HD
BRANCH  14  18
ATOM     17  O   UNL     1       6.341   0.269   0.835  0.00  0.00    +0.000 OA
ATOM     18  C   UNL     1       7.381   0.090   0.201  0.00  0.00    +0.000 C 
BRANCH  18  19
ATOM     19  C   UNL     1       8.623   0.936   0.429  0.00  0.00    +0.000 C 
ATOM     20  H   UNL     1       8.901   0.858   1.485  0.00  0.00    +0.000 HD
ATOM     21  H   UNL     1       9.434   0.523  -0.179  0.00  0.00    +0.000 HD
BRANCH  19  22
ATOM     22  C   UNL     1       8.414   2.395   0.066  0.00  0.00    +0.000 C 
ATOM     23  H   UNL     1       7.402   2.564  -0.318  0.00  0.00    +0.000 HD
ATOM     24  H   UNL     1       9.122   2.714  -0.707  0.00  0.00    +0.000 HD
ATOM     25  H   UNL     1       8.557   3.031   0.944  0.00  0.00    +0.000 HD
ENDBRANCH  19  22
ENDBRANCH  18  19
ENDBRANCH  14  18
ENDBRANCH   1  14
TORSDOF 7
ENDMDL
MODEL 10
REMARK VINA RESULT:    -4.017      2.382      3.214
REMARK INTER + INTRA:          -5.760
REMARK INTER:                  -5.387
REMARK INTRA:                  -0.373
REMARK UNBOUND:                -0.334
REMARK  Name = 246728
REMARK  7 active torsions:
REMARK  status: ('A' for Active; 'I' for Inactive)
REMARK    1  A    between atoms: C_2  and  C_3
REMARK    2  A    between atoms: C_2  and  C_4
REMARK    3  A    between atoms: C_3  and  C_5
REMARK    4  A    between atoms: C_4  and  C_6
REMARK    5  A    between atoms: C_5  and  C_8
REMARK    6  A    between atoms: C_6  and  C_7
REMARK    7  A    between atoms: C_7  and  C_9
REMARK                            x       y       z     vdW  Elec       q    Type
REMARK                         _______ _______ _______ _____ _____    ______ ____
ROOT
ATOM      1  C   UNL     1       5.523  -0.894  -2.284  0.00  0.00    +0.000 C 
ATOM      2  H   UNL     1       4.845  -0.216  -2.815  0.00  0.00    +0.000 HD
ATOM      3  H   UNL     1       4.889  -1.590  -1.719  0.00  0.00    +0.000 HD
ENDROOT
BRANCH   1   4
ATOM      4  C   UNL     1       6.394  -0.097  -1.309  0.00  0.00    +0.000 C 
ATOM      5  H   UNL     1       5.922  -0.085  -0.319  0.00  0.00    +0.000 HD
ATOM      6  H   UNL     1       7.367  -0.593  -1.198  0.00  0.00    +0.000 HD
BRANCH   4   7
ATOM      7  C   UNL     1       6.603   1.337  -1.798  0.00  0.00    +0.000 C 
ATOM      8  H   UNL     1       5.760   1.641  -2.430  0.00  0.00    +0.000 HD
ATOM      9  H   UNL     1       7.507   1.393  -2.416  0.00  0.00    +0.000 HD
BRANCH   7  10
ATOM     10  C   UNL     1       6.734   2.308  -0.636  0.00  0.00    +0.000 C 
ATOM     11  H   UNL     1       7.649   2.101  -0.071  0.00  0.00    +0.000 HD
ATOM     12  H   UNL     1       6.779   3.342  -0.991  0.00  0.00    +0.000 HD
ATOM     13  H   UNL     1       5.885   2.217   0.050  0.00  0.00    +0.000 HD
ENDBRANCH   7  10
ENDBRANCH   4   7
ENDBRANCH   1   4
BRANCH   1  14
ATOM     14  C   UNL     1       6.354  -1.676  -3.302  0.00  0.00    +0.000 C 
ATOM     15  H   UNL     1       7.279  -2.028  -2.830  0.00  0.00    +0.000 HD
ATOM     16  H   UNL     1       5.786  -2.549  -3.641  0.00  0.00    +0.000 HD
BRANCH  14  18
ATOM     17  O   UNL     1       5.905  -0.277  -5.218  0.00  0.00    +0.000 OA
ATOM     18  C   UNL     1       6.738  -0.869  -4.534  0.00  0.00    +0.000 C 
BRANCH  18  19
ATOM     19  C   UNL     1       8.217  -0.874  -4.884  0.00  0.00    +0.000 C 
ATOM     20  H   UNL     1       8.405  -1.716  -5.558  0.00  0.00    +0.000 HD
ATOM     21  H   UNL     1       8.447   0.057  -5.412  0.00  0.00    +0.000 HD
BRANCH  19  22
ATOM     22  C   UNL     1       9.109  -0.994  -3.661  0.00  0.00    +0.000 C 
ATOM     23  H   UNL     1       9.956  -0.302  -3.722  0.00  0.00    +0.000 HD
ATOM     24  H   UNL     1       9.512  -2.009  -3.565  0.00  0.00    +0.000 HD
ATOM     25  H   UNL     1       8.544  -0.764  -2.753  0.00  0.00    +0.000 HD
ENDBRANCH  19  22
ENDBRANCH  18  19
ENDBRANCH  14  18
ENDBRANCH   1  14
TORSDOF 7
ENDMDL
