MODEL 1
REMARK VINA RESULT:    -3.297      0.000      0.000
REMARK INTER + INTRA:          -3.814
REMARK INTER:                  -3.782
REMARK INTRA:                  -0.032
REMARK UNBOUND:                -0.035
REMARK  Name = 261
REMARK  3 active torsions:
REMARK  status: ('A' for Active; 'I' for Inactive)
REMARK    1  A    between atoms: C_2  and  C_3
REMARK    2  A    between atoms: C_2  and  C_4
REMARK    3  A    between atoms: C_3  and  C_5
REMARK                            x       y       z     vdW  Elec       q    Type
REMARK                         _______ _______ _______ _____ _____    ______ ____
ROOT
ATOM      1  C   UNL     1       5.876  -0.149  -4.937  0.00  0.00    +0.000 C 
ATOM      2  H   UNL     1       6.536   0.496  -5.529  0.00  0.00    +0.000 HD
ATOM      3  H   UNL     1       5.124  -0.550  -5.627  0.00  0.00    +0.000 HD
ENDROOT
BRANCH   1   4
ATOM      4  C   UNL     1       5.183   0.683  -3.870  0.00  0.00    +0.000 C 
ATOM      5  H   UNL     1       5.914   1.163  -3.212  0.00  0.00    +0.000 HD
ATOM      6  H   UNL     1       4.578   1.468  -4.335  0.00  0.00    +0.000 HD
ATOM      7  H   UNL     1       4.522   0.063  -3.257  0.00  0.00    +0.000 HD
ENDBRANCH   1   4
BRANCH   1   8
ATOM      8  C   UNL     1       6.680  -1.289  -4.322  0.00  0.00    +0.000 C 
ATOM      9  H   UNL     1       6.608  -2.188  -4.942  0.00  0.00    +0.000 HD
ATOM     10  H   UNL     1       7.737  -1.011  -4.244  0.00  0.00    +0.000 HD
BRANCH   8  12
ATOM     11  O   UNL     1       5.908  -2.784  -2.572  0.00  0.00    +0.000 OA
ATOM     12  C   UNL     1       6.205  -1.651  -2.936  0.00  0.00    +0.000 C 
ATOM     13  H   UNL     1       6.143  -0.805  -2.230  0.00  0.00    +0.000 HD
ENDBRANCH   8  12
ENDBRANCH   1   8
TORSDOF 3
ENDMDL
MODEL 2
REMARK VINA RESULT:    -3.062      2.246      3.165
REMARK INTER + INTRA:          -3.544
REMARK INTER:                  -3.520
REMARK INTRA:                  -0.025
REMARK UNBOUND:                -0.035
REMARK  Name = 261
REMARK  3 active torsions:
REMARK  status: ('A' for Active; 'I' for Inactive)
REMARK    1  A    between atoms: C_2  and  C_3
REMARK    2  A    between atoms: C_2  and  C_4
REMARK    3  A    between atoms: C_3  and  C_5
REMARK                            x       y       z     vdW  Elec       q    Type
REMARK                         _______ _______ _______ _____ _____    ______ ____
ROOT
ATOM      1  C   UNL     1       5.443  -1.172  -2.301  0.00  0.00    +0.000 C 
ATOM      2  H   UNL     1       5.250  -1.121  -1.223  0.00  0.00    +0.000 HD
ATOM      3  H   UNL     1       4.466  -1.235  -2.795  0.00  0.00    +0.000 HD
ENDROOT
BRANCH   1   4
ATOM      4  C   UNL     1       6.242  -2.427  -2.611  0.00  0.00    +0.000 C 
ATOM      5  H   UNL     1       6.603  -2.417  -3.644  0.00  0.00    +0.000 HD
ATOM      6  H   UNL     1       7.111  -2.496  -1.948  0.00  0.00    +0.000 HD
ATOM      7  H   UNL     1       5.633  -3.325  -2.467  0.00  0.00    +0.000 HD
ENDBRANCH   1   4
BRANCH   1   8
ATOM      8  C   UNL     1       6.177   0.085  -2.757  0.00  0.00    +0.000 C 
ATOM      9  H   UNL     1       6.460   0.699  -1.896  0.00  0.00    +0.000 HD
ATOM     10  H   UNL     1       7.091  -0.184  -3.300  0.00  0.00    +0.000 HD
BRANCH   8  12
ATOM     11  O   UNL     1       4.821   0.553  -4.715  0.00  0.00    +0.000 OA
ATOM     12  C   UNL     1       5.343   0.943  -3.676  0.00  0.00    +0.000 C 
ATOM     13  H   UNL     1       5.216   1.989  -3.347  0.00  0.00    +0.000 HD
ENDBRANCH   8  12
ENDBRANCH   1   8
TORSDOF 3
ENDMDL
MODEL 3
REMARK VINA RESULT:    -2.999      9.580     10.082
REMARK INTER + INTRA:          -3.472
REMARK INTER:                  -3.469
REMARK INTRA:                  -0.003
REMARK UNBOUND:                -0.035
REMARK  Name = 261
REMARK  3 active torsions:
REMARK  status: ('A' for Active; 'I' for Inactive)
REMARK    1  A    between atoms: C_2  and  C_3
REMARK    2  A    between atoms: C_2  and  C_4
REMARK    3  A    between atoms: C_3  and  C_5
REMARK                            x       y       z     vdW  Elec       q    Type
REMARK                         _______ _______ _______ _____ _____    ______ ____
ROOT
ATOM      1  C   UNL     1       9.650   8.062  -5.220  0.00  0.00    +0.000 C 
ATOM      2  H   UNL     1       9.099   8.758  -4.578  0.00  0.00    +0.000 HD
ATOM      3  H   UNL     1      10.200   8.671  -5.948  0.00  0.00    +0.000 HD
ENDROOT
BRANCH   1   4
ATOM      4  C   UNL     1       8.666   7.168  -5.956  0.00  0.00    +0.000 C 
ATOM      5  H   UNL     1       7.662   7.605  -5.954  0.00  0.00    +0.000 HD
ATOM      6  H   UNL     1       8.977   7.039  -6.998  0.00  0.00    +0.000 HD
ATOM      7  H   UNL     1       8.612   6.178  -5.492  0.00  0.00    +0.000 HD
ENDBRANCH   1   4
BRANCH   1   8
ATOM      8  C   UNL     1      10.627   7.244  -4.381  0.00  0.00    +0.000 C 
ATOM      9  H   UNL     1      10.104   6.743  -3.561  0.00  0.00    +0.000 HD
ATOM     10  H   UNL     1      11.109   6.477  -4.998  0.00  0.00    +0.000 HD
BRANCH   8  12
ATOM     11  O   UNL     1      12.433   7.748  -2.839  0.00  0.00    +0.000 OA
ATOM     12  C   UNL     1      11.722   8.090  -3.777  0.00  0.00    +0.000 C 
ATOM     13  H   UNL     1      11.859   9.078  -4.250  0.00  0.00    +0.000 HD
ENDBRANCH   8  12
ENDBRANCH   1   8
TORSDOF 3
ENDMDL
MODEL 4
REMARK VINA RESULT:    -2.987      2.137      2.862
REMARK INTER + INTRA:          -3.458
REMARK INTER:                  -3.431
REMARK INTRA:                  -0.027
REMARK UNBOUND:                -0.035
REMARK  Name = 261
REMARK  3 active torsions:
REMARK  status: ('A' for Active; 'I' for Inactive)
REMARK    1  A    between atoms: C_2  and  C_3
REMARK    2  A    between atoms: C_2  and  C_4
REMARK    3  A    between atoms: C_3  and  C_5
REMARK                            x       y       z     vdW  Elec       q    Type
REMARK                         _______ _______ _______ _____ _____    ______ ____
ROOT
ATOM      1  C   UNL     1       6.042  -1.144  -3.089  0.00  0.00    +0.000 C 
ATOM      2  H   UNL     1       6.694  -0.504  -2.483  0.00  0.00    +0.000 HD
ATOM      3  H   UNL     1       5.030  -0.728  -3.011  0.00  0.00    +0.000 HD
ENDROOT
BRANCH   1   4
ATOM      4  C   UNL     1       6.049  -2.553  -2.521  0.00  0.00    +0.000 C 
ATOM      5  H   UNL     1       6.924  -3.112  -2.870  0.00  0.00    +0.000 HD
ATOM      6  H   UNL     1       6.082  -2.521  -1.427  0.00  0.00    +0.000 HD
ATOM      7  H   UNL     1       5.149  -3.101  -2.818  0.00  0.00    +0.000 HD
ENDBRANCH   1   4
BRANCH   1   8
ATOM      8  C   UNL     1       6.502  -1.125  -4.543  0.00  0.00    +0.000 C 
ATOM      9  H   UNL     1       6.496  -2.136  -4.962  0.00  0.00    +0.000 HD
ATOM     10  H   UNL     1       5.833  -0.501  -5.147  0.00  0.00    +0.000 HD
BRANCH   8  12
ATOM     11  O   UNL     1       8.915  -1.253  -4.773  0.00  0.00    +0.000 OA
ATOM     12  C   UNL     1       7.898  -0.572  -4.702  0.00  0.00    +0.000 C 
ATOM     13  H   UNL     1       7.957   0.528  -4.761  0.00  0.00    +0.000 HD
ENDBRANCH   8  12
ENDBRANCH   1   8
TORSDOF 3
ENDMDL
MODEL 5
REMARK VINA RESULT:    -2.938      2.711      2.965
REMARK INTER + INTRA:          -3.403
REMARK INTER:                  -3.398
REMARK INTRA:                  -0.005
REMARK UNBOUND:                -0.035
REMARK  Name = 261
REMARK  3 active torsions:
REMARK  status: ('A' for Active; 'I' for Inactive)
REMARK    1  A    between atoms: C_2  and  C_3
REMARK    2  A    between atoms: C_2  and  C_4
REMARK    3  A    between atoms: C_3  and  C_5
REMARK                            x       y       z     vdW  Elec       q    Type
REMARK                         _______ _______ _______ _____ _____    ______ ____
ROOT
ATOM      1  C   UNL     1       5.313   0.894  -3.742  0.00  0.00    +0.000 C 
ATOM      2  H   UNL     1       4.519   0.493  -3.102  0.00  0.00    +0.000 HD
ATOM      3  H   UNL     1       5.206   1.985  -3.733  0.00  0.00    +0.000 HD
ENDROOT
BRANCH   1   4
ATOM      4  C   UNL     1       5.123   0.384  -5.161  0.00  0.00    +0.000 C 
ATOM      5  H   UNL     1       6.085   0.264  -5.667  0.00  0.00    +0.000 HD
ATOM      6  H   UNL     1       4.621  -0.589  -5.150  0.00  0.00    +0.000 HD
ATOM      7  H   UNL     1       4.509   1.075  -5.748  0.00  0.00    +0.000 HD
ENDBRANCH   1   4
BRANCH   1   8
ATOM      8  C   UNL     1       6.677   0.500  -3.186  0.00  0.00    +0.000 C 
ATOM      9  H   UNL     1       6.757  -0.588  -3.097  0.00  0.00    +0.000 HD
ATOM     10  H   UNL     1       7.476   0.848  -3.851  0.00  0.00    +0.000 HD
BRANCH   8  12
ATOM     11  O   UNL     1       6.413   2.108  -1.387  0.00  0.00    +0.000 OA
ATOM     12  C   UNL     1       6.939   1.090  -1.821  0.00  0.00    +0.000 C 
ATOM     13  H   UNL     1       7.659   0.526  -1.202  0.00  0.00    +0.000 HD
ENDBRANCH   8  12
ENDBRANCH   1   8
TORSDOF 3
ENDMDL
MODEL 6
REMARK VINA RESULT:    -2.929      9.306      9.626
REMARK INTER + INTRA:          -3.393
REMARK INTER:                  -3.390
REMARK INTRA:                  -0.002
REMARK UNBOUND:                -0.035
REMARK  Name = 261
REMARK  3 active torsions:
REMARK  status: ('A' for Active; 'I' for Inactive)
REMARK    1  A    between atoms: C_2  and  C_3
REMARK    2  A    between atoms: C_2  and  C_4
REMARK    3  A    between atoms: C_3  and  C_5
REMARK                            x       y       z     vdW  Elec       q    Type
REMARK                         _______ _______ _______ _____ _____    ______ ____
ROOT
ATOM      1  C   UNL     1       9.895   7.131  -4.923  0.00  0.00    +0.000 C 
ATOM      2  H   UNL     1      10.824   7.237  -5.495  0.00  0.00    +0.000 HD
ATOM      3  H   UNL     1       9.912   6.131  -4.474  0.00  0.00    +0.000 HD
ENDROOT
BRANCH   1   4
ATOM      4  C   UNL     1       8.708   7.237  -5.865  0.00  0.00    +0.000 C 
ATOM      5  H   UNL     1       9.027   7.545  -6.866  0.00  0.00    +0.000 HD
ATOM      6  H   UNL     1       8.206   6.268  -5.953  0.00  0.00    +0.000 HD
ATOM      7  H   UNL     1       7.978   7.965  -5.497  0.00  0.00    +0.000 HD
ENDBRANCH   1   4
BRANCH   1   8
ATOM      8  C   UNL     1       9.836   8.192  -3.829  0.00  0.00    +0.000 C 
ATOM      9  H   UNL     1      10.765   8.770  -3.803  0.00  0.00    +0.000 HD
ATOM     10  H   UNL     1       9.007   8.885  -4.014  0.00  0.00    +0.000 HD
BRANCH   8  12
ATOM     11  O   UNL     1       9.807   8.198  -1.402  0.00  0.00    +0.000 OA
ATOM     12  C   UNL     1       9.628   7.599  -2.456  0.00  0.00    +0.000 C 
ATOM     13  H   UNL     1       9.285   6.550  -2.451  0.00  0.00    +0.000 HD
ENDBRANCH   8  12
ENDBRANCH   1   8
TORSDOF 3
ENDMDL
MODEL 7
REMARK VINA RESULT:    -2.807      2.163      2.333
REMARK INTER + INTRA:          -3.253
REMARK INTER:                  -3.218
REMARK INTRA:                  -0.035
REMARK UNBOUND:                -0.035
REMARK  Name = 261
REMARK  3 active torsions:
REMARK  status: ('A' for Active; 'I' for Inactive)
REMARK    1  A    between atoms: C_2  and  C_3
REMARK    2  A    between atoms: C_2  and  C_4
REMARK    3  A    between atoms: C_3  and  C_5
REMARK                            x       y       z     vdW  Elec       q    Type
REMARK                         _______ _______ _______ _____ _____    ______ ____
ROOT
ATOM      1  C   UNL     1       6.375  -0.948  -4.603  0.00  0.00    +0.000 C 
ATOM      2  H   UNL     1       6.201  -1.828  -5.232  0.00  0.00    +0.000 HD
ATOM      3  H   UNL     1       6.064  -1.220  -3.587  0.00  0.00    +0.000 HD
ENDROOT
BRANCH   1   4
ATOM      4  C   UNL     1       5.516   0.203  -5.098  0.00  0.00    +0.000 C 
ATOM      5  H   UNL     1       4.979   0.677  -4.270  0.00  0.00    +0.000 HD
ATOM      6  H   UNL     1       6.140   0.964  -5.577  0.00  0.00    +0.000 HD
ATOM      7  H   UNL     1       4.780  -0.143  -5.832  0.00  0.00    +0.000 HD
ENDBRANCH   1   4
BRANCH   1   8
ATOM      8  C   UNL     1       7.856  -0.585  -4.615  0.00  0.00    +0.000 C 
ATOM      9  H   UNL     1       8.441  -1.372  -5.103  0.00  0.00    +0.000 HD
ATOM     10  H   UNL     1       8.015   0.350  -5.166  0.00  0.00    +0.000 HD
BRANCH   8  12
ATOM     11  O   UNL     1       8.115   0.526  -2.473  0.00  0.00    +0.000 OA
ATOM     12  C   UNL     1       8.418  -0.391  -3.228  0.00  0.00    +0.000 C 
ATOM     13  H   UNL     1       9.145  -1.158  -2.910  0.00  0.00    +0.000 HD
ENDBRANCH   8  12
ENDBRANCH   1   8
TORSDOF 3
ENDMDL
MODEL 8
REMARK VINA RESULT:    -2.780     11.011     11.311
REMARK INTER + INTRA:          -3.222
REMARK INTER:                  -3.187
REMARK INTRA:                  -0.035
REMARK UNBOUND:                -0.035
REMARK  Name = 261
REMARK  3 active torsions:
REMARK  status: ('A' for Active; 'I' for Inactive)
REMARK    1  A    between atoms: C_2  and  C_3
REMARK    2  A    between atoms: C_2  and  C_4
REMARK    3  A    between atoms: C_3  and  C_5
REMARK                            x       y       z     vdW  Elec       q    Type
REMARK                         _______ _______ _______ _____ _____    ______ ____
ROOT
ATOM      1  C   UNL     1      14.064   3.717  -4.959  0.00  0.00    +0.000 C 
ATOM      2  H   UNL     1      13.155   4.231  -4.625  0.00  0.00    +0.000 HD
ATOM      3  H   UNL     1      13.738   2.839  -5.529  0.00  0.00    +0.000 HD
ENDROOT
BRANCH   1   4
ATOM      4  C   UNL     1      14.859   3.261  -3.747  0.00  0.00    +0.000 C 
ATOM      5  H   UNL     1      14.230   3.239  -2.851  0.00  0.00    +0.000 HD
ATOM      6  H   UNL     1      15.253   2.252  -3.909  0.00  0.00    +0.000 HD
ATOM      7  H   UNL     1      15.705   3.929  -3.558  0.00  0.00    +0.000 HD
ENDBRANCH   1   4
BRANCH   1   8
ATOM      8  C   UNL     1      14.886   4.642  -5.850  0.00  0.00    +0.000 C 
ATOM      9  H   UNL     1      14.737   4.391  -6.906  0.00  0.00    +0.000 HD
ATOM     10  H   UNL     1      14.582   5.684  -5.701  0.00  0.00    +0.000 HD
BRANCH   8  12
ATOM     11  O   UNL     1      17.135   5.513  -5.578  0.00  0.00    +0.000 OA
ATOM     12  C   UNL     1      16.366   4.559  -5.565  0.00  0.00    +0.000 C 
ATOM     13  H   UNL     1      16.736   3.547  -5.326  0.00  0.00    +0.000 HD
ENDBRANCH   8  12
ENDBRANCH   1   8
TORSDOF 3
ENDMDL
MODEL 9
REMARK VINA RESULT:    -2.772     13.779     14.215
REMARK INTER + INTRA:          -3.212
REMARK INTER:                  -3.209
REMARK INTRA:                  -0.002
REMARK UNBOUND:                -0.035
REMARK  Name = 261
REMARK  3 active torsions:
REMARK  status: ('A' for Active; 'I' for Inactive)
REMARK    1  A    between atoms: C_2  and  C_3
REMARK    2  A    between atoms: C_2  and  C_4
REMARK    3  A    between atoms: C_3  and  C_5
REMARK                            x       y       z     vdW  Elec       q    Type
REMARK                         _______ _______ _______ _____ _____    ______ ____
ROOT
ATOM      1  C   UNL     1      -1.046 -12.814  -6.973  0.00  0.00    +0.000 C 
ATOM      2  H   UNL     1      -2.102 -12.523  -6.936  0.00  0.00    +0.000 HD
ATOM      3  H   UNL     1      -1.023 -13.903  -7.104  0.00  0.00    +0.000 HD
ENDROOT
BRANCH   1   4
ATOM      4  C   UNL     1      -0.378 -12.455  -5.656  0.00  0.00    +0.000 C 
ATOM      5  H   UNL     1      -0.963 -11.709  -5.110  0.00  0.00    +0.000 HD
ATOM      6  H   UNL     1      -0.285 -13.343  -5.023  0.00  0.00    +0.000 HD
ATOM      7  H   UNL     1       0.626 -12.050  -5.823  0.00  0.00    +0.000 HD
ENDBRANCH   1   4
BRANCH   1   8
ATOM      8  C   UNL     1      -0.360 -12.132  -8.152  0.00  0.00    +0.000 C 
ATOM      9  H   UNL     1      -0.678 -11.088  -8.229  0.00  0.00    +0.000 HD
ATOM     10  H   UNL     1       0.728 -12.150  -8.022  0.00  0.00    +0.000 HD
BRANCH   8  12
ATOM     11  O   UNL     1      -0.060 -12.602 -10.514  0.00  0.00    +0.000 OA
ATOM     12  C   UNL     1      -0.668 -12.803  -9.469  0.00  0.00    +0.000 C 
ATOM     13  H   UNL     1      -1.505 -13.522  -9.439  0.00  0.00    +0.000 HD
ENDBRANCH   8  12
ENDBRANCH   1   8
TORSDOF 3
ENDMDL
MODEL 10
REMARK VINA RESULT:    -2.731     10.187     10.360
REMARK INTER + INTRA:          -3.165
REMARK INTER:                  -3.129
REMARK INTRA:                  -0.036
REMARK UNBOUND:                -0.035
REMARK  Name = 261
REMARK  3 active torsions:
REMARK  status: ('A' for Active; 'I' for Inactive)
REMARK    1  A    between atoms: C_2  and  C_3
REMARK    2  A    between atoms: C_2  and  C_4
REMARK    3  A    between atoms: C_3  and  C_5
REMARK                            x       y       z     vdW  Elec       q    Type
REMARK                         _______ _______ _______ _____ _____    ______ ____
ROOT
ATOM      1  C   UNL     1      15.052   4.533  -5.760  0.00  0.00    +0.000 C 
ATOM      2  H   UNL     1      16.040   4.181  -5.440  0.00  0.00    +0.000 HD
ATOM      3  H   UNL     1      14.971   4.315  -6.832  0.00  0.00    +0.000 HD
ENDROOT
BRANCH   1   4
ATOM      4  C   UNL     1      14.960   6.035  -5.547  0.00  0.00    +0.000 C 
ATOM      5  H   UNL     1      13.918   6.368  -5.550  0.00  0.00    +0.000 HD
ATOM      6  H   UNL     1      15.401   6.308  -4.582  0.00  0.00    +0.000 HD
ATOM      7  H   UNL     1      15.498   6.577  -6.331  0.00  0.00    +0.000 HD
ENDBRANCH   1   4
BRANCH   1   8
ATOM      8  C   UNL     1      13.963   3.792  -4.993  0.00  0.00    +0.000 C 
ATOM      9  H   UNL     1      13.122   4.459  -4.778  0.00  0.00    +0.000 HD
ATOM     10  H   UNL     1      13.587   2.949  -5.585  0.00  0.00    +0.000 HD
BRANCH   8  12
ATOM     11  O   UNL     1      15.628   3.213  -3.325  0.00  0.00    +0.000 OA
ATOM     12  C   UNL     1      14.455   3.236  -3.679  0.00  0.00    +0.000 C 
ATOM     13  H   UNL     1      13.665   2.838  -3.019  0.00  0.00    +0.000 HD
ENDBRANCH   8  12
ENDBRANCH   1   8
TORSDOF 3
ENDMDL
