MODEL 1
REMARK VINA RESULT:    -4.562      0.000      0.000
REMARK INTER + INTRA:          -6.597
REMARK INTER:                  -6.374
REMARK INTRA:                  -0.223
REMARK UNBOUND:                -0.168
REMARK  Name = 7983
REMARK  8 active torsions:
REMARK  status: ('A' for Active; 'I' for Inactive)
REMARK    1  A    between atoms: O_1  and  C_5
REMARK    2  A    between atoms: O_1  and  C_9
REMARK    3  A    between atoms: C_3  and  C_4
REMARK    4  A    between atoms: C_3  and  C_5
REMARK    5  A    between atoms: C_4  and  C_8
REMARK    6  A    between atoms: C_6  and  C_7
REMARK    7  A    between atoms: C_6  and  C_9
REMARK    8  A    between atoms: C_7  and  C_10
REMARK                            x       y       z     vdW  Elec       q    Type
REMARK                         _______ _______ _______ _____ _____    ______ ____
ROOT
ATOM      1  O   UNL     1       6.475   0.190  -0.950  0.00  0.00    +0.000 OA
ENDROOT
BRANCH   1   2
ATOM      2  C   UNL     1       7.331   1.323  -1.121  0.00  0.00    +0.000 C 
ATOM      3  H   UNL     1       7.136   1.778  -2.099  0.00  0.00    +0.000 HD
ATOM      4  H   UNL     1       8.377   0.997  -1.076  0.00  0.00    +0.000 HD
BRANCH   2   5
ATOM      5  C   UNL     1       7.048   2.326  -0.011  0.00  0.00    +0.000 C 
ATOM      6  H   UNL     1       6.694   1.792   0.880  0.00  0.00    +0.000 HD
ATOM      7  H   UNL     1       6.221   2.979  -0.318  0.00  0.00    +0.000 HD
BRANCH   5   8
ATOM      8  C   UNL     1       8.282   3.158   0.325  0.00  0.00    +0.000 C 
ATOM      9  H   UNL     1       8.945   3.211  -0.547  0.00  0.00    +0.000 HD
ATOM     10  H   UNL     1       8.846   2.678   1.132  0.00  0.00    +0.000 HD
BRANCH   8  11
ATOM     11  C   UNL     1       7.904   4.569   0.748  0.00  0.00    +0.000 C 
ATOM     12  H   UNL     1       7.240   5.035   0.012  0.00  0.00    +0.000 HD
ATOM     13  H   UNL     1       7.394   4.564   1.716  0.00  0.00    +0.000 HD
ATOM     14  H   UNL     1       8.800   5.191   0.838  0.00  0.00    +0.000 HD
ENDBRANCH   8  11
ENDBRANCH   5   8
ENDBRANCH   2   5
ENDBRANCH   1   2
BRANCH   1  16
ATOM     15  O   UNL     1       5.422  -1.439  -2.199  0.00  0.00    +0.000 OA
ATOM     16  C   UNL     1       5.989  -0.360  -2.103  0.00  0.00    +0.000 C 
BRANCH  16  17
ATOM     17  C   UNL     1       6.265   0.586  -3.249  0.00  0.00    +0.000 C 
ATOM     18  H   UNL     1       6.509   1.569  -2.829  0.00  0.00    +0.000 HD
ATOM     19  H   UNL     1       7.132   0.210  -3.803  0.00  0.00    +0.000 HD
BRANCH  17  20
ATOM     20  C   UNL     1       5.069   0.710  -4.189  0.00  0.00    +0.000 C 
ATOM     21  H   UNL     1       4.216   0.151  -3.784  0.00  0.00    +0.000 HD
ATOM     22  H   UNL     1       4.754   1.758  -4.261  0.00  0.00    +0.000 HD
BRANCH  20  23
ATOM     23  C   UNL     1       5.396   0.190  -5.580  0.00  0.00    +0.000 C 
ATOM     24  H   UNL     1       5.731   1.011  -6.223  0.00  0.00    +0.000 HD
ATOM     25  H   UNL     1       6.196  -0.557  -5.541  0.00  0.00    +0.000 HD
ATOM     26  H   UNL     1       4.519  -0.269  -6.044  0.00  0.00    +0.000 HD
ENDBRANCH  20  23
ENDBRANCH  17  20
ENDBRANCH  16  17
ENDBRANCH   1  16
TORSDOF 8
ENDMDL
MODEL 2
REMARK VINA RESULT:    -4.479      1.043      4.897
REMARK INTER + INTRA:          -6.481
REMARK INTER:                  -6.249
REMARK INTRA:                  -0.232
REMARK UNBOUND:                -0.168
REMARK  Name = 7983
REMARK  8 active torsions:
REMARK  status: ('A' for Active; 'I' for Inactive)
REMARK    1  A    between atoms: O_1  and  C_5
REMARK    2  A    between atoms: O_1  and  C_9
REMARK    3  A    between atoms: C_3  and  C_4
REMARK    4  A    between atoms: C_3  and  C_5
REMARK    5  A    between atoms: C_4  and  C_8
REMARK    6  A    between atoms: C_6  and  C_7
REMARK    7  A    between atoms: C_6  and  C_9
REMARK    8  A    between atoms: C_7  and  C_10
REMARK                            x       y       z     vdW  Elec       q    Type
REMARK                         _______ _______ _______ _____ _____    ______ ____
ROOT
ATOM      1  O   UNL     1       6.119   0.270  -1.526  0.00  0.00    +0.000 OA
ENDROOT
BRANCH   1   2
ATOM      2  C   UNL     1       6.486   0.949  -2.729  0.00  0.00    +0.000 C 
ATOM      3  H   UNL     1       7.322   0.420  -3.203  0.00  0.00    +0.000 HD
ATOM      4  H   UNL     1       6.798   1.972  -2.488  0.00  0.00    +0.000 HD
BRANCH   2   5
ATOM      5  C   UNL     1       5.286   0.975  -3.666  0.00  0.00    +0.000 C 
ATOM      6  H   UNL     1       5.025   2.017  -3.894  0.00  0.00    +0.000 HD
ATOM      7  H   UNL     1       4.415   0.555  -3.148  0.00  0.00    +0.000 HD
BRANCH   5   8
ATOM      8  C   UNL     1       5.560   0.203  -4.953  0.00  0.00    +0.000 C 
ATOM      9  H   UNL     1       5.540   0.887  -5.810  0.00  0.00    +0.000 HD
ATOM     10  H   UNL     1       4.773  -0.542  -5.115  0.00  0.00    +0.000 HD
BRANCH   8  11
ATOM     11  C   UNL     1       6.909  -0.496  -4.907  0.00  0.00    +0.000 C 
ATOM     12  H   UNL     1       7.684   0.172  -4.518  0.00  0.00    +0.000 HD
ATOM     13  H   UNL     1       6.869  -1.384  -4.270  0.00  0.00    +0.000 HD
ATOM     14  H   UNL     1       7.207  -0.812  -5.912  0.00  0.00    +0.000 HD
ENDBRANCH   8  11
ENDBRANCH   5   8
ENDBRANCH   2   5
ENDBRANCH   1   2
BRANCH   1  16
ATOM     15  O   UNL     1       6.672   0.206   0.713  0.00  0.00    +0.000 OA
ATOM     16  C   UNL     1       6.687   0.752  -0.381  0.00  0.00    +0.000 C 
BRANCH  16  17
ATOM     17  C   UNL     1       7.345   2.080  -0.683  0.00  0.00    +0.000 C 
ATOM     18  H   UNL     1       8.413   1.991  -0.456  0.00  0.00    +0.000 HD
ATOM     19  H   UNL     1       7.223   2.287  -1.752  0.00  0.00    +0.000 HD
BRANCH  17  20
ATOM     20  C   UNL     1       6.738   3.218   0.133  0.00  0.00    +0.000 C 
ATOM     21  H   UNL     1       5.976   3.739  -0.460  0.00  0.00    +0.000 HD
ATOM     22  H   UNL     1       6.229   2.815   1.017  0.00  0.00    +0.000 HD
BRANCH  20  23
ATOM     23  C   UNL     1       7.798   4.213   0.577  0.00  0.00    +0.000 C 
ATOM     24  H   UNL     1       8.375   4.563  -0.285  0.00  0.00    +0.000 HD
ATOM     25  H   UNL     1       7.341   5.085   1.056  0.00  0.00    +0.000 HD
ATOM     26  H   UNL     1       8.493   3.756   1.287  0.00  0.00    +0.000 HD
ENDBRANCH  20  23
ENDBRANCH  17  20
ENDBRANCH  16  17
ENDBRANCH   1  16
TORSDOF 8
ENDMDL
MODEL 3
REMARK VINA RESULT:    -4.420      2.592      4.359
REMARK INTER + INTRA:          -6.397
REMARK INTER:                  -5.945
REMARK INTRA:                  -0.452
REMARK UNBOUND:                -0.168
REMARK  Name = 7983
REMARK  8 active torsions:
REMARK  status: ('A' for Active; 'I' for Inactive)
REMARK    1  A    between atoms: O_1  and  C_5
REMARK    2  A    between atoms: O_1  and  C_9
REMARK    3  A    between atoms: C_3  and  C_4
REMARK    4  A    between atoms: C_3  and  C_5
REMARK    5  A    between atoms: C_4  and  C_8
REMARK    6  A    between atoms: C_6  and  C_7
REMARK    7  A    between atoms: C_6  and  C_9
REMARK    8  A    between atoms: C_7  and  C_10
REMARK                            x       y       z     vdW  Elec       q    Type
REMARK                         _______ _______ _______ _____ _____    ______ ____
ROOT
ATOM      1  O   UNL     1       6.900  -0.954  -1.393  0.00  0.00    +0.000 OA
ENDROOT
BRANCH   1   2
ATOM      2  C   UNL     1       6.758   0.465  -1.284  0.00  0.00    +0.000 C 
ATOM      3  H   UNL     1       7.725   0.904  -1.010  0.00  0.00    +0.000 HD
ATOM      4  H   UNL     1       6.023   0.698  -0.505  0.00  0.00    +0.000 HD
BRANCH   2   5
ATOM      5  C   UNL     1       6.294   1.018  -2.625  0.00  0.00    +0.000 C 
ATOM      6  H   UNL     1       7.168   1.320  -3.216  0.00  0.00    +0.000 HD
ATOM      7  H   UNL     1       5.715   1.934  -2.456  0.00  0.00    +0.000 HD
BRANCH   5   8
ATOM      8  C   UNL     1       5.460  -0.001  -3.395  0.00  0.00    +0.000 C 
ATOM      9  H   UNL     1       4.428   0.004  -3.024  0.00  0.00    +0.000 HD
ATOM     10  H   UNL     1       5.858  -1.009  -3.233  0.00  0.00    +0.000 HD
BRANCH   8  11
ATOM     11  C   UNL     1       5.452   0.300  -4.886  0.00  0.00    +0.000 C 
ATOM     12  H   UNL     1       4.516   0.782  -5.184  0.00  0.00    +0.000 HD
ATOM     13  H   UNL     1       6.281   0.960  -5.157  0.00  0.00    +0.000 HD
ATOM     14  H   UNL     1       5.553  -0.627  -5.460  0.00  0.00    +0.000 HD
ENDBRANCH   8  11
ENDBRANCH   5   8
ENDBRANCH   2   5
ENDBRANCH   1   2
BRANCH   1  16
ATOM     15  O   UNL     1       8.784  -1.354  -0.123  0.00  0.00    +0.000 OA
ATOM     16  C   UNL     1       8.157  -1.439  -1.170  0.00  0.00    +0.000 C 
BRANCH  16  17
ATOM     17  C   UNL     1       8.657  -2.102  -2.434  0.00  0.00    +0.000 C 
ATOM     18  H   UNL     1       9.334  -2.915  -2.147  0.00  0.00    +0.000 HD
ATOM     19  H   UNL     1       7.795  -2.526  -2.962  0.00  0.00    +0.000 HD
BRANCH  17  20
ATOM     20  C   UNL     1       9.387  -1.120  -3.346  0.00  0.00    +0.000 C 
ATOM     21  H   UNL     1       8.672  -0.638  -4.024  0.00  0.00    +0.000 HD
ATOM     22  H   UNL     1       9.843  -0.322  -2.748  0.00  0.00    +0.000 HD
BRANCH  20  23
ATOM     23  C   UNL     1      10.466  -1.813  -4.161  0.00  0.00    +0.000 C 
ATOM     24  H   UNL     1      10.018  -2.552  -4.834  0.00  0.00    +0.000 HD
ATOM     25  H   UNL     1      11.020  -1.093  -4.771  0.00  0.00    +0.000 HD
ATOM     26  H   UNL     1      11.176  -2.333  -3.512  0.00  0.00    +0.000 HD
ENDBRANCH  20  23
ENDBRANCH  17  20
ENDBRANCH  16  17
ENDBRANCH   1  16
TORSDOF 8
ENDMDL
MODEL 4
REMARK VINA RESULT:    -4.293      2.285      3.690
REMARK INTER + INTRA:          -6.218
REMARK INTER:                  -5.876
REMARK INTRA:                  -0.342
REMARK UNBOUND:                -0.168
REMARK  Name = 7983
REMARK  8 active torsions:
REMARK  status: ('A' for Active; 'I' for Inactive)
REMARK    1  A    between atoms: O_1  and  C_5
REMARK    2  A    between atoms: O_1  and  C_9
REMARK    3  A    between atoms: C_3  and  C_4
REMARK    4  A    between atoms: C_3  and  C_5
REMARK    5  A    between atoms: C_4  and  C_8
REMARK    6  A    between atoms: C_6  and  C_7
REMARK    7  A    between atoms: C_6  and  C_9
REMARK    8  A    between atoms: C_7  and  C_10
REMARK                            x       y       z     vdW  Elec       q    Type
REMARK                         _______ _______ _______ _____ _____    ______ ____
ROOT
ATOM      1  O   UNL     1       7.736   0.521  -1.023  0.00  0.00    +0.000 OA
ENDROOT
BRANCH   1   2
ATOM      2  C   UNL     1       7.547  -0.896  -1.053  0.00  0.00    +0.000 C 
ATOM      3  H   UNL     1       6.898  -1.156  -1.898  0.00  0.00    +0.000 HD
ATOM      4  H   UNL     1       7.070  -1.218  -0.120  0.00  0.00    +0.000 HD
BRANCH   2   5
ATOM      5  C   UNL     1       8.903  -1.571  -1.208  0.00  0.00    +0.000 C 
ATOM      6  H   UNL     1       8.967  -2.421  -0.516  0.00  0.00    +0.000 HD
ATOM      7  H   UNL     1       9.691  -0.873  -0.899  0.00  0.00    +0.000 HD
BRANCH   5   8
ATOM      8  C   UNL     1       9.140  -2.036  -2.641  0.00  0.00    +0.000 C 
ATOM      9  H   UNL     1       8.182  -2.134  -3.166  0.00  0.00    +0.000 HD
ATOM     10  H   UNL     1       9.611  -3.026  -2.640  0.00  0.00    +0.000 HD
BRANCH   8  11
ATOM     11  C   UNL     1      10.025  -1.062  -3.403  0.00  0.00    +0.000 C 
ATOM     12  H   UNL     1       9.531  -0.715  -4.316  0.00  0.00    +0.000 HD
ATOM     13  H   UNL     1      10.267  -0.190  -2.789  0.00  0.00    +0.000 HD
ATOM     14  H   UNL     1      10.964  -1.548  -3.690  0.00  0.00    +0.000 HD
ENDBRANCH   8  11
ENDBRANCH   5   8
ENDBRANCH   2   5
ENDBRANCH   1   2
BRANCH   1  16
ATOM     15  O   UNL     1       6.284   2.276  -1.387  0.00  0.00    +0.000 OA
ATOM     16  C   UNL     1       6.840   1.250  -1.752  0.00  0.00    +0.000 C 
BRANCH  16  17
ATOM     17  C   UNL     1       6.644   0.582  -3.094  0.00  0.00    +0.000 C 
ATOM     18  H   UNL     1       7.425   0.943  -3.772  0.00  0.00    +0.000 HD
ATOM     19  H   UNL     1       6.760  -0.499  -2.959  0.00  0.00    +0.000 HD
BRANCH  17  20
ATOM     20  C   UNL     1       5.269   0.881  -3.687  0.00  0.00    +0.000 C 
ATOM     21  H   UNL     1       4.492   0.369  -3.106  0.00  0.00    +0.000 HD
ATOM     22  H   UNL     1       5.057   1.955  -3.619  0.00  0.00    +0.000 HD
BRANCH  20  23
ATOM     23  C   UNL     1       5.181   0.445  -5.140  0.00  0.00    +0.000 C 
ATOM     24  H   UNL     1       6.079  -0.114  -5.424  0.00  0.00    +0.000 HD
ATOM     25  H   UNL     1       4.314  -0.204  -5.303  0.00  0.00    +0.000 HD
ATOM     26  H   UNL     1       5.095   1.309  -5.805  0.00  0.00    +0.000 HD
ENDBRANCH  20  23
ENDBRANCH  17  20
ENDBRANCH  16  17
ENDBRANCH   1  16
TORSDOF 8
ENDMDL
MODEL 5
REMARK VINA RESULT:    -4.135      2.091      4.844
REMARK INTER + INTRA:          -5.996
REMARK INTER:                  -5.643
REMARK INTRA:                  -0.353
REMARK UNBOUND:                -0.168
REMARK  Name = 7983
REMARK  8 active torsions:
REMARK  status: ('A' for Active; 'I' for Inactive)
REMARK    1  A    between atoms: O_1  and  C_5
REMARK    2  A    between atoms: O_1  and  C_9
REMARK    3  A    between atoms: C_3  and  C_4
REMARK    4  A    between atoms: C_3  and  C_5
REMARK    5  A    between atoms: C_4  and  C_8
REMARK    6  A    between atoms: C_6  and  C_7
REMARK    7  A    between atoms: C_6  and  C_9
REMARK    8  A    between atoms: C_7  and  C_10
REMARK                            x       y       z     vdW  Elec       q    Type
REMARK                         _______ _______ _______ _____ _____    ______ ____
ROOT
ATOM      1  O   UNL     1       6.942  -1.002  -0.876  0.00  0.00    +0.000 OA
ENDROOT
BRANCH   1   2
ATOM      2  C   UNL     1       6.589  -0.727  -2.234  0.00  0.00    +0.000 C 
ATOM      3  H   UNL     1       5.575  -1.099  -2.427  0.00  0.00    +0.000 HD
ATOM      4  H   UNL     1       7.293  -1.238  -2.902  0.00  0.00    +0.000 HD
BRANCH   2   5
ATOM      5  C   UNL     1       6.647   0.777  -2.464  0.00  0.00    +0.000 C 
ATOM      6  H   UNL     1       7.600   1.035  -2.943  0.00  0.00    +0.000 HD
ATOM      7  H   UNL     1       6.650   1.290  -1.494  0.00  0.00    +0.000 HD
BRANCH   5   8
ATOM      8  C   UNL     1       5.477   1.262  -3.314  0.00  0.00    +0.000 C 
ATOM      9  H   UNL     1       5.683   2.269  -3.694  0.00  0.00    +0.000 HD
ATOM     10  H   UNL     1       4.571   1.325  -2.701  0.00  0.00    +0.000 HD
BRANCH   8  11
ATOM     11  C   UNL     1       5.220   0.332  -4.490  0.00  0.00    +0.000 C 
ATOM     12  H   UNL     1       5.936   0.515  -5.298  0.00  0.00    +0.000 HD
ATOM     13  H   UNL     1       5.304  -0.716  -4.187  0.00  0.00    +0.000 HD
ATOM     14  H   UNL     1       4.212   0.492  -4.887  0.00  0.00    +0.000 HD
ENDBRANCH   8  11
ENDBRANCH   5   8
ENDBRANCH   2   5
ENDBRANCH   1   2
BRANCH   1  16
ATOM     15  O   UNL     1       9.092  -1.619  -1.442  0.00  0.00    +0.000 OA
ATOM     16  C   UNL     1       8.275  -1.188  -0.640  0.00  0.00    +0.000 C 
BRANCH  16  17
ATOM     17  C   UNL     1       8.583  -0.774   0.781  0.00  0.00    +0.000 C 
ATOM     18  H   UNL     1       7.641  -0.493   1.266  0.00  0.00    +0.000 HD
ATOM     19  H   UNL     1       9.011  -1.636   1.304  0.00  0.00    +0.000 HD
BRANCH  17  20
ATOM     20  C   UNL     1       9.560   0.398   0.836  0.00  0.00    +0.000 C 
ATOM     21  H   UNL     1       9.934   0.525   1.860  0.00  0.00    +0.000 HD
ATOM     22  H   UNL     1      10.432   0.189   0.205  0.00  0.00    +0.000 HD
BRANCH  20  23
ATOM     23  C   UNL     1       8.907   1.690   0.374  0.00  0.00    +0.000 C 
ATOM     24  H   UNL     1       8.324   1.517  -0.536  0.00  0.00    +0.000 HD
ATOM     25  H   UNL     1       8.230   2.083   1.140  0.00  0.00    +0.000 HD
ATOM     26  H   UNL     1       9.659   2.454   0.156  0.00  0.00    +0.000 HD
ENDBRANCH  20  23
ENDBRANCH  17  20
ENDBRANCH  16  17
ENDBRANCH   1  16
TORSDOF 8
ENDMDL
MODEL 6
REMARK VINA RESULT:    -4.122      2.146      4.713
REMARK INTER + INTRA:          -5.978
REMARK INTER:                  -5.635
REMARK INTRA:                  -0.343
REMARK UNBOUND:                -0.168
REMARK  Name = 7983
REMARK  8 active torsions:
REMARK  status: ('A' for Active; 'I' for Inactive)
REMARK    1  A    between atoms: O_1  and  C_5
REMARK    2  A    between atoms: O_1  and  C_9
REMARK    3  A    between atoms: C_3  and  C_4
REMARK    4  A    between atoms: C_3  and  C_5
REMARK    5  A    between atoms: C_4  and  C_8
REMARK    6  A    between atoms: C_6  and  C_7
REMARK    7  A    between atoms: C_6  and  C_9
REMARK    8  A    between atoms: C_7  and  C_10
REMARK                            x       y       z     vdW  Elec       q    Type
REMARK                         _______ _______ _______ _____ _____    ______ ____
ROOT
ATOM      1  O   UNL     1       6.006   0.423  -1.742  0.00  0.00    +0.000 OA
ENDROOT
BRANCH   1   2
ATOM      2  C   UNL     1       5.970   1.210  -2.936  0.00  0.00    +0.000 C 
ATOM      3  H   UNL     1       6.962   1.202  -3.403  0.00  0.00    +0.000 HD
ATOM      4  H   UNL     1       5.698   2.241  -2.682  0.00  0.00    +0.000 HD
BRANCH   2   5
ATOM      5  C   UNL     1       4.940   0.615  -3.886  0.00  0.00    +0.000 C 
ATOM      6  H   UNL     1       4.137   1.345  -4.055  0.00  0.00    +0.000 HD
ATOM      7  H   UNL     1       4.463  -0.249  -3.407  0.00  0.00    +0.000 HD
BRANCH   5   8
ATOM      8  C   UNL     1       5.569   0.204  -5.213  0.00  0.00    +0.000 C 
ATOM      9  H   UNL     1       5.774   1.093  -5.821  0.00  0.00    +0.000 HD
ATOM     10  H   UNL     1       4.870  -0.422  -5.780  0.00  0.00    +0.000 HD
BRANCH   8  11
ATOM     11  C   UNL     1       6.866  -0.562  -5.001  0.00  0.00    +0.000 C 
ATOM     12  H   UNL     1       7.692   0.120  -4.775  0.00  0.00    +0.000 HD
ATOM     13  H   UNL     1       6.770  -1.273  -4.175  0.00  0.00    +0.000 HD
ATOM     14  H   UNL     1       7.127  -1.123  -5.904  0.00  0.00    +0.000 HD
ENDBRANCH   8  11
ENDBRANCH   5   8
ENDBRANCH   2   5
ENDBRANCH   1   2
BRANCH   1  16
ATOM     15  O   UNL     1       7.862   1.414  -0.796  0.00  0.00    +0.000 OA
ATOM     16  C   UNL     1       7.196   0.426  -1.071  0.00  0.00    +0.000 C 
BRANCH  16  17
ATOM     17  C   UNL     1       7.563  -0.998  -0.720  0.00  0.00    +0.000 C 
ATOM     18  H   UNL     1       7.464  -1.118   0.365  0.00  0.00    +0.000 HD
ATOM     19  H   UNL     1       6.855  -1.668  -1.220  0.00  0.00    +0.000 HD
BRANCH  17  20
ATOM     20  C   UNL     1       8.987  -1.344  -1.149  0.00  0.00    +0.000 C 
ATOM     21  H   UNL     1       9.584  -0.428  -1.237  0.00  0.00    +0.000 HD
ATOM     22  H   UNL     1       9.469  -1.962  -0.382  0.00  0.00    +0.000 HD
BRANCH  20  23
ATOM     23  C   UNL     1       9.005  -2.087  -2.474  0.00  0.00    +0.000 C 
ATOM     24  H   UNL     1       8.237  -1.687  -3.145  0.00  0.00    +0.000 HD
ATOM     25  H   UNL     1       9.976  -1.981  -2.970  0.00  0.00    +0.000 HD
ATOM     26  H   UNL     1       8.808  -3.153  -2.330  0.00  0.00    +0.000 HD
ENDBRANCH  20  23
ENDBRANCH  17  20
ENDBRANCH  16  17
ENDBRANCH   1  16
TORSDOF 8
ENDMDL
MODEL 7
REMARK VINA RESULT:    -3.789     16.137     18.840
REMARK INTER + INTRA:          -5.508
REMARK INTER:                  -5.231
REMARK INTRA:                  -0.277
REMARK UNBOUND:                -0.168
REMARK  Name = 7983
REMARK  8 active torsions:
REMARK  status: ('A' for Active; 'I' for Inactive)
REMARK    1  A    between atoms: O_1  and  C_5
REMARK    2  A    between atoms: O_1  and  C_9
REMARK    3  A    between atoms: C_3  and  C_4
REMARK    4  A    between atoms: C_3  and  C_5
REMARK    5  A    between atoms: C_4  and  C_8
REMARK    6  A    between atoms: C_6  and  C_7
REMARK    7  A    between atoms: C_6  and  C_9
REMARK    8  A    between atoms: C_7  and  C_10
REMARK                            x       y       z     vdW  Elec       q    Type
REMARK                         _______ _______ _______ _____ _____    ______ ____
ROOT
ATOM      1  O   UNL     1      -1.771 -13.473 -10.216  0.00  0.00    +0.000 OA
ENDROOT
BRANCH   1   2
ATOM      2  C   UNL     1      -1.513 -14.878 -10.296  0.00  0.00    +0.000 C 
ATOM      3  H   UNL     1      -2.457 -15.426 -10.178  0.00  0.00    +0.000 HD
ATOM      4  H   UNL     1      -0.826 -15.167  -9.492  0.00  0.00    +0.000 HD
BRANCH   2   5
ATOM      5  C   UNL     1      -0.894 -15.189 -11.652  0.00  0.00    +0.000 C 
ATOM      6  H   UNL     1      -1.287 -16.146 -12.019  0.00  0.00    +0.000 HD
ATOM      7  H   UNL     1       0.186 -15.335 -11.531  0.00  0.00    +0.000 HD
BRANCH   5   8
ATOM      8  C   UNL     1      -1.168 -14.081 -12.664  0.00  0.00    +0.000 C 
ATOM      9  H   UNL     1      -1.913 -13.384 -12.262  0.00  0.00    +0.000 HD
ATOM     10  H   UNL     1      -1.587 -14.509 -13.582  0.00  0.00    +0.000 HD
BRANCH   8  11
ATOM     11  C   UNL     1       0.099 -13.312 -13.004  0.00  0.00    +0.000 C 
ATOM     12  H   UNL     1       0.658 -13.811 -13.801  0.00  0.00    +0.000 HD
ATOM     13  H   UNL     1      -0.136 -12.295 -13.332  0.00  0.00    +0.000 HD
ATOM     14  H   UNL     1       0.748 -13.244 -12.125  0.00  0.00    +0.000 HD
ENDBRANCH   8  11
ENDBRANCH   5   8
ENDBRANCH   2   5
ENDBRANCH   1   2
BRANCH   1  16
ATOM     15  O   UNL     1       0.042 -12.266  -9.457  0.00  0.00    +0.000 OA
ATOM     16  C   UNL     1      -1.046 -12.795  -9.278  0.00  0.00    +0.000 C 
BRANCH  16  17
ATOM     17  C   UNL     1      -1.809 -12.800  -7.973  0.00  0.00    +0.000 C 
ATOM     18  H   UNL     1      -2.080 -11.765  -7.733  0.00  0.00    +0.000 HD
ATOM     19  H   UNL     1      -2.724 -13.385  -8.113  0.00  0.00    +0.000 HD
BRANCH  17  20
ATOM     20  C   UNL     1      -0.988 -13.395  -6.832  0.00  0.00    +0.000 C 
ATOM     21  H   UNL     1      -1.614 -14.067  -6.232  0.00  0.00    +0.000 HD
ATOM     22  H   UNL     1      -0.170 -14.003  -7.236  0.00  0.00    +0.000 HD
BRANCH  20  23
ATOM     23  C   UNL     1      -0.411 -12.311  -5.936  0.00  0.00    +0.000 C 
ATOM     24  H   UNL     1      -1.212 -11.802  -5.391  0.00  0.00    +0.000 HD
ATOM     25  H   UNL     1       0.281 -12.737  -5.202  0.00  0.00    +0.000 HD
ATOM     26  H   UNL     1       0.129 -11.563  -6.523  0.00  0.00    +0.000 HD
ENDBRANCH  20  23
ENDBRANCH  17  20
ENDBRANCH  16  17
ENDBRANCH   1  16
TORSDOF 8
ENDMDL
MODEL 8
REMARK VINA RESULT:    -3.576     21.596     22.892
REMARK INTER + INTRA:          -5.208
REMARK INTER:                  -5.039
REMARK INTRA:                  -0.168
REMARK UNBOUND:                -0.168
REMARK  Name = 7983
REMARK  8 active torsions:
REMARK  status: ('A' for Active; 'I' for Inactive)
REMARK    1  A    between atoms: O_1  and  C_5
REMARK    2  A    between atoms: O_1  and  C_9
REMARK    3  A    between atoms: C_3  and  C_4
REMARK    4  A    between atoms: C_3  and  C_5
REMARK    5  A    between atoms: C_4  and  C_8
REMARK    6  A    between atoms: C_6  and  C_7
REMARK    7  A    between atoms: C_6  and  C_9
REMARK    8  A    between atoms: C_7  and  C_10
REMARK                            x       y       z     vdW  Elec       q    Type
REMARK                         _______ _______ _______ _____ _____    ______ ____
ROOT
ATOM      1  O   UNL     1       2.565  -6.012  19.216  0.00  0.00    +0.000 OA
ENDROOT
BRANCH   1   2
ATOM      2  C   UNL     1       3.052  -4.680  19.031  0.00  0.00    +0.000 C 
ATOM      3  H   UNL     1       4.146  -4.681  19.116  0.00  0.00    +0.000 HD
ATOM      4  H   UNL     1       2.631  -4.029  19.805  0.00  0.00    +0.000 HD
BRANCH   2   5
ATOM      5  C   UNL     1       2.635  -4.191  17.651  0.00  0.00    +0.000 C 
ATOM      6  H   UNL     1       2.592  -3.094  17.652  0.00  0.00    +0.000 HD
ATOM      7  H   UNL     1       1.613  -4.531  17.441  0.00  0.00    +0.000 HD
BRANCH   5   8
ATOM      8  C   UNL     1       3.589  -4.683  16.567  0.00  0.00    +0.000 C 
ATOM      9  H   UNL     1       3.243  -5.646  16.173  0.00  0.00    +0.000 HD
ATOM     10  H   UNL     1       4.586  -4.847  16.993  0.00  0.00    +0.000 HD
BRANCH   8  11
ATOM     11  C   UNL     1       3.693  -3.687  15.422  0.00  0.00    +0.000 C 
ATOM     12  H   UNL     1       2.749  -3.150  15.283  0.00  0.00    +0.000 HD
ATOM     13  H   UNL     1       4.481  -2.953  15.612  0.00  0.00    +0.000 HD
ATOM     14  H   UNL     1       3.928  -4.206  14.488  0.00  0.00    +0.000 HD
ENDBRANCH   8  11
ENDBRANCH   5   8
ENDBRANCH   2   5
ENDBRANCH   1   2
BRANCH   1  16
ATOM     15  O   UNL     1       1.981  -5.809  21.439  0.00  0.00    +0.000 OA
ATOM     16  C   UNL     1       1.755  -6.196  20.301  0.00  0.00    +0.000 C 
BRANCH  16  17
ATOM     17  C   UNL     1       0.524  -6.960  19.869  0.00  0.00    +0.000 C 
ATOM     18  H   UNL     1      -0.018  -6.347  19.138  0.00  0.00    +0.000 HD
ATOM     19  H   UNL     1       0.848  -7.888  19.386  0.00  0.00    +0.000 HD
BRANCH  17  20
ATOM     20  C   UNL     1      -0.391  -7.286  21.047  0.00  0.00    +0.000 C 
ATOM     21  H   UNL     1      -0.530  -8.371  21.122  0.00  0.00    +0.000 HD
ATOM     22  H   UNL     1       0.076  -6.962  21.984  0.00  0.00    +0.000 HD
BRANCH  20  23
ATOM     23  C   UNL     1      -1.746  -6.613  20.904  0.00  0.00    +0.000 C 
ATOM     24  H   UNL     1      -1.840  -6.156  19.913  0.00  0.00    +0.000 HD
ATOM     25  H   UNL     1      -2.558  -7.338  21.021  0.00  0.00    +0.000 HD
ATOM     26  H   UNL     1      -1.875  -5.827  21.653  0.00  0.00    +0.000 HD
ENDBRANCH  20  23
ENDBRANCH  17  20
ENDBRANCH  16  17
ENDBRANCH   1  16
TORSDOF 8
ENDMDL
MODEL 9
REMARK VINA RESULT:    -3.574     17.187     19.498
REMARK INTER + INTRA:          -5.205
REMARK INTER:                  -4.687
REMARK INTRA:                  -0.518
REMARK UNBOUND:                -0.168
REMARK  Name = 7983
REMARK  8 active torsions:
REMARK  status: ('A' for Active; 'I' for Inactive)
REMARK    1  A    between atoms: O_1  and  C_5
REMARK    2  A    between atoms: O_1  and  C_9
REMARK    3  A    between atoms: C_3  and  C_4
REMARK    4  A    between atoms: C_3  and  C_5
REMARK    5  A    between atoms: C_4  and  C_8
REMARK    6  A    between atoms: C_6  and  C_7
REMARK    7  A    between atoms: C_6  and  C_9
REMARK    8  A    between atoms: C_7  and  C_10
REMARK                            x       y       z     vdW  Elec       q    Type
REMARK                         _______ _______ _______ _____ _____    ______ ____
ROOT
ATOM      1  O   UNL     1      -1.435 -14.450 -10.898  0.00  0.00    +0.000 OA
ENDROOT
BRANCH   1   2
ATOM      2  C   UNL     1      -0.546 -13.475 -11.451  0.00  0.00    +0.000 C 
ATOM      3  H   UNL     1      -1.079 -12.892 -12.212  0.00  0.00    +0.000 HD
ATOM      4  H   UNL     1       0.306 -13.983 -11.917  0.00  0.00    +0.000 HD
BRANCH   2   5
ATOM      5  C   UNL     1      -0.064 -12.560 -10.334  0.00  0.00    +0.000 C 
ATOM      6  H   UNL     1       0.186 -11.576 -10.752  0.00  0.00    +0.000 HD
ATOM      7  H   UNL     1       0.872 -12.956  -9.921  0.00  0.00    +0.000 HD
BRANCH   5   8
ATOM      8  C   UNL     1      -1.109 -12.417  -9.232  0.00  0.00    +0.000 C 
ATOM      9  H   UNL     1      -1.765 -13.295  -9.222  0.00  0.00    +0.000 HD
ATOM     10  H   UNL     1      -1.741 -11.543  -9.428  0.00  0.00    +0.000 HD
BRANCH   8  11
ATOM     11  C   UNL     1      -0.460 -12.266  -7.865  0.00  0.00    +0.000 C 
ATOM     12  H   UNL     1       0.572 -12.632  -7.878  0.00  0.00    +0.000 HD
ATOM     13  H   UNL     1      -0.450 -11.220  -7.549  0.00  0.00    +0.000 HD
ATOM     14  H   UNL     1      -1.014 -12.843  -7.117  0.00  0.00    +0.000 HD
ENDBRANCH   8  11
ENDBRANCH   5   8
ENDBRANCH   2   5
ENDBRANCH   1   2
BRANCH   1  16
ATOM     15  O   UNL     1      -0.645 -16.123 -12.278  0.00  0.00    +0.000 OA
ATOM     16  C   UNL     1      -1.170 -15.747 -11.239  0.00  0.00    +0.000 C 
BRANCH  16  17
ATOM     17  C   UNL     1      -1.631 -16.651 -10.118  0.00  0.00    +0.000 C 
ATOM     18  H   UNL     1      -2.648 -16.988 -10.349  0.00  0.00    +0.000 HD
ATOM     19  H   UNL     1      -0.966 -17.521 -10.083  0.00  0.00    +0.000 HD
BRANCH  17  20
ATOM     20  C   UNL     1      -1.618 -15.940  -8.767  0.00  0.00    +0.000 C 
ATOM     21  H   UNL     1      -0.954 -16.469  -8.073  0.00  0.00    +0.000 HD
ATOM     22  H   UNL     1      -1.214 -14.927  -8.881  0.00  0.00    +0.000 HD
BRANCH  20  23
ATOM     23  C   UNL     1      -3.012 -15.859  -8.167  0.00  0.00    +0.000 C 
ATOM     24  H   UNL     1      -3.122 -14.936  -7.587  0.00  0.00    +0.000 HD
ATOM     25  H   UNL     1      -3.777 -15.859  -8.951  0.00  0.00    +0.000 HD
ATOM     26  H   UNL     1      -3.203 -16.704  -7.500  0.00  0.00    +0.000 HD
ENDBRANCH  20  23
ENDBRANCH  17  20
ENDBRANCH  16  17
ENDBRANCH   1  16
TORSDOF 8
ENDMDL
MODEL 10
REMARK VINA RESULT:    -3.549      1.978      2.421
REMARK INTER + INTRA:          -5.170
REMARK INTER:                  -4.819
REMARK INTRA:                  -0.351
REMARK UNBOUND:                -0.168
REMARK  Name = 7983
REMARK  8 active torsions:
REMARK  status: ('A' for Active; 'I' for Inactive)
REMARK    1  A    between atoms: O_1  and  C_5
REMARK    2  A    between atoms: O_1  and  C_9
REMARK    3  A    between atoms: C_3  and  C_4
REMARK    4  A    between atoms: C_3  and  C_5
REMARK    5  A    between atoms: C_4  and  C_8
REMARK    6  A    between atoms: C_6  and  C_7
REMARK    7  A    between atoms: C_6  and  C_9
REMARK    8  A    between atoms: C_7  and  C_10
REMARK                            x       y       z     vdW  Elec       q    Type
REMARK                         _______ _______ _______ _____ _____    ______ ____
ROOT
ATOM      1  O   UNL     1       6.986   1.134  -1.824  0.00  0.00    +0.000 OA
ENDROOT
BRANCH   1   2
ATOM      2  C   UNL     1       7.031   1.526  -0.449  0.00  0.00    +0.000 C 
ATOM      3  H   UNL     1       6.862   0.645   0.183  0.00  0.00    +0.000 HD
ATOM      4  H   UNL     1       6.244   2.264  -0.257  0.00  0.00    +0.000 HD
BRANCH   2   5
ATOM      5  C   UNL     1       8.398   2.127  -0.154  0.00  0.00    +0.000 C 
ATOM      6  H   UNL     1       8.294   2.907   0.612  0.00  0.00    +0.000 HD
ATOM      7  H   UNL     1       8.770   2.637  -1.052  0.00  0.00    +0.000 HD
BRANCH   5   8
ATOM      8  C   UNL     1       9.394   1.065   0.302  0.00  0.00    +0.000 C 
ATOM      9  H   UNL     1      10.144   1.516   0.963  0.00  0.00    +0.000 HD
ATOM     10  H   UNL     1       9.928   0.658  -0.564  0.00  0.00    +0.000 HD
BRANCH   8  11
ATOM     11  C   UNL     1       8.700  -0.069   1.040  0.00  0.00    +0.000 C 
ATOM     12  H   UNL     1       9.128  -0.208   2.038  0.00  0.00    +0.000 HD
ATOM     13  H   UNL     1       7.630   0.132   1.150  0.00  0.00    +0.000 HD
ATOM     14  H   UNL     1       8.815  -1.007   0.488  0.00  0.00    +0.000 HD
ENDBRANCH   8  11
ENDBRANCH   5   8
ENDBRANCH   2   5
ENDBRANCH   1   2
BRANCH   1  16
ATOM     15  O   UNL     1       5.500  -0.628  -1.712  0.00  0.00    +0.000 OA
ATOM     16  C   UNL     1       6.570  -0.147  -2.057  0.00  0.00    +0.000 C 
BRANCH  16  17
ATOM     17  C   UNL     1       7.652  -0.881  -2.817  0.00  0.00    +0.000 C 
ATOM     18  H   UNL     1       8.618  -0.443  -2.543  0.00  0.00    +0.000 HD
ATOM     19  H   UNL     1       7.636  -1.932  -2.507  0.00  0.00    +0.000 HD
BRANCH  17  20
ATOM     20  C   UNL     1       7.454  -0.788  -4.327  0.00  0.00    +0.000 C 
ATOM     21  H   UNL     1       6.755  -1.566  -4.661  0.00  0.00    +0.000 HD
ATOM     22  H   UNL     1       7.001   0.176  -4.588  0.00  0.00    +0.000 HD
BRANCH  20  23
ATOM     23  C   UNL     1       8.769  -0.940  -5.073  0.00  0.00    +0.000 C 
ATOM     24  H   UNL     1       9.570  -1.216  -4.378  0.00  0.00    +0.000 HD
ATOM     25  H   UNL     1       8.700  -1.722  -5.837  0.00  0.00    +0.000 HD
ATOM     26  H   UNL     1       9.053  -0.005  -5.564  0.00  0.00    +0.000 HD
ENDBRANCH  20  23
ENDBRANCH  17  20
ENDBRANCH  16  17
ENDBRANCH   1  16
TORSDOF 8
ENDMDL
