MODEL 1
REMARK VINA RESULT:    -4.580      0.000      0.000
REMARK INTER + INTRA:          -7.010
REMARK INTER:                  -6.284
REMARK INTRA:                  -0.726
REMARK UNBOUND:                -0.825
REMARK  Name = 24433
REMARK  7 active torsions:
REMARK  status: ('A' for Active; 'I' for Inactive)
REMARK    1  A    between atoms: O_1  and  C_6
REMARK    2  A    between atoms: O_1  and  C_9
REMARK    3  A    between atoms: N_3  and  C_10
REMARK    4  A    between atoms: C_4  and  C_5
REMARK    5  A    between atoms: C_4  and  C_6
REMARK    6  A    between atoms: C_5  and  C_7
REMARK    7  A    between atoms: C_8  and  C_9
REMARK                            x       y       z     vdW  Elec       q    Type
REMARK                         _______ _______ _______ _____ _____    ______ ____
ROOT
ATOM      1  O   UNL     1      -2.947  10.348  10.290  0.00  0.00    +0.000 OA
ATOM      2  C   UNL     1      -2.096  10.339  11.166  0.00  0.00    +0.000 C 
ENDROOT
BRANCH   2   3
ATOM      3  C   UNL     1      -2.303   9.710  12.495  0.00  0.00    +0.000 A 
ATOM      4  C   UNL     1      -2.306  10.482  13.640  0.00  0.00    +0.000 A 
ATOM      5  C   UNL     1      -2.490   8.342  12.535  0.00  0.00    +0.000 A 
ATOM      6  C   UNL     1      -2.504   9.862  14.874  0.00  0.00    +0.000 A 
ATOM      7  C   UNL     1      -2.687   7.722  13.769  0.00  0.00    +0.000 A 
ATOM      8  C   UNL     1      -2.694   8.482  14.938  0.00  0.00    +0.000 A 
ATOM      9  H   UNL     1      -2.506   7.725  11.641  0.00  0.00    +0.000 HD
ATOM     10  H   UNL     1      -2.511  10.443  15.793  0.00  0.00    +0.000 HD
ATOM     11  H   UNL     1      -2.839   6.647  13.820  0.00  0.00    +0.000 HD
ATOM     12  H   UNL     1      -2.848   8.000  15.899  0.00  0.00    +0.000 HD
BRANCH   4  13
ATOM     13  N   UNL     1      -2.115  11.881  13.596  0.00  0.00    +0.000 N 
ATOM     14  H   UNL     1      -1.187  12.278  13.570  0.00  0.00    +0.000 HD
ATOM     15  H   UNL     1      -2.918  12.497  13.608  0.00  0.00    +0.000 HD
ENDBRANCH   4  13
ENDBRANCH   2   3
BRANCH   2  16
ATOM     16  O   UNL     1      -0.852  10.887  11.079  0.00  0.00    +0.000 OA
BRANCH  16  17
ATOM     17  C   UNL     1      -0.108  10.564   9.912  0.00  0.00    +0.000 C 
ATOM     18  H   UNL     1      -0.164  11.399   9.203  0.00  0.00    +0.000 HD
ATOM     19  H   UNL     1      -0.531   9.668   9.444  0.00  0.00    +0.000 HD
BRANCH  17  20
ATOM     20  C   UNL     1       1.340  10.311  10.306  0.00  0.00    +0.000 C 
ATOM     21  H   UNL     1       1.647  11.051  11.057  0.00  0.00    +0.000 HD
ATOM     22  H   UNL     1       1.987  10.481   9.437  0.00  0.00    +0.000 HD
BRANCH  20  23
ATOM     23  C   UNL     1       1.539   8.898  10.845  0.00  0.00    +0.000 C 
ATOM     24  H   UNL     1       1.480   8.904  11.940  0.00  0.00    +0.000 HD
ATOM     25  H   UNL     1       2.539   8.535  10.577  0.00  0.00    +0.000 HD
BRANCH  23  26
ATOM     26  C   UNL     1       0.494   7.940  10.296  0.00  0.00    +0.000 C 
ATOM     27  H   UNL     1       0.956   7.180   9.657  0.00  0.00    +0.000 HD
ATOM     28  H   UNL     1      -0.038   7.432  11.107  0.00  0.00    +0.000 HD
ATOM     29  H   UNL     1      -0.241   8.486   9.695  0.00  0.00    +0.000 HD
ENDBRANCH  23  26
ENDBRANCH  20  23
ENDBRANCH  17  20
ENDBRANCH  16  17
ENDBRANCH   2  16
TORSDOF 7
ENDMDL
MODEL 2
REMARK VINA RESULT:    -4.402      1.531      4.542
REMARK INTER + INTRA:          -6.770
REMARK INTER:                  -6.230
REMARK INTRA:                  -0.540
REMARK UNBOUND:                -0.825
REMARK  Name = 24433
REMARK  7 active torsions:
REMARK  status: ('A' for Active; 'I' for Inactive)
REMARK    1  A    between atoms: O_1  and  C_6
REMARK    2  A    between atoms: O_1  and  C_9
REMARK    3  A    between atoms: N_3  and  C_10
REMARK    4  A    between atoms: C_4  and  C_5
REMARK    5  A    between atoms: C_4  and  C_6
REMARK    6  A    between atoms: C_5  and  C_7
REMARK    7  A    between atoms: C_8  and  C_9
REMARK                            x       y       z     vdW  Elec       q    Type
REMARK                         _______ _______ _______ _____ _____    ______ ____
ROOT
ATOM      1  O   UNL     1      -3.342  10.460  11.585  0.00  0.00    +0.000 OA
ATOM      2  C   UNL     1      -2.668   9.504  11.936  0.00  0.00    +0.000 C 
ENDROOT
BRANCH   2   3
ATOM      3  C   UNL     1      -1.283   9.265  11.458  0.00  0.00    +0.000 A 
ATOM      4  C   UNL     1      -0.342  10.275  11.508  0.00  0.00    +0.000 A 
ATOM      5  C   UNL     1      -0.981   8.009  10.968  0.00  0.00    +0.000 A 
ATOM      6  C   UNL     1       0.951  10.020  11.051  0.00  0.00    +0.000 A 
ATOM      7  C   UNL     1       0.312   7.754  10.512  0.00  0.00    +0.000 A 
ATOM      8  C   UNL     1       1.278   8.759  10.553  0.00  0.00    +0.000 A 
ATOM      9  H   UNL     1      -1.706   7.201  10.938  0.00  0.00    +0.000 HD
ATOM     10  H   UNL     1       1.713  10.795  11.077  0.00  0.00    +0.000 HD
ATOM     11  H   UNL     1       0.569   6.771  10.127  0.00  0.00    +0.000 HD
ATOM     12  H   UNL     1       2.284   8.560  10.198  0.00  0.00    +0.000 HD
BRANCH   4  13
ATOM     13  N   UNL     1      -0.654  11.559  12.009  0.00  0.00    +0.000 N 
ATOM     14  H   UNL     1      -1.595  11.791  12.293  0.00  0.00    +0.000 HD
ATOM     15  H   UNL     1       0.071  12.263  12.069  0.00  0.00    +0.000 HD
ENDBRANCH   4  13
ENDBRANCH   2   3
BRANCH   2  16
ATOM     16  O   UNL     1      -3.058   8.524  12.798  0.00  0.00    +0.000 OA
BRANCH  16  17
ATOM     17  C   UNL     1      -2.610   8.657  14.140  0.00  0.00    +0.000 C 
ATOM     18  H   UNL     1      -1.609   9.106  14.146  0.00  0.00    +0.000 HD
ATOM     19  H   UNL     1      -2.562   7.668  14.610  0.00  0.00    +0.000 HD
BRANCH  17  20
ATOM     20  C   UNL     1      -3.585   9.548  14.897  0.00  0.00    +0.000 C 
ATOM     21  H   UNL     1      -4.509   8.990  15.094  0.00  0.00    +0.000 HD
ATOM     22  H   UNL     1      -3.875  10.391  14.259  0.00  0.00    +0.000 HD
BRANCH  20  23
ATOM     23  C   UNL     1      -2.985  10.057  16.205  0.00  0.00    +0.000 C 
ATOM     24  H   UNL     1      -3.714   9.946  17.017  0.00  0.00    +0.000 HD
ATOM     25  H   UNL     1      -2.757  11.126  16.119  0.00  0.00    +0.000 HD
BRANCH  23  26
ATOM     26  C   UNL     1      -1.717   9.301  16.567  0.00  0.00    +0.000 C 
ATOM     27  H   UNL     1      -0.870   9.645  15.966  0.00  0.00    +0.000 HD
ATOM     28  H   UNL     1      -1.468   9.437  17.624  0.00  0.00    +0.000 HD
ATOM     29  H   UNL     1      -1.849   8.230  16.383  0.00  0.00    +0.000 HD
ENDBRANCH  23  26
ENDBRANCH  20  23
ENDBRANCH  17  20
ENDBRANCH  16  17
ENDBRANCH   2  16
TORSDOF 7
ENDMDL
MODEL 3
REMARK VINA RESULT:    -4.374     27.450     28.691
REMARK INTER + INTRA:          -6.733
REMARK INTER:                  -5.842
REMARK INTRA:                  -0.891
REMARK UNBOUND:                -0.825
REMARK  Name = 24433
REMARK  7 active torsions:
REMARK  status: ('A' for Active; 'I' for Inactive)
REMARK    1  A    between atoms: O_1  and  C_6
REMARK    2  A    between atoms: O_1  and  C_9
REMARK    3  A    between atoms: N_3  and  C_10
REMARK    4  A    between atoms: C_4  and  C_5
REMARK    5  A    between atoms: C_4  and  C_6
REMARK    6  A    between atoms: C_5  and  C_7
REMARK    7  A    between atoms: C_8  and  C_9
REMARK                            x       y       z     vdW  Elec       q    Type
REMARK                         _______ _______ _______ _____ _____    ______ ____
ROOT
ATOM      1  O   UNL     1     -15.307 -11.232  -1.620  0.00  0.00    +0.000 OA
ATOM      2  C   UNL     1     -16.107 -10.791  -0.809  0.00  0.00    +0.000 C 
ENDROOT
BRANCH   2   3
ATOM      3  C   UNL     1     -17.528 -10.511  -1.135  0.00  0.00    +0.000 A 
ATOM      4  C   UNL     1     -18.541 -11.171  -0.468  0.00  0.00    +0.000 A 
ATOM      5  C   UNL     1     -17.787  -9.576  -2.119  0.00  0.00    +0.000 A 
ATOM      6  C   UNL     1     -19.866 -10.886  -0.798  0.00  0.00    +0.000 A 
ATOM      7  C   UNL     1     -19.112  -9.291  -2.448  0.00  0.00    +0.000 A 
ATOM      8  C   UNL     1     -20.152  -9.946  -1.788  0.00  0.00    +0.000 A 
ATOM      9  H   UNL     1     -17.000  -9.038  -2.639  0.00  0.00    +0.000 HD
ATOM     10  H   UNL     1     -20.685 -11.389  -0.291  0.00  0.00    +0.000 HD
ATOM     11  H   UNL     1     -19.336  -8.556  -3.216  0.00  0.00    +0.000 HD
ATOM     12  H   UNL     1     -21.183  -9.724  -2.043  0.00  0.00    +0.000 HD
BRANCH   4  13
ATOM     13  N   UNL     1     -18.272 -12.126   0.537  0.00  0.00    +0.000 N 
ATOM     14  H   UNL     1     -17.436 -12.692   0.506  0.00  0.00    +0.000 HD
ATOM     15  H   UNL     1     -18.933 -12.259   1.292  0.00  0.00    +0.000 HD
ENDBRANCH   4  13
ENDBRANCH   2   3
BRANCH   2  16
ATOM     16  O   UNL     1     -15.841 -10.490   0.493  0.00  0.00    +0.000 OA
BRANCH  16  17
ATOM     17  C   UNL     1     -15.615  -9.117   0.783  0.00  0.00    +0.000 C 
ATOM     18  H   UNL     1     -15.813  -8.518  -0.114  0.00  0.00    +0.000 HD
ATOM     19  H   UNL     1     -14.571  -8.974   1.087  0.00  0.00    +0.000 HD
BRANCH  17  20
ATOM     20  C   UNL     1     -16.548  -8.693   1.909  0.00  0.00    +0.000 C 
ATOM     21  H   UNL     1     -17.514  -8.389   1.487  0.00  0.00    +0.000 HD
ATOM     22  H   UNL     1     -16.141  -7.800   2.398  0.00  0.00    +0.000 HD
BRANCH  20  23
ATOM     23  C   UNL     1     -16.745  -9.811   2.929  0.00  0.00    +0.000 C 
ATOM     24  H   UNL     1     -16.096  -9.642   3.797  0.00  0.00    +0.000 HD
ATOM     25  H   UNL     1     -16.453 -10.772   2.489  0.00  0.00    +0.000 HD
BRANCH  23  26
ATOM     26  C   UNL     1     -18.189  -9.891   3.395  0.00  0.00    +0.000 C 
ATOM     27  H   UNL     1     -18.257 -10.355   4.384  0.00  0.00    +0.000 HD
ATOM     28  H   UNL     1     -18.640  -8.895   3.449  0.00  0.00    +0.000 HD
ATOM     29  H   UNL     1     -18.779 -10.494   2.698  0.00  0.00    +0.000 HD
ENDBRANCH  23  26
ENDBRANCH  20  23
ENDBRANCH  17  20
ENDBRANCH  16  17
ENDBRANCH   2  16
TORSDOF 7
ENDMDL
MODEL 4
REMARK VINA RESULT:    -4.353     29.719     30.645
REMARK INTER + INTRA:          -6.704
REMARK INTER:                  -6.153
REMARK INTRA:                  -0.551
REMARK UNBOUND:                -0.825
REMARK  Name = 24433
REMARK  7 active torsions:
REMARK  status: ('A' for Active; 'I' for Inactive)
REMARK    1  A    between atoms: O_1  and  C_6
REMARK    2  A    between atoms: O_1  and  C_9
REMARK    3  A    between atoms: N_3  and  C_10
REMARK    4  A    between atoms: C_4  and  C_5
REMARK    5  A    between atoms: C_4  and  C_6
REMARK    6  A    between atoms: C_5  and  C_7
REMARK    7  A    between atoms: C_8  and  C_9
REMARK                            x       y       z     vdW  Elec       q    Type
REMARK                         _______ _______ _______ _____ _____    ______ ____
ROOT
ATOM      1  O   UNL     1      -3.313 -14.849  -6.158  0.00  0.00    +0.000 OA
ATOM      2  C   UNL     1      -2.124 -14.832  -6.434  0.00  0.00    +0.000 C 
ENDROOT
BRANCH   2   3
ATOM      3  C   UNL     1      -1.551 -13.992  -7.516  0.00  0.00    +0.000 A 
ATOM      4  C   UNL     1      -0.850 -12.842  -7.209  0.00  0.00    +0.000 A 
ATOM      5  C   UNL     1      -1.746 -14.404  -8.820  0.00  0.00    +0.000 A 
ATOM      6  C   UNL     1      -0.323 -12.073  -8.248  0.00  0.00    +0.000 A 
ATOM      7  C   UNL     1      -1.220 -13.635  -9.858  0.00  0.00    +0.000 A 
ATOM      8  C   UNL     1      -0.509 -12.470  -9.572  0.00  0.00    +0.000 A 
ATOM      9  H   UNL     1      -2.281 -15.314  -9.074  0.00  0.00    +0.000 HD
ATOM     10  H   UNL     1       0.233 -11.163  -8.038  0.00  0.00    +0.000 HD
ATOM     11  H   UNL     1      -1.360 -13.945 -10.890  0.00  0.00    +0.000 HD
ATOM     12  H   UNL     1      -0.098 -11.871 -10.379  0.00  0.00    +0.000 HD
BRANCH   4  13
ATOM     13  N   UNL     1      -0.651 -12.423  -5.875  0.00  0.00    +0.000 N 
ATOM     14  H   UNL     1      -0.758 -11.454  -5.613  0.00  0.00    +0.000 HD
ATOM     15  H   UNL     1      -0.383 -13.100  -5.172  0.00  0.00    +0.000 HD
ENDBRANCH   4  13
ENDBRANCH   2   3
BRANCH   2  16
ATOM     16  O   UNL     1      -1.150 -15.559  -5.818  0.00  0.00    +0.000 OA
BRANCH  16  17
ATOM     17  C   UNL     1      -1.280 -15.713  -4.412  0.00  0.00    +0.000 C 
ATOM     18  H   UNL     1      -1.444 -16.772  -4.176  0.00  0.00    +0.000 HD
ATOM     19  H   UNL     1      -2.139 -15.130  -4.058  0.00  0.00    +0.000 HD
BRANCH  17  20
ATOM     20  C   UNL     1      -0.005 -15.221  -3.743  0.00  0.00    +0.000 C 
ATOM     21  H   UNL     1      -0.215 -14.973  -2.695  0.00  0.00    +0.000 HD
ATOM     22  H   UNL     1       0.312 -14.283  -4.214  0.00  0.00    +0.000 HD
BRANCH  20  23
ATOM     23  C   UNL     1       1.112 -16.257  -3.827  0.00  0.00    +0.000 C 
ATOM     24  H   UNL     1       1.328 -16.488  -4.877  0.00  0.00    +0.000 HD
ATOM     25  H   UNL     1       0.790 -17.191  -3.350  0.00  0.00    +0.000 HD
BRANCH  23  26
ATOM     26  C   UNL     1       2.382 -15.763  -3.155  0.00  0.00    +0.000 C 
ATOM     27  H   UNL     1       2.597 -14.727  -3.435  0.00  0.00    +0.000 HD
ATOM     28  H   UNL     1       2.296 -15.814  -2.065  0.00  0.00    +0.000 HD
ATOM     29  H   UNL     1       3.235 -16.379  -3.458  0.00  0.00    +0.000 HD
ENDBRANCH  23  26
ENDBRANCH  20  23
ENDBRANCH  17  20
ENDBRANCH  16  17
ENDBRANCH   2  16
TORSDOF 7
ENDMDL
MODEL 5
REMARK VINA RESULT:    -4.341     26.984     28.503
REMARK INTER + INTRA:          -6.688
REMARK INTER:                  -6.168
REMARK INTRA:                  -0.520
REMARK UNBOUND:                -0.825
REMARK  Name = 24433
REMARK  7 active torsions:
REMARK  status: ('A' for Active; 'I' for Inactive)
REMARK    1  A    between atoms: O_1  and  C_6
REMARK    2  A    between atoms: O_1  and  C_9
REMARK    3  A    between atoms: N_3  and  C_10
REMARK    4  A    between atoms: C_4  and  C_5
REMARK    5  A    between atoms: C_4  and  C_6
REMARK    6  A    between atoms: C_5  and  C_7
REMARK    7  A    between atoms: C_8  and  C_9
REMARK                            x       y       z     vdW  Elec       q    Type
REMARK                         _______ _______ _______ _____ _____    ______ ____
ROOT
ATOM      1  O   UNL     1     -17.717 -13.206   1.855  0.00  0.00    +0.000 OA
ATOM      2  C   UNL     1     -17.994 -12.081   2.242  0.00  0.00    +0.000 C 
ENDROOT
BRANCH   2   3
ATOM      3  C   UNL     1     -17.420 -10.850   1.644  0.00  0.00    +0.000 A 
ATOM      4  C   UNL     1     -16.613 -10.018   2.395  0.00  0.00    +0.000 A 
ATOM      5  C   UNL     1     -17.724 -10.577   0.324  0.00  0.00    +0.000 A 
ATOM      6  C   UNL     1     -16.089  -8.868   1.804  0.00  0.00    +0.000 A 
ATOM      7  C   UNL     1     -17.200  -9.427  -0.267  0.00  0.00    +0.000 A 
ATOM      8  C   UNL     1     -16.383  -8.573   0.473  0.00  0.00    +0.000 A 
ATOM      9  H   UNL     1     -18.343 -11.230  -0.283  0.00  0.00    +0.000 HD
ATOM     10  H   UNL     1     -15.451  -8.194   2.370  0.00  0.00    +0.000 HD
ATOM     11  H   UNL     1     -17.425  -9.198  -1.305  0.00  0.00    +0.000 HD
ATOM     12  H   UNL     1     -15.974  -7.678   0.013  0.00  0.00    +0.000 HD
BRANCH   4  13
ATOM     13  N   UNL     1     -16.304 -10.299   3.745  0.00  0.00    +0.000 N 
ATOM     14  H   UNL     1     -17.028 -10.323   4.449  0.00  0.00    +0.000 HD
ATOM     15  H   UNL     1     -15.343 -10.464   4.015  0.00  0.00    +0.000 HD
ENDBRANCH   4  13
ENDBRANCH   2   3
BRANCH   2  16
ATOM     16  O   UNL     1     -18.847 -11.773   3.258  0.00  0.00    +0.000 OA
BRANCH  16  17
ATOM     17  C   UNL     1     -18.953 -12.734   4.299  0.00  0.00    +0.000 C 
ATOM     18  H   UNL     1     -18.145 -13.470   4.198  0.00  0.00    +0.000 HD
ATOM     19  H   UNL     1     -19.918 -13.249   4.226  0.00  0.00    +0.000 HD
BRANCH  17  20
ATOM     20  C   UNL     1     -18.842 -12.021   5.640  0.00  0.00    +0.000 C 
ATOM     21  H   UNL     1     -19.246 -11.005   5.546  0.00  0.00    +0.000 HD
ATOM     22  H   UNL     1     -17.784 -11.899   5.898  0.00  0.00    +0.000 HD
BRANCH  20  23
ATOM     23  C   UNL     1     -19.572 -12.780   6.744  0.00  0.00    +0.000 C 
ATOM     24  H   UNL     1     -18.897 -12.941   7.594  0.00  0.00    +0.000 HD
ATOM     25  H   UNL     1     -19.873 -13.770   6.379  0.00  0.00    +0.000 HD
BRANCH  23  26
ATOM     26  C   UNL     1     -20.801 -12.026   7.221  0.00  0.00    +0.000 C 
ATOM     27  H   UNL     1     -20.521 -11.083   7.701  0.00  0.00    +0.000 HD
ATOM     28  H   UNL     1     -21.473 -11.801   6.385  0.00  0.00    +0.000 HD
ATOM     29  H   UNL     1     -21.355 -12.625   7.950  0.00  0.00    +0.000 HD
ENDBRANCH  23  26
ENDBRANCH  20  23
ENDBRANCH  17  20
ENDBRANCH  16  17
ENDBRANCH   2  16
TORSDOF 7
ENDMDL
MODEL 6
REMARK VINA RESULT:    -4.195     30.967     32.917
REMARK INTER + INTRA:          -6.491
REMARK INTER:                  -5.929
REMARK INTRA:                  -0.563
REMARK UNBOUND:                -0.825
REMARK  Name = 24433
REMARK  7 active torsions:
REMARK  status: ('A' for Active; 'I' for Inactive)
REMARK    1  A    between atoms: O_1  and  C_6
REMARK    2  A    between atoms: O_1  and  C_9
REMARK    3  A    between atoms: N_3  and  C_10
REMARK    4  A    between atoms: C_4  and  C_5
REMARK    5  A    between atoms: C_4  and  C_6
REMARK    6  A    between atoms: C_5  and  C_7
REMARK    7  A    between atoms: C_8  and  C_9
REMARK                            x       y       z     vdW  Elec       q    Type
REMARK                         _______ _______ _______ _____ _____    ______ ____
ROOT
ATOM      1  O   UNL     1      -2.912   2.923 -20.729  0.00  0.00    +0.000 OA
ATOM      2  C   UNL     1      -1.930   2.399 -20.224  0.00  0.00    +0.000 C 
ENDROOT
BRANCH   2   3
ATOM      3  C   UNL     1      -0.577   2.452 -20.831  0.00  0.00    +0.000 A 
ATOM      4  C   UNL     1      -0.091   3.634 -21.355  0.00  0.00    +0.000 A 
ATOM      5  C   UNL     1       0.164   1.286 -20.849  0.00  0.00    +0.000 A 
ATOM      6  C   UNL     1       1.184   3.652 -21.919  0.00  0.00    +0.000 A 
ATOM      7  C   UNL     1       1.440   1.303 -21.413  0.00  0.00    +0.000 A 
ATOM      8  C   UNL     1       1.950   2.486 -21.948  0.00  0.00    +0.000 A 
ATOM      9  H   UNL     1      -0.199   0.353 -20.427  0.00  0.00    +0.000 HD
ATOM     10  H   UNL     1       1.593   4.567 -22.339  0.00  0.00    +0.000 HD
ATOM     11  H   UNL     1       2.038   0.397 -21.434  0.00  0.00    +0.000 HD
ATOM     12  H   UNL     1       2.943   2.501 -22.387  0.00  0.00    +0.000 HD
BRANCH   4  13
ATOM     13  N   UNL     1      -0.851   4.825 -21.334  0.00  0.00    +0.000 N 
ATOM     14  H   UNL     1      -1.217   5.223 -22.188  0.00  0.00    +0.000 HD
ATOM     15  H   UNL     1      -1.019   5.298 -20.456  0.00  0.00    +0.000 HD
ENDBRANCH   4  13
ENDBRANCH   2   3
BRANCH   2  16
ATOM     16  O   UNL     1      -1.910   1.700 -19.055  0.00  0.00    +0.000 OA
BRANCH  16  17
ATOM     17  C   UNL     1      -2.485   2.347 -17.929  0.00  0.00    +0.000 C 
ATOM     18  H   UNL     1      -2.621   1.618 -17.120  0.00  0.00    +0.000 HD
ATOM     19  H   UNL     1      -3.462   2.763 -18.205  0.00  0.00    +0.000 HD
BRANCH  17  20
ATOM     20  C   UNL     1      -1.554   3.462 -17.474  0.00  0.00    +0.000 C 
ATOM     21  H   UNL     1      -1.769   4.373 -18.048  0.00  0.00    +0.000 HD
ATOM     22  H   UNL     1      -0.520   3.192 -17.718  0.00  0.00    +0.000 HD
BRANCH  20  23
ATOM     23  C   UNL     1      -1.690   3.735 -15.979  0.00  0.00    +0.000 C 
ATOM     24  H   UNL     1      -2.441   3.065 -15.544  0.00  0.00    +0.000 HD
ATOM     25  H   UNL     1      -2.042   4.761 -15.819  0.00  0.00    +0.000 HD
BRANCH  23  26
ATOM     26  C   UNL     1      -0.368   3.539 -15.255  0.00  0.00    +0.000 C 
ATOM     27  H   UNL     1      -0.516   3.509 -14.171  0.00  0.00    +0.000 HD
ATOM     28  H   UNL     1       0.114   2.606 -15.564  0.00  0.00    +0.000 HD
ATOM     29  H   UNL     1       0.313   4.366 -15.480  0.00  0.00    +0.000 HD
ENDBRANCH  23  26
ENDBRANCH  20  23
ENDBRANCH  17  20
ENDBRANCH  16  17
ENDBRANCH   2  16
TORSDOF 7
ENDMDL
MODEL 7
REMARK VINA RESULT:    -4.140     27.293     28.315
REMARK INTER + INTRA:          -6.417
REMARK INTER:                  -5.935
REMARK INTRA:                  -0.482
REMARK UNBOUND:                -0.825
REMARK  Name = 24433
REMARK  7 active torsions:
REMARK  status: ('A' for Active; 'I' for Inactive)
REMARK    1  A    between atoms: O_1  and  C_6
REMARK    2  A    between atoms: O_1  and  C_9
REMARK    3  A    between atoms: N_3  and  C_10
REMARK    4  A    between atoms: C_4  and  C_5
REMARK    5  A    between atoms: C_4  and  C_6
REMARK    6  A    between atoms: C_5  and  C_7
REMARK    7  A    between atoms: C_8  and  C_9
REMARK                            x       y       z     vdW  Elec       q    Type
REMARK                         _______ _______ _______ _____ _____    ______ ____
ROOT
ATOM      1  O   UNL     1     -18.460  -9.408  -1.990  0.00  0.00    +0.000 OA
ATOM      2  C   UNL     1     -17.459  -9.775  -1.393  0.00  0.00    +0.000 C 
ENDROOT
BRANCH   2   3
ATOM      3  C   UNL     1     -17.315  -9.689   0.082  0.00  0.00    +0.000 A 
ATOM      4  C   UNL     1     -18.067 -10.503   0.906  0.00  0.00    +0.000 A 
ATOM      5  C   UNL     1     -16.410  -8.774   0.586  0.00  0.00    +0.000 A 
ATOM      6  C   UNL     1     -17.909 -10.398   2.289  0.00  0.00    +0.000 A 
ATOM      7  C   UNL     1     -16.252  -8.670   1.968  0.00  0.00    +0.000 A 
ATOM      8  C   UNL     1     -17.001  -9.482   2.819  0.00  0.00    +0.000 A 
ATOM      9  H   UNL     1     -15.801  -8.140  -0.051  0.00  0.00    +0.000 HD
ATOM     10  H   UNL     1     -18.487 -11.025   2.963  0.00  0.00    +0.000 HD
ATOM     11  H   UNL     1     -15.543  -7.959   2.382  0.00  0.00    +0.000 HD
ATOM     12  H   UNL     1     -16.878  -9.401   3.895  0.00  0.00    +0.000 HD
BRANCH   4  13
ATOM     13  N   UNL     1     -18.992 -11.437   0.389  0.00  0.00    +0.000 N 
ATOM     14  H   UNL     1     -19.915 -11.148   0.098  0.00  0.00    +0.000 HD
ATOM     15  H   UNL     1     -18.734 -12.413   0.322  0.00  0.00    +0.000 HD
ENDBRANCH   4  13
ENDBRANCH   2   3
BRANCH   2  16
ATOM     16  O   UNL     1     -16.340 -10.308  -1.958  0.00  0.00    +0.000 OA
BRANCH  16  17
ATOM     17  C   UNL     1     -16.529 -10.998  -3.186  0.00  0.00    +0.000 C 
ATOM     18  H   UNL     1     -17.460 -10.657  -3.656  0.00  0.00    +0.000 HD
ATOM     19  H   UNL     1     -16.599 -12.075  -2.994  0.00  0.00    +0.000 HD
BRANCH  17  20
ATOM     20  C   UNL     1     -15.347 -10.707  -4.100  0.00  0.00    +0.000 C 
ATOM     21  H   UNL     1     -14.913  -9.734  -3.836  0.00  0.00    +0.000 HD
ATOM     22  H   UNL     1     -15.705 -10.605  -5.132  0.00  0.00    +0.000 HD
BRANCH  20  23
ATOM     23  C   UNL     1     -14.286 -11.800  -4.014  0.00  0.00    +0.000 C 
ATOM     24  H   UNL     1     -13.840 -11.964  -5.003  0.00  0.00    +0.000 HD
ATOM     25  H   UNL     1     -14.749 -12.745  -3.707  0.00  0.00    +0.000 HD
BRANCH  23  26
ATOM     26  C   UNL     1     -13.189 -11.435  -3.028  0.00  0.00    +0.000 C 
ATOM     27  H   UNL     1     -12.274 -12.001  -3.232  0.00  0.00    +0.000 HD
ATOM     28  H   UNL     1     -12.952 -10.367  -3.081  0.00  0.00    +0.000 HD
ATOM     29  H   UNL     1     -13.507 -11.663  -2.006  0.00  0.00    +0.000 HD
ENDBRANCH  23  26
ENDBRANCH  20  23
ENDBRANCH  17  20
ENDBRANCH  16  17
ENDBRANCH   2  16
TORSDOF 7
ENDMDL
MODEL 8
REMARK VINA RESULT:    -4.136     22.034     24.094
REMARK INTER + INTRA:          -6.412
REMARK INTER:                  -5.675
REMARK INTRA:                  -0.737
REMARK UNBOUND:                -0.825
REMARK  Name = 24433
REMARK  7 active torsions:
REMARK  status: ('A' for Active; 'I' for Inactive)
REMARK    1  A    between atoms: O_1  and  C_6
REMARK    2  A    between atoms: O_1  and  C_9
REMARK    3  A    between atoms: N_3  and  C_10
REMARK    4  A    between atoms: C_4  and  C_5
REMARK    5  A    between atoms: C_4  and  C_6
REMARK    6  A    between atoms: C_5  and  C_7
REMARK    7  A    between atoms: C_8  and  C_9
REMARK                            x       y       z     vdW  Elec       q    Type
REMARK                         _______ _______ _______ _____ _____    ______ ____
ROOT
ATOM      1  O   UNL     1       3.187  16.108 -10.464  0.00  0.00    +0.000 OA
ATOM      2  C   UNL     1       3.368  14.953 -10.111  0.00  0.00    +0.000 C 
ENDROOT
BRANCH   2   3
ATOM      3  C   UNL     1       3.708  13.857 -11.053  0.00  0.00    +0.000 A 
ATOM      4  C   UNL     1       4.496  14.107 -12.160  0.00  0.00    +0.000 A 
ATOM      5  C   UNL     1       3.210  12.598 -10.779  0.00  0.00    +0.000 A 
ATOM      6  C   UNL     1       4.798  13.056 -13.027  0.00  0.00    +0.000 A 
ATOM      7  C   UNL     1       3.512  11.548 -11.646  0.00  0.00    +0.000 A 
ATOM      8  C   UNL     1       4.305  11.777 -12.770  0.00  0.00    +0.000 A 
ATOM      9  H   UNL     1       2.603  12.385  -9.904  0.00  0.00    +0.000 HD
ATOM     10  H   UNL     1       5.415  13.222 -13.906  0.00  0.00    +0.000 HD
ATOM     11  H   UNL     1       3.132  10.550 -11.445  0.00  0.00    +0.000 HD
ATOM     12  H   UNL     1       4.541  10.960 -13.445  0.00  0.00    +0.000 HD
BRANCH   4  13
ATOM     13  N   UNL     1       5.004  15.396 -12.438  0.00  0.00    +0.000 N 
ATOM     14  H   UNL     1       4.517  16.224 -12.126  0.00  0.00    +0.000 HD
ATOM     15  H   UNL     1       5.859  15.494 -12.970  0.00  0.00    +0.000 HD
ENDBRANCH   4  13
ENDBRANCH   2   3
BRANCH   2  16
ATOM     16  O   UNL     1       3.292  14.486  -8.833  0.00  0.00    +0.000 OA
BRANCH  16  17
ATOM     17  C   UNL     1       3.993  15.237  -7.851  0.00  0.00    +0.000 C 
ATOM     18  H   UNL     1       3.543  15.057  -6.867  0.00  0.00    +0.000 HD
ATOM     19  H   UNL     1       3.922  16.305  -8.088  0.00  0.00    +0.000 HD
BRANCH  17  20
ATOM     20  C   UNL     1       5.451  14.800  -7.846  0.00  0.00    +0.000 C 
ATOM     21  H   UNL     1       5.568  13.916  -8.486  0.00  0.00    +0.000 HD
ATOM     22  H   UNL     1       5.727  14.475  -6.835  0.00  0.00    +0.000 HD
BRANCH  20  23
ATOM     23  C   UNL     1       6.377  15.919  -8.313  0.00  0.00    +0.000 C 
ATOM     24  H   UNL     1       7.146  16.107  -7.555  0.00  0.00    +0.000 HD
ATOM     25  H   UNL     1       5.807  16.848  -8.433  0.00  0.00    +0.000 HD
BRANCH  23  26
ATOM     26  C   UNL     1       7.051  15.570  -9.630  0.00  0.00    +0.000 C 
ATOM     27  H   UNL     1       8.036  15.123  -9.460  0.00  0.00    +0.000 HD
ATOM     28  H   UNL     1       6.445  14.863 -10.206  0.00  0.00    +0.000 HD
ATOM     29  H   UNL     1       7.189  16.472 -10.235  0.00  0.00    +0.000 HD
ENDBRANCH  23  26
ENDBRANCH  20  23
ENDBRANCH  17  20
ENDBRANCH  16  17
ENDBRANCH   2  16
TORSDOF 7
ENDMDL
MODEL 9
REMARK VINA RESULT:    -4.125     22.514     24.408
REMARK INTER + INTRA:          -6.397
REMARK INTER:                  -5.707
REMARK INTRA:                  -0.689
REMARK UNBOUND:                -0.825
REMARK  Name = 24433
REMARK  7 active torsions:
REMARK  status: ('A' for Active; 'I' for Inactive)
REMARK    1  A    between atoms: O_1  and  C_6
REMARK    2  A    between atoms: O_1  and  C_9
REMARK    3  A    between atoms: N_3  and  C_10
REMARK    4  A    between atoms: C_4  and  C_5
REMARK    5  A    between atoms: C_4  and  C_6
REMARK    6  A    between atoms: C_5  and  C_7
REMARK    7  A    between atoms: C_8  and  C_9
REMARK                            x       y       z     vdW  Elec       q    Type
REMARK                         _______ _______ _______ _____ _____    ______ ____
ROOT
ATOM      1  O   UNL     1       2.493  14.542 -11.339  0.00  0.00    +0.000 OA
ATOM      2  C   UNL     1       3.276  13.897 -10.658  0.00  0.00    +0.000 C 
ENDROOT
BRANCH   2   3
ATOM      3  C   UNL     1       4.444  14.501  -9.969  0.00  0.00    +0.000 A 
ATOM      4  C   UNL     1       5.477  15.054 -10.700  0.00  0.00    +0.000 A 
ATOM      5  C   UNL     1       4.452  14.485  -8.588  0.00  0.00    +0.000 A 
ATOM      6  C   UNL     1       6.561  15.614 -10.024  0.00  0.00    +0.000 A 
ATOM      7  C   UNL     1       5.536  15.045  -7.911  0.00  0.00    +0.000 A 
ATOM      8  C   UNL     1       6.590  15.609  -8.629  0.00  0.00    +0.000 A 
ATOM      9  H   UNL     1       3.639  14.068  -8.001  0.00  0.00    +0.000 HD
ATOM     10  H   UNL     1       7.389  16.057 -10.571  0.00  0.00    +0.000 HD
ATOM     11  H   UNL     1       5.558  15.045  -6.825  0.00  0.00    +0.000 HD
ATOM     12  H   UNL     1       7.434  16.045  -8.103  0.00  0.00    +0.000 HD
BRANCH   4  13
ATOM     13  N   UNL     1       5.466  15.069 -12.113  0.00  0.00    +0.000 N 
ATOM     14  H   UNL     1       5.321  15.929 -12.622  0.00  0.00    +0.000 HD
ATOM     15  H   UNL     1       5.588  14.204 -12.624  0.00  0.00    +0.000 HD
ENDBRANCH   4  13
ENDBRANCH   2   3
BRANCH   2  16
ATOM     16  O   UNL     1       3.215  12.556 -10.424  0.00  0.00    +0.000 OA
BRANCH  16  17
ATOM     17  C   UNL     1       2.886  11.740 -11.539  0.00  0.00    +0.000 C 
ATOM     18  H   UNL     1       1.987  12.137 -12.028  0.00  0.00    +0.000 HD
ATOM     19  H   UNL     1       2.687  10.717 -11.199  0.00  0.00    +0.000 HD
BRANCH  17  20
ATOM     20  C   UNL     1       4.054  11.747 -12.515  0.00  0.00    +0.000 C 
ATOM     21  H   UNL     1       4.546  10.766 -12.501  0.00  0.00    +0.000 HD
ATOM     22  H   UNL     1       4.809  12.465 -12.170  0.00  0.00    +0.000 HD
BRANCH  20  23
ATOM     23  C   UNL     1       3.605  12.093 -13.931  0.00  0.00    +0.000 C 
ATOM     24  H   UNL     1       2.975  12.991 -13.913  0.00  0.00    +0.000 HD
ATOM     25  H   UNL     1       2.994  11.278 -14.337  0.00  0.00    +0.000 HD
BRANCH  23  26
ATOM     26  C   UNL     1       4.792  12.335 -14.849  0.00  0.00    +0.000 C 
ATOM     27  H   UNL     1       5.001  11.452 -15.461  0.00  0.00    +0.000 HD
ATOM     28  H   UNL     1       4.605  13.182 -15.517  0.00  0.00    +0.000 HD
ATOM     29  H   UNL     1       5.687  12.558 -14.259  0.00  0.00    +0.000 HD
ENDBRANCH  23  26
ENDBRANCH  20  23
ENDBRANCH  17  20
ENDBRANCH  16  17
ENDBRANCH   2  16
TORSDOF 7
ENDMDL
MODEL 10
REMARK VINA RESULT:    -4.060     22.577     24.571
REMARK INTER + INTRA:          -6.308
REMARK INTER:                  -5.484
REMARK INTRA:                  -0.825
REMARK UNBOUND:                -0.825
REMARK  Name = 24433
REMARK  7 active torsions:
REMARK  status: ('A' for Active; 'I' for Inactive)
REMARK    1  A    between atoms: O_1  and  C_6
REMARK    2  A    between atoms: O_1  and  C_9
REMARK    3  A    between atoms: N_3  and  C_10
REMARK    4  A    between atoms: C_4  and  C_5
REMARK    5  A    between atoms: C_4  and  C_6
REMARK    6  A    between atoms: C_5  and  C_7
REMARK    7  A    between atoms: C_8  and  C_9
REMARK                            x       y       z     vdW  Elec       q    Type
REMARK                         _______ _______ _______ _____ _____    ______ ____
ROOT
ATOM      1  O   UNL     1       4.106  16.466 -12.045  0.00  0.00    +0.000 OA
ATOM      2  C   UNL     1       4.756  15.543 -11.578  0.00  0.00    +0.000 C 
ENDROOT
BRANCH   2   3
ATOM      3  C   UNL     1       4.355  14.119 -11.702  0.00  0.00    +0.000 A 
ATOM      4  C   UNL     1       4.778  13.366 -12.780  0.00  0.00    +0.000 A 
ATOM      5  C   UNL     1       3.554  13.589 -10.710  0.00  0.00    +0.000 A 
ATOM      6  C   UNL     1       4.385  12.031 -12.870  0.00  0.00    +0.000 A 
ATOM      7  C   UNL     1       3.160  12.254 -10.799  0.00  0.00    +0.000 A 
ATOM      8  C   UNL     1       3.576  11.475 -11.879  0.00  0.00    +0.000 A 
ATOM      9  H   UNL     1       3.227  14.165  -9.849  0.00  0.00    +0.000 HD
ATOM     10  H   UNL     1       4.702  11.413 -13.706  0.00  0.00    +0.000 HD
ATOM     11  H   UNL     1       2.533  11.819 -10.026  0.00  0.00    +0.000 HD
ATOM     12  H   UNL     1       3.270  10.436 -11.949  0.00  0.00    +0.000 HD
BRANCH   4  13
ATOM     13  N   UNL     1       5.598  13.911 -13.794  0.00  0.00    +0.000 N 
ATOM     14  H   UNL     1       6.494  14.321 -13.573  0.00  0.00    +0.000 HD
ATOM     15  H   UNL     1       5.278  13.907 -14.754  0.00  0.00    +0.000 HD
ENDBRANCH   4  13
ENDBRANCH   2   3
BRANCH   2  16
ATOM     16  O   UNL     1       5.923  15.659 -10.883  0.00  0.00    +0.000 OA
BRANCH  16  17
ATOM     17  C   UNL     1       5.851  16.366  -9.653  0.00  0.00    +0.000 C 
ATOM     18  H   UNL     1       4.805  16.620  -9.441  0.00  0.00    +0.000 HD
ATOM     19  H   UNL     1       6.436  17.291  -9.728  0.00  0.00    +0.000 HD
BRANCH  17  20
ATOM     20  C   UNL     1       6.408  15.484  -8.546  0.00  0.00    +0.000 C 
ATOM     21  H   UNL     1       7.027  16.092  -7.873  0.00  0.00    +0.000 HD
ATOM     22  H   UNL     1       7.085  14.740  -8.982  0.00  0.00    +0.000 HD
BRANCH  20  23
ATOM     23  C   UNL     1       5.297  14.793  -7.762  0.00  0.00    +0.000 C 
ATOM     24  H   UNL     1       5.621  14.620  -6.729  0.00  0.00    +0.000 HD
ATOM     25  H   UNL     1       5.086  13.811  -8.203  0.00  0.00    +0.000 HD
BRANCH  23  26
ATOM     26  C   UNL     1       4.023  15.622  -7.752  0.00  0.00    +0.000 C 
ATOM     27  H   UNL     1       4.025  16.354  -8.566  0.00  0.00    +0.000 HD
ATOM     28  H   UNL     1       3.139  14.986  -7.863  0.00  0.00    +0.000 HD
ATOM     29  H   UNL     1       3.934  16.167  -6.807  0.00  0.00    +0.000 HD
ENDBRANCH  23  26
ENDBRANCH  20  23
ENDBRANCH  17  20
ENDBRANCH  16  17
ENDBRANCH   2  16
TORSDOF 7
ENDMDL
