MODEL 1
REMARK VINA RESULT:    -4.380      0.000      0.000
REMARK INTER + INTRA:          -4.764
REMARK INTER:                  -4.764
REMARK INTRA:                   0.000
REMARK UNBOUND:                 0.000
REMARK  Name = 2537
REMARK  3 active torsions:
REMARK  status: ('A' for Active; 'I' for Inactive)
REMARK    1  A    between atoms: C_2  and  C_9
REMARK    2  A    between atoms: C_2  and  C_10
REMARK    3  A    between atoms: C_3  and  C_11
REMARK                            x       y       z     vdW  Elec       q    Type
REMARK                         _______ _______ _______ _____ _____    ______ ____
ROOT
ATOM      1  O   UNL     1     -15.782 -11.834   3.481  0.00  0.00    +0.000 OA
ATOM      2  C   UNL     1     -17.482 -10.314   0.831  0.00  0.00    +0.000 C 
ATOM      3  C   UNL     1     -16.149 -11.030   1.186  0.00  0.00    +0.000 C 
ATOM      4  C   UNL     1     -17.151  -9.099   1.741  0.00  0.00    +0.000 C 
ATOM      5  C   UNL     1     -15.066  -9.975   0.864  0.00  0.00    +0.000 C 
ATOM      6  C   UNL     1     -15.762  -8.644   1.222  0.00  0.00    +0.000 C 
ATOM      7  C   UNL     1     -16.936  -9.720   3.143  0.00  0.00    +0.000 C 
ATOM      8  C   UNL     1     -16.229 -10.992   2.716  0.00  0.00    +0.000 C 
ATOM      9  H   UNL     1     -17.892  -8.296   1.741  0.00  0.00    +0.000 HD
ATOM     10  H   UNL     1     -14.774  -9.989  -0.192  0.00  0.00    +0.000 HD
ATOM     11  H   UNL     1     -14.158 -10.113   1.463  0.00  0.00    +0.000 HD
ATOM     12  H   UNL     1     -15.199  -8.082   1.975  0.00  0.00    +0.000 HD
ATOM     13  H   UNL     1     -15.856  -8.004   0.339  0.00  0.00    +0.000 HD
ATOM     14  H   UNL     1     -17.877  -9.956   3.643  0.00  0.00    +0.000 HD
ATOM     15  H   UNL     1     -16.295  -9.110   3.783  0.00  0.00    +0.000 HD
ENDROOT
BRANCH   2  16
ATOM     16  C   UNL     1     -17.648  -9.950  -0.658  0.00  0.00    +0.000 C 
ATOM     17  H   UNL     1     -16.893 -10.387  -1.315  0.00  0.00    +0.000 HD
ATOM     18  H   UNL     1     -17.598  -8.864  -0.791  0.00  0.00    +0.000 HD
ATOM     19  H   UNL     1     -18.620 -10.288  -1.033  0.00  0.00    +0.000 HD
ENDBRANCH   2  16
BRANCH   2  20
ATOM     20  C   UNL     1     -18.754 -11.087   1.238  0.00  0.00    +0.000 C 
ATOM     21  H   UNL     1     -18.906 -11.947   0.576  0.00  0.00    +0.000 HD
ATOM     22  H   UNL     1     -19.668 -10.487   1.207  0.00  0.00    +0.000 HD
ATOM     23  H   UNL     1     -18.668 -11.464   2.263  0.00  0.00    +0.000 HD
ENDBRANCH   2  20
BRANCH   3  24
ATOM     24  C   UNL     1     -15.904 -12.399   0.601  0.00  0.00    +0.000 C 
ATOM     25  H   UNL     1     -16.840 -12.873   0.289  0.00  0.00    +0.000 HD
ATOM     26  H   UNL     1     -15.252 -12.338  -0.277  0.00  0.00    +0.000 HD
ATOM     27  H   UNL     1     -15.411 -13.060   1.322  0.00  0.00    +0.000 HD
ENDBRANCH   3  24
TORSDOF 3
ENDMDL
MODEL 2
REMARK VINA RESULT:    -4.076      1.821      3.205
REMARK INTER + INTRA:          -4.434
REMARK INTER:                  -4.434
REMARK INTRA:                   0.000
REMARK UNBOUND:                 0.000
REMARK  Name = 2537
REMARK  3 active torsions:
REMARK  status: ('A' for Active; 'I' for Inactive)
REMARK    1  A    between atoms: C_2  and  C_9
REMARK    2  A    between atoms: C_2  and  C_10
REMARK    3  A    between atoms: C_3  and  C_11
REMARK                            x       y       z     vdW  Elec       q    Type
REMARK                         _______ _______ _______ _____ _____    ______ ____
ROOT
ATOM      1  O   UNL     1     -18.602 -10.268  -0.432  0.00  0.00    +0.000 OA
ATOM      2  C   UNL     1     -16.431 -11.461   2.034  0.00  0.00    +0.000 C 
ATOM      3  C   UNL     1     -17.919 -11.092   1.782  0.00  0.00    +0.000 C 
ATOM      4  C   UNL     1     -15.968  -9.986   1.884  0.00  0.00    +0.000 C 
ATOM      5  C   UNL     1     -18.206  -9.983   2.820  0.00  0.00    +0.000 C 
ATOM      6  C   UNL     1     -16.857  -9.236   2.909  0.00  0.00    +0.000 C 
ATOM      7  C   UNL     1     -16.453  -9.576   0.471  0.00  0.00    +0.000 C 
ATOM      8  C   UNL     1     -17.778 -10.313   0.469  0.00  0.00    +0.000 C 
ATOM      9  H   UNL     1     -14.900  -9.810   2.034  0.00  0.00    +0.000 HD
ATOM     10  H   UNL     1     -18.489 -10.392   3.796  0.00  0.00    +0.000 HD
ATOM     11  H   UNL     1     -19.006  -9.306   2.497  0.00  0.00    +0.000 HD
ATOM     12  H   UNL     1     -16.966  -8.173   2.669  0.00  0.00    +0.000 HD
ATOM     13  H   UNL     1     -16.443  -9.302   3.920  0.00  0.00    +0.000 HD
ATOM     14  H   UNL     1     -15.803  -9.957  -0.319  0.00  0.00    +0.000 HD
ATOM     15  H   UNL     1     -16.602  -8.499   0.369  0.00  0.00    +0.000 HD
ENDROOT
BRANCH   2  16
ATOM     16  C   UNL     1     -16.137 -12.067   3.421  0.00  0.00    +0.000 C 
ATOM     17  H   UNL     1     -16.045 -11.332   4.223  0.00  0.00    +0.000 HD
ATOM     18  H   UNL     1     -15.201 -12.634   3.397  0.00  0.00    +0.000 HD
ATOM     19  H   UNL     1     -16.936 -12.755   3.720  0.00  0.00    +0.000 HD
ENDBRANCH   2  16
BRANCH   2  20
ATOM     20  C   UNL     1     -15.823 -12.428   0.996  0.00  0.00    +0.000 C 
ATOM     21  H   UNL     1     -14.957 -11.967   0.508  0.00  0.00    +0.000 HD
ATOM     22  H   UNL     1     -16.519 -12.730   0.208  0.00  0.00    +0.000 HD
ATOM     23  H   UNL     1     -15.484 -13.351   1.478  0.00  0.00    +0.000 HD
ENDBRANCH   2  20
BRANCH   3  24
ATOM     24  C   UNL     1     -18.929 -12.212   1.745  0.00  0.00    +0.000 C 
ATOM     25  H   UNL     1     -18.456 -13.182   1.929  0.00  0.00    +0.000 HD
ATOM     26  H   UNL     1     -19.701 -12.067   2.509  0.00  0.00    +0.000 HD
ATOM     27  H   UNL     1     -19.439 -12.259   0.777  0.00  0.00    +0.000 HD
ENDBRANCH   3  24
TORSDOF 3
ENDMDL
MODEL 3
REMARK VINA RESULT:    -4.017     25.573     26.880
REMARK INTER + INTRA:          -4.369
REMARK INTER:                  -4.369
REMARK INTRA:                   0.000
REMARK UNBOUND:                 0.000
REMARK  Name = 2537
REMARK  3 active torsions:
REMARK  status: ('A' for Active; 'I' for Inactive)
REMARK    1  A    between atoms: C_2  and  C_9
REMARK    2  A    between atoms: C_2  and  C_10
REMARK    3  A    between atoms: C_3  and  C_11
REMARK                            x       y       z     vdW  Elec       q    Type
REMARK                         _______ _______ _______ _____ _____    ______ ____
ROOT
ATOM      1  O   UNL     1      -3.315   1.897 -15.610  0.00  0.00    +0.000 OA
ATOM      2  C   UNL     1      -2.165   5.171 -16.037  0.00  0.00    +0.000 C 
ATOM      3  C   UNL     1      -1.747   3.688 -16.232  0.00  0.00    +0.000 C 
ATOM      4  C   UNL     1      -2.181   5.034 -14.490  0.00  0.00    +0.000 C 
ATOM      5  C   UNL     1      -0.478   3.543 -15.361  0.00  0.00    +0.000 C 
ATOM      6  C   UNL     1      -0.765   4.488 -14.174  0.00  0.00    +0.000 C 
ATOM      7  C   UNL     1      -3.186   3.887 -14.219  0.00  0.00    +0.000 C 
ATOM      8  C   UNL     1      -2.828   2.997 -15.393  0.00  0.00    +0.000 C 
ATOM      9  H   UNL     1      -2.421   5.947 -13.939  0.00  0.00    +0.000 HD
ATOM     10  H   UNL     1       0.428   3.852 -15.894  0.00  0.00    +0.000 HD
ATOM     11  H   UNL     1      -0.326   2.515 -15.013  0.00  0.00    +0.000 HD
ATOM     12  H   UNL     1      -0.726   3.958 -13.215  0.00  0.00    +0.000 HD
ATOM     13  H   UNL     1      -0.026   5.294 -14.131  0.00  0.00    +0.000 HD
ATOM     14  H   UNL     1      -4.224   4.217 -14.293  0.00  0.00    +0.000 HD
ATOM     15  H   UNL     1      -3.004   3.379 -13.269  0.00  0.00    +0.000 HD
ENDROOT
BRANCH   2  16
ATOM     16  C   UNL     1      -1.150   6.207 -16.559  0.00  0.00    +0.000 C 
ATOM     17  H   UNL     1      -0.781   6.007 -17.567  0.00  0.00    +0.000 HD
ATOM     18  H   UNL     1      -0.276   6.247 -15.900  0.00  0.00    +0.000 HD
ATOM     19  H   UNL     1      -1.595   7.208 -16.583  0.00  0.00    +0.000 HD
ENDBRANCH   2  16
BRANCH   2  20
ATOM     20  C   UNL     1      -3.528   5.542 -16.658  0.00  0.00    +0.000 C 
ATOM     21  H   UNL     1      -3.444   5.614 -17.748  0.00  0.00    +0.000 HD
ATOM     22  H   UNL     1      -3.937   6.491 -16.299  0.00  0.00    +0.000 HD
ATOM     23  H   UNL     1      -4.279   4.777 -16.430  0.00  0.00    +0.000 HD
ENDBRANCH   2  20
BRANCH   3  24
ATOM     24  C   UNL     1      -1.619   3.169 -17.643  0.00  0.00    +0.000 C 
ATOM     25  H   UNL     1      -1.977   3.903 -18.372  0.00  0.00    +0.000 HD
ATOM     26  H   UNL     1      -0.573   2.944 -17.882  0.00  0.00    +0.000 HD
ATOM     27  H   UNL     1      -2.187   2.244 -17.783  0.00  0.00    +0.000 HD
ENDBRANCH   3  24
TORSDOF 3
ENDMDL
MODEL 4
REMARK VINA RESULT:    -3.898      1.457      2.363
REMARK INTER + INTRA:          -4.240
REMARK INTER:                  -4.240
REMARK INTRA:                   0.000
REMARK UNBOUND:                 0.000
REMARK  Name = 2537
REMARK  3 active torsions:
REMARK  status: ('A' for Active; 'I' for Inactive)
REMARK    1  A    between atoms: C_2  and  C_9
REMARK    2  A    between atoms: C_2  and  C_10
REMARK    3  A    between atoms: C_3  and  C_11
REMARK                            x       y       z     vdW  Elec       q    Type
REMARK                         _______ _______ _______ _____ _____    ______ ____
ROOT
ATOM      1  O   UNL     1     -18.832 -13.062   1.911  0.00  0.00    +0.000 OA
ATOM      2  C   UNL     1     -16.668 -10.370   1.373  0.00  0.00    +0.000 C 
ATOM      3  C   UNL     1     -16.685 -11.869   1.778  0.00  0.00    +0.000 C 
ATOM      4  C   UNL     1     -17.400  -9.940   2.674  0.00  0.00    +0.000 C 
ATOM      5  C   UNL     1     -16.038 -11.882   3.181  0.00  0.00    +0.000 C 
ATOM      6  C   UNL     1     -16.509 -10.543   3.790  0.00  0.00    +0.000 C 
ATOM      7  C   UNL     1     -18.720 -10.749   2.654  0.00  0.00    +0.000 C 
ATOM      8  C   UNL     1     -18.178 -12.044   2.080  0.00  0.00    +0.000 C 
ATOM      9  H   UNL     1     -17.562  -8.865   2.789  0.00  0.00    +0.000 HD
ATOM     10  H   UNL     1     -14.944 -11.924   3.133  0.00  0.00    +0.000 HD
ATOM     11  H   UNL     1     -16.377 -12.728   3.790  0.00  0.00    +0.000 HD
ATOM     12  H   UNL     1     -17.057 -10.694   4.727  0.00  0.00    +0.000 HD
ATOM     13  H   UNL     1     -15.655  -9.895   4.013  0.00  0.00    +0.000 HD
ATOM     14  H   UNL     1     -19.464 -10.316   1.983  0.00  0.00    +0.000 HD
ATOM     15  H   UNL     1     -19.137 -10.905   3.651  0.00  0.00    +0.000 HD
ENDROOT
BRANCH   2  16
ATOM     16  C   UNL     1     -15.263  -9.754   1.217  0.00  0.00    +0.000 C 
ATOM     17  H   UNL     1     -14.923  -9.665   0.183  0.00  0.00    +0.000 HD
ATOM     18  H   UNL     1     -14.521 -10.362   1.747  0.00  0.00    +0.000 HD
ATOM     19  H   UNL     1     -15.233  -8.746   1.644  0.00  0.00    +0.000 HD
ENDBRANCH   2  16
BRANCH   2  20
ATOM     20  C   UNL     1     -17.435 -10.045   0.074  0.00  0.00    +0.000 C 
ATOM     21  H   UNL     1     -18.516 -10.117   0.242  0.00  0.00    +0.000 HD
ATOM     22  H   UNL     1     -17.191 -10.704  -0.764  0.00  0.00    +0.000 HD
ATOM     23  H   UNL     1     -17.215  -9.025  -0.262  0.00  0.00    +0.000 HD
ENDBRANCH   2  20
BRANCH   3  24
ATOM     24  C   UNL     1     -16.119 -12.872   0.802  0.00  0.00    +0.000 C 
ATOM     25  H   UNL     1     -15.163 -13.274   1.153  0.00  0.00    +0.000 HD
ATOM     26  H   UNL     1     -16.806 -13.715   0.666  0.00  0.00    +0.000 HD
ATOM     27  H   UNL     1     -15.960 -12.424  -0.184  0.00  0.00    +0.000 HD
ENDBRANCH   3  24
TORSDOF 3
ENDMDL
MODEL 5
REMARK VINA RESULT:    -3.842     25.654     27.057
REMARK INTER + INTRA:          -4.179
REMARK INTER:                  -4.179
REMARK INTRA:                   0.000
REMARK UNBOUND:                 0.000
REMARK  Name = 2537
REMARK  3 active torsions:
REMARK  status: ('A' for Active; 'I' for Inactive)
REMARK    1  A    between atoms: C_2  and  C_9
REMARK    2  A    between atoms: C_2  and  C_10
REMARK    3  A    between atoms: C_3  and  C_11
REMARK                            x       y       z     vdW  Elec       q    Type
REMARK                         _______ _______ _______ _____ _____    ______ ____
ROOT
ATOM      1  O   UNL     1      -1.128   4.672 -12.871  0.00  0.00    +0.000 OA
ATOM      2  C   UNL     1      -1.848   5.088 -16.267  0.00  0.00    +0.000 C 
ATOM      3  C   UNL     1      -2.526   4.879 -14.885  0.00  0.00    +0.000 C 
ATOM      4  C   UNL     1      -1.209   3.673 -16.244  0.00  0.00    +0.000 C 
ATOM      5  C   UNL     1      -3.322   3.565 -15.058  0.00  0.00    +0.000 C 
ATOM      6  C   UNL     1      -2.428   2.743 -16.013  0.00  0.00    +0.000 C 
ATOM      7  C   UNL     1      -0.366   3.656 -14.945  0.00  0.00    +0.000 C 
ATOM      8  C   UNL     1      -1.310   4.445 -14.058  0.00  0.00    +0.000 C 
ATOM      9  H   UNL     1      -0.628   3.404 -17.130  0.00  0.00    +0.000 HD
ATOM     10  H   UNL     1      -4.310   3.734 -15.499  0.00  0.00    +0.000 HD
ATOM     11  H   UNL     1      -3.466   3.037 -14.108  0.00  0.00    +0.000 HD
ATOM     12  H   UNL     1      -2.143   1.781 -15.573  0.00  0.00    +0.000 HD
ATOM     13  H   UNL     1      -2.952   2.531 -16.950  0.00  0.00    +0.000 HD
ATOM     14  H   UNL     1       0.583   4.184 -15.057  0.00  0.00    +0.000 HD
ATOM     15  H   UNL     1      -0.209   2.648 -14.554  0.00  0.00    +0.000 HD
ENDROOT
BRANCH   2  16
ATOM     16  C   UNL     1      -2.822   5.312 -17.441  0.00  0.00    +0.000 C 
ATOM     17  H   UNL     1      -2.335   5.530 -18.394  0.00  0.00    +0.000 HD
ATOM     18  H   UNL     1      -3.492   6.151 -17.224  0.00  0.00    +0.000 HD
ATOM     19  H   UNL     1      -3.442   4.423 -17.605  0.00  0.00    +0.000 HD
ENDBRANCH   2  16
BRANCH   2  20
ATOM     20  C   UNL     1      -0.830   6.246 -16.316  0.00  0.00    +0.000 C 
ATOM     21  H   UNL     1      -0.943   6.815 -17.245  0.00  0.00    +0.000 HD
ATOM     22  H   UNL     1       0.214   5.924 -16.257  0.00  0.00    +0.000 HD
ATOM     23  H   UNL     1      -0.988   6.937 -15.479  0.00  0.00    +0.000 HD
ENDBRANCH   2  20
BRANCH   3  24
ATOM     24  C   UNL     1      -3.308   6.029 -14.299  0.00  0.00    +0.000 C 
ATOM     25  H   UNL     1      -3.046   6.976 -14.782  0.00  0.00    +0.000 HD
ATOM     26  H   UNL     1      -4.385   5.875 -14.428  0.00  0.00    +0.000 HD
ATOM     27  H   UNL     1      -3.123   6.132 -13.225  0.00  0.00    +0.000 HD
ENDBRANCH   3  24
TORSDOF 3
ENDMDL
MODEL 6
REMARK VINA RESULT:    -3.766     30.180     31.391
REMARK INTER + INTRA:          -4.096
REMARK INTER:                  -4.096
REMARK INTRA:                   0.000
REMARK UNBOUND:                 0.000
REMARK  Name = 2537
REMARK  3 active torsions:
REMARK  status: ('A' for Active; 'I' for Inactive)
REMARK    1  A    between atoms: C_2  and  C_9
REMARK    2  A    between atoms: C_2  and  C_10
REMARK    3  A    between atoms: C_3  and  C_11
REMARK                            x       y       z     vdW  Elec       q    Type
REMARK                         _______ _______ _______ _____ _____    ______ ____
ROOT
ATOM      1  O   UNL     1      -0.630  -0.162 -22.096  0.00  0.00    +0.000 OA
ATOM      2  C   UNL     1      -0.364   3.213 -21.224  0.00  0.00    +0.000 C 
ATOM      3  C   UNL     1      -0.824   2.274 -22.373  0.00  0.00    +0.000 C 
ATOM      4  C   UNL     1       1.125   2.807 -21.396  0.00  0.00    +0.000 C 
ATOM      5  C   UNL     1       0.057   2.696 -23.571  0.00  0.00    +0.000 C 
ATOM      6  C   UNL     1       1.392   3.086 -22.898  0.00  0.00    +0.000 C 
ATOM      7  C   UNL     1       1.125   1.269 -21.209  0.00  0.00    +0.000 C 
ATOM      8  C   UNL     1      -0.182   0.960 -21.913  0.00  0.00    +0.000 C 
ATOM      9  H   UNL     1       1.831   3.315 -20.734  0.00  0.00    +0.000 HD
ATOM     10  H   UNL     1      -0.365   3.546 -24.118  0.00  0.00    +0.000 HD
ATOM     11  H   UNL     1       0.207   1.879 -24.287  0.00  0.00    +0.000 HD
ATOM     12  H   UNL     1       2.230   2.499 -23.289  0.00  0.00    +0.000 HD
ATOM     13  H   UNL     1       1.622   4.141 -23.073  0.00  0.00    +0.000 HD
ATOM     14  H   UNL     1       1.070   0.978 -20.158  0.00  0.00    +0.000 HD
ATOM     15  H   UNL     1       1.965   0.781 -21.707  0.00  0.00    +0.000 HD
ENDROOT
BRANCH   2  16
ATOM     16  C   UNL     1      -0.631   4.712 -21.464  0.00  0.00    +0.000 C 
ATOM     17  H   UNL     1      -1.198   5.201 -20.669  0.00  0.00    +0.000 HD
ATOM     18  H   UNL     1      -1.194   4.854 -22.393  0.00  0.00    +0.000 HD
ATOM     19  H   UNL     1       0.312   5.263 -21.558  0.00  0.00    +0.000 HD
ENDBRANCH   2  16
BRANCH   2  20
ATOM     20  C   UNL     1      -0.961   2.877 -19.841  0.00  0.00    +0.000 C 
ATOM     21  H   UNL     1      -1.771   2.146 -19.943  0.00  0.00    +0.000 HD
ATOM     22  H   UNL     1      -1.367   3.742 -19.309  0.00  0.00    +0.000 HD
ATOM     23  H   UNL     1      -0.198   2.442 -19.185  0.00  0.00    +0.000 HD
ENDBRANCH   2  20
BRANCH   3  24
ATOM     24  C   UNL     1      -2.302   2.185 -22.665  0.00  0.00    +0.000 C 
ATOM     25  H   UNL     1      -2.783   1.412 -22.056  0.00  0.00    +0.000 HD
ATOM     26  H   UNL     1      -2.800   3.137 -22.451  0.00  0.00    +0.000 HD
ATOM     27  H   UNL     1      -2.488   1.954 -23.719  0.00  0.00    +0.000 HD
ENDBRANCH   3  24
TORSDOF 3
ENDMDL
MODEL 7
REMARK VINA RESULT:    -3.697     31.996     33.634
REMARK INTER + INTRA:          -4.021
REMARK INTER:                  -4.021
REMARK INTRA:                   0.000
REMARK UNBOUND:                 0.000
REMARK  Name = 2537
REMARK  3 active torsions:
REMARK  status: ('A' for Active; 'I' for Inactive)
REMARK    1  A    between atoms: C_2  and  C_9
REMARK    2  A    between atoms: C_2  and  C_10
REMARK    3  A    between atoms: C_3  and  C_11
REMARK                            x       y       z     vdW  Elec       q    Type
REMARK                         _______ _______ _______ _____ _____    ______ ____
ROOT
ATOM      1  O   UNL     1       3.978  15.630 -12.412  0.00  0.00    +0.000 OA
ATOM      2  C   UNL     1       2.821  12.483 -11.422  0.00  0.00    +0.000 C 
ATOM      3  C   UNL     1       2.330  13.894 -11.850  0.00  0.00    +0.000 C 
ATOM      4  C   UNL     1       3.446  13.025 -10.107  0.00  0.00    +0.000 C 
ATOM      5  C   UNL     1       1.507  14.383 -10.637  0.00  0.00    +0.000 C 
ATOM      6  C   UNL     1       2.260  13.766  -9.438  0.00  0.00    +0.000 C 
ATOM      7  C   UNL     1       4.452  14.104 -10.580  0.00  0.00    +0.000 C 
ATOM      8  C   UNL     1       3.640  14.679 -11.724  0.00  0.00    +0.000 C 
ATOM      9  H   UNL     1       3.903  12.274  -9.459  0.00  0.00    +0.000 HD
ATOM     10  H   UNL     1       0.471  14.029 -10.668  0.00  0.00    +0.000 HD
ATOM     11  H   UNL     1       1.484  15.476 -10.561  0.00  0.00    +0.000 HD
ATOM     12  H   UNL     1       2.593  14.533  -8.730  0.00  0.00    +0.000 HD
ATOM     13  H   UNL     1       1.615  13.072  -8.888  0.00  0.00    +0.000 HD
ATOM     14  H   UNL     1       5.383  13.671 -10.952  0.00  0.00    +0.000 HD
ATOM     15  H   UNL     1       4.651  14.862  -9.818  0.00  0.00    +0.000 HD
ENDROOT
BRANCH   2  16
ATOM     16  C   UNL     1       1.704  11.446 -11.198  0.00  0.00    +0.000 C 
ATOM     17  H   UNL     1       1.014  11.338 -12.038  0.00  0.00    +0.000 HD
ATOM     18  H   UNL     1       1.103  11.717 -10.323  0.00  0.00    +0.000 HD
ATOM     19  H   UNL     1       2.129  10.452 -11.015  0.00  0.00    +0.000 HD
ENDBRANCH   2  16
BRANCH   2  20
ATOM     20  C   UNL     1       3.835  11.835 -12.389  0.00  0.00    +0.000 C 
ATOM     21  H   UNL     1       3.323  11.150 -13.075  0.00  0.00    +0.000 HD
ATOM     22  H   UNL     1       4.624  11.265 -11.890  0.00  0.00    +0.000 HD
ATOM     23  H   UNL     1       4.339  12.598 -12.992  0.00  0.00    +0.000 HD
ENDBRANCH   2  20
BRANCH   3  24
ATOM     24  C   UNL     1       1.642  14.027 -13.187  0.00  0.00    +0.000 C 
ATOM     25  H   UNL     1       0.614  13.652 -13.145  0.00  0.00    +0.000 HD
ATOM     26  H   UNL     1       1.602  15.076 -13.502  0.00  0.00    +0.000 HD
ATOM     27  H   UNL     1       2.175  13.476 -13.968  0.00  0.00    +0.000 HD
ENDBRANCH   3  24
TORSDOF 3
ENDMDL
MODEL 8
REMARK VINA RESULT:    -3.679     31.763     33.210
REMARK INTER + INTRA:          -4.001
REMARK INTER:                  -4.001
REMARK INTRA:                   0.000
REMARK UNBOUND:                 0.000
REMARK  Name = 2537
REMARK  3 active torsions:
REMARK  status: ('A' for Active; 'I' for Inactive)
REMARK    1  A    between atoms: C_2  and  C_9
REMARK    2  A    between atoms: C_2  and  C_10
REMARK    3  A    between atoms: C_3  and  C_11
REMARK                            x       y       z     vdW  Elec       q    Type
REMARK                         _______ _______ _______ _____ _____    ______ ____
ROOT
ATOM      1  O   UNL     1       0.610  13.595 -13.375  0.00  0.00    +0.000 OA
ATOM      2  C   UNL     1       2.663  13.217 -10.571  0.00  0.00    +0.000 C 
ATOM      3  C   UNL     1       2.634  13.831 -11.998  0.00  0.00    +0.000 C 
ATOM      4  C   UNL     1       2.597  11.765 -11.121  0.00  0.00    +0.000 C 
ATOM      5  C   UNL     1       3.800  13.127 -12.728  0.00  0.00    +0.000 C 
ATOM      6  C   UNL     1       3.792  11.713 -12.108  0.00  0.00    +0.000 C 
ATOM      7  C   UNL     1       1.301  11.737 -11.968  0.00  0.00    +0.000 C 
ATOM      8  C   UNL     1       1.393  13.129 -12.562  0.00  0.00    +0.000 C 
ATOM      9  H   UNL     1       2.630  10.975 -10.367  0.00  0.00    +0.000 HD
ATOM     10  H   UNL     1       4.760  13.624 -12.551  0.00  0.00    +0.000 HD
ATOM     11  H   UNL     1       3.645  13.079 -13.812  0.00  0.00    +0.000 HD
ATOM     12  H   UNL     1       3.669  10.936 -12.871  0.00  0.00    +0.000 HD
ATOM     13  H   UNL     1       4.733  11.512 -11.586  0.00  0.00    +0.000 HD
ATOM     14  H   UNL     1       0.404  11.643 -11.353  0.00  0.00    +0.000 HD
ATOM     15  H   UNL     1       1.321  10.974 -12.749  0.00  0.00    +0.000 HD
ENDROOT
BRANCH   2  16
ATOM     16  C   UNL     1       3.938  13.518  -9.760  0.00  0.00    +0.000 C 
ATOM     17  H   UNL     1       4.258  14.561  -9.794  0.00  0.00    +0.000 HD
ATOM     18  H   UNL     1       4.775  12.914 -10.130  0.00  0.00    +0.000 HD
ATOM     19  H   UNL     1       3.792  13.271  -8.702  0.00  0.00    +0.000 HD
ENDBRANCH   2  16
BRANCH   2  20
ATOM     20  C   UNL     1       1.470  13.613  -9.675  0.00  0.00    +0.000 C 
ATOM     21  H   UNL     1       1.824  13.930  -8.688  0.00  0.00    +0.000 HD
ATOM     22  H   UNL     1       0.745  12.810  -9.518  0.00  0.00    +0.000 HD
ATOM     23  H   UNL     1       0.915  14.448 -10.117  0.00  0.00    +0.000 HD
ENDBRANCH   2  20
BRANCH   3  24
ATOM     24  C   UNL     1       2.616  15.335 -12.120  0.00  0.00    +0.000 C 
ATOM     25  H   UNL     1       2.276  15.651 -13.112  0.00  0.00    +0.000 HD
ATOM     26  H   UNL     1       1.941  15.779 -11.379  0.00  0.00    +0.000 HD
ATOM     27  H   UNL     1       3.609  15.762 -11.947  0.00  0.00    +0.000 HD
ENDBRANCH   3  24
TORSDOF 3
ENDMDL
MODEL 9
REMARK VINA RESULT:    -3.621     36.714     38.034
REMARK INTER + INTRA:          -3.939
REMARK INTER:                  -3.939
REMARK INTRA:                   0.000
REMARK UNBOUND:                 0.000
REMARK  Name = 2537
REMARK  3 active torsions:
REMARK  status: ('A' for Active; 'I' for Inactive)
REMARK    1  A    between atoms: C_2  and  C_9
REMARK    2  A    between atoms: C_2  and  C_10
REMARK    3  A    between atoms: C_3  and  C_11
REMARK                            x       y       z     vdW  Elec       q    Type
REMARK                         _______ _______ _______ _____ _____    ______ ____
ROOT
ATOM      1  O   UNL     1       8.451  18.889   5.595  0.00  0.00    +0.000 OA
ATOM      2  C   UNL     1       8.978  16.566   3.035  0.00  0.00    +0.000 C 
ATOM      3  C   UNL     1       9.184  16.781   4.560  0.00  0.00    +0.000 C 
ATOM      4  C   UNL     1       9.994  17.683   2.671  0.00  0.00    +0.000 C 
ATOM      5  C   UNL     1      10.713  16.657   4.748  0.00  0.00    +0.000 C 
ATOM      6  C   UNL     1      11.272  17.255   3.439  0.00  0.00    +0.000 C 
ATOM      7  C   UNL     1       9.440  18.947   3.374  0.00  0.00    +0.000 C 
ATOM      8  C   UNL     1       8.943  18.292   4.648  0.00  0.00    +0.000 C 
ATOM      9  H   UNL     1      10.167  17.833   1.603  0.00  0.00    +0.000 HD
ATOM     10  H   UNL     1      11.033  15.616   4.868  0.00  0.00    +0.000 HD
ATOM     11  H   UNL     1      11.073  17.218   5.618  0.00  0.00    +0.000 HD
ATOM     12  H   UNL     1      11.945  18.098   3.633  0.00  0.00    +0.000 HD
ATOM     13  H   UNL     1      11.841  16.505   2.880  0.00  0.00    +0.000 HD
ATOM     14  H   UNL     1       8.609  19.397   2.827  0.00  0.00    +0.000 HD
ATOM     15  H   UNL     1      10.213  19.688   3.588  0.00  0.00    +0.000 HD
ENDROOT
BRANCH   2  16
ATOM     16  C   UNL     1       9.376  15.171   2.516  0.00  0.00    +0.000 C 
ATOM     17  H   UNL     1      10.173  15.178   1.770  0.00  0.00    +0.000 HD
ATOM     18  H   UNL     1       8.512  14.676   2.057  0.00  0.00    +0.000 HD
ATOM     19  H   UNL     1       9.725  14.536   3.339  0.00  0.00    +0.000 HD
ENDBRANCH   2  16
BRANCH   2  20
ATOM     20  C   UNL     1       7.541  16.826   2.537  0.00  0.00    +0.000 C 
ATOM     21  H   UNL     1       7.557  17.437   1.628  0.00  0.00    +0.000 HD
ATOM     22  H   UNL     1       6.904  17.340   3.263  0.00  0.00    +0.000 HD
ATOM     23  H   UNL     1       7.037  15.883   2.297  0.00  0.00    +0.000 HD
ENDBRANCH   2  20
BRANCH   3  24
ATOM     24  C   UNL     1       8.352  15.954   5.510  0.00  0.00    +0.000 C 
ATOM     25  H   UNL     1       7.312  16.296   5.530  0.00  0.00    +0.000 HD
ATOM     26  H   UNL     1       8.351  14.900   5.211  0.00  0.00    +0.000 HD
ATOM     27  H   UNL     1       8.747  15.999   6.530  0.00  0.00    +0.000 HD
ENDBRANCH   3  24
TORSDOF 3
ENDMDL
MODEL 10
REMARK VINA RESULT:    -3.615     26.807     28.455
REMARK INTER + INTRA:          -3.932
REMARK INTER:                  -3.932
REMARK INTRA:                   0.000
REMARK UNBOUND:                 0.000
REMARK  Name = 2537
REMARK  3 active torsions:
REMARK  status: ('A' for Active; 'I' for Inactive)
REMARK    1  A    between atoms: C_2  and  C_9
REMARK    2  A    between atoms: C_2  and  C_10
REMARK    3  A    between atoms: C_3  and  C_11
REMARK                            x       y       z     vdW  Elec       q    Type
REMARK                         _______ _______ _______ _____ _____    ______ ____
ROOT
ATOM      1  O   UNL     1      -2.992  10.448  10.395  0.00  0.00    +0.000 OA
ATOM      2  C   UNL     1       0.471  10.904  10.253  0.00  0.00    +0.000 C 
ATOM      3  C   UNL     1      -0.641  10.187  11.067  0.00  0.00    +0.000 C 
ATOM      4  C   UNL     1      -0.022  12.311  10.690  0.00  0.00    +0.000 C 
ATOM      5  C   UNL     1      -0.480  10.756  12.495  0.00  0.00    +0.000 C 
ATOM      6  C   UNL     1      -0.031  12.211  12.237  0.00  0.00    +0.000 C 
ATOM      7  C   UNL     1      -1.499  12.359  10.226  0.00  0.00    +0.000 C 
ATOM      8  C   UNL     1      -1.875  10.923  10.534  0.00  0.00    +0.000 C 
ATOM      9  H   UNL     1       0.568  13.152  10.319  0.00  0.00    +0.000 HD
ATOM     10  H   UNL     1       0.273  10.214  13.076  0.00  0.00    +0.000 HD
ATOM     11  H   UNL     1      -1.419  10.733  13.061  0.00  0.00    +0.000 HD
ATOM     12  H   UNL     1      -0.713  12.934  12.698  0.00  0.00    +0.000 HD
ATOM     13  H   UNL     1       0.965  12.390  12.655  0.00  0.00    +0.000 HD
ATOM     14  H   UNL     1      -1.593  12.557   9.156  0.00  0.00    +0.000 HD
ATOM     15  H   UNL     1      -2.104  13.058  10.807  0.00  0.00    +0.000 HD
ENDROOT
BRANCH   2  16
ATOM     16  C   UNL     1       1.911  10.584  10.697  0.00  0.00    +0.000 C 
ATOM     17  H   UNL     1       2.377  11.360  11.307  0.00  0.00    +0.000 HD
ATOM     18  H   UNL     1       2.555  10.435   9.823  0.00  0.00    +0.000 HD
ATOM     19  H   UNL     1       1.938   9.663  11.291  0.00  0.00    +0.000 HD
ENDBRANCH   2  16
BRANCH   2  20
ATOM     20  C   UNL     1       0.416  10.655   8.731  0.00  0.00    +0.000 C 
ATOM     21  H   UNL     1      -0.575  10.288   8.440  0.00  0.00    +0.000 HD
ATOM     22  H   UNL     1       1.150   9.928   8.372  0.00  0.00    +0.000 HD
ATOM     23  H   UNL     1       0.605  11.583   8.179  0.00  0.00    +0.000 HD
ENDBRANCH   2  20
BRANCH   3  24
ATOM     24  C   UNL     1      -0.720   8.682  10.983  0.00  0.00    +0.000 C 
ATOM     25  H   UNL     1      -1.344   8.269  11.782  0.00  0.00    +0.000 HD
ATOM     26  H   UNL     1      -1.152   8.367  10.026  0.00  0.00    +0.000 HD
ATOM     27  H   UNL     1       0.272   8.225  11.054  0.00  0.00    +0.000 HD
ENDBRANCH   3  24
TORSDOF 3
ENDMDL
