MODEL 1
REMARK VINA RESULT:    -5.520      0.000      0.000
REMARK INTER + INTRA:          -6.499
REMARK INTER:                  -6.300
REMARK INTRA:                  -0.199
REMARK UNBOUND:                -0.172
REMARK  Name = 10106
REMARK  4 active torsions:
REMARK  status: ('A' for Active; 'I' for Inactive)
REMARK    1  A    between atoms: C_2  and  C_8
REMARK    2  A    between atoms: C_3  and  C_9
REMARK    3  A    between atoms: C_8  and  C_10
REMARK    4  A    between atoms: C_8  and  C_11
REMARK                            x       y       z     vdW  Elec       q    Type
REMARK                         _______ _______ _______ _____ _____    ______ ____
ROOT
ATOM      1  O   UNL     1       8.345  -0.670  -4.104  0.00  0.00    +0.000 OA
ATOM      2  C   UNL     1       7.329  -0.513  -3.084  0.00  0.00    +0.000 C 
ATOM      3  C   UNL     1       9.435  -1.010  -3.212  0.00  0.00    +0.000 C 
ATOM      4  C   UNL     1       7.964   0.556  -2.186  0.00  0.00    +0.000 C 
ATOM      5  C   UNL     1       7.376  -1.881  -2.395  0.00  0.00    +0.000 C 
ATOM      6  C   UNL     1       9.451   0.204  -2.276  0.00  0.00    +0.000 C 
ATOM      7  C   UNL     1       8.862  -2.233  -2.487  0.00  0.00    +0.000 C 
ATOM      8  H   UNL     1       7.595   0.520  -1.156  0.00  0.00    +0.000 HD
ATOM      9  H   UNL     1       7.830   1.576  -2.554  0.00  0.00    +0.000 HD
ATOM     10  H   UNL     1       6.793  -2.629  -2.945  0.00  0.00    +0.000 HD
ATOM     11  H   UNL     1       7.015  -1.857  -1.363  0.00  0.00    +0.000 HD
ATOM     12  H   UNL     1       9.996   1.044  -2.722  0.00  0.00    +0.000 HD
ATOM     13  H   UNL     1       9.897  -0.014  -1.301  0.00  0.00    +0.000 HD
ATOM     14  H   UNL     1       9.320  -2.401  -1.508  0.00  0.00    +0.000 HD
ATOM     15  H   UNL     1       8.983  -3.145  -3.082  0.00  0.00    +0.000 HD
ENDROOT
BRANCH   3  16
ATOM     16  C   UNL     1      10.730  -1.260  -3.950  0.00  0.00    +0.000 C 
ATOM     17  H   UNL     1      11.264  -2.121  -3.537  0.00  0.00    +0.000 HD
ATOM     18  H   UNL     1      10.544  -1.439  -5.014  0.00  0.00    +0.000 HD
ATOM     19  H   UNL     1      11.385  -0.383  -3.895  0.00  0.00    +0.000 HD
ENDBRANCH   3  16
BRANCH   2  20
ATOM     20  C   UNL     1       5.984  -0.138  -3.659  0.00  0.00    +0.000 C 
ATOM     21  H   UNL     1       5.240  -0.878  -3.338  0.00  0.00    +0.000 HD
BRANCH  20  22
ATOM     22  C   UNL     1       5.540   1.248  -3.174  0.00  0.00    +0.000 C 
ATOM     23  H   UNL     1       6.389   1.925  -3.037  0.00  0.00    +0.000 HD
ATOM     24  H   UNL     1       4.867   1.708  -3.906  0.00  0.00    +0.000 HD
ATOM     25  H   UNL     1       4.996   1.182  -2.227  0.00  0.00    +0.000 HD
ENDBRANCH  20  22
BRANCH  20  26
ATOM     26  C   UNL     1       6.007  -0.172  -5.192  0.00  0.00    +0.000 C 
ATOM     27  H   UNL     1       6.207   0.808  -5.634  0.00  0.00    +0.000 HD
ATOM     28  H   UNL     1       5.030  -0.495  -5.570  0.00  0.00    +0.000 HD
ATOM     29  H   UNL     1       6.749  -0.882  -5.571  0.00  0.00    +0.000 HD
ENDBRANCH  20  26
ENDBRANCH   2  20
TORSDOF 4
ENDMDL
MODEL 2
REMARK VINA RESULT:    -5.494      1.996      3.795
REMARK INTER + INTRA:          -6.469
REMARK INTER:                  -6.291
REMARK INTRA:                  -0.178
REMARK UNBOUND:                -0.172
REMARK  Name = 10106
REMARK  4 active torsions:
REMARK  status: ('A' for Active; 'I' for Inactive)
REMARK    1  A    between atoms: C_2  and  C_8
REMARK    2  A    between atoms: C_3  and  C_9
REMARK    3  A    between atoms: C_8  and  C_10
REMARK    4  A    between atoms: C_8  and  C_11
REMARK                            x       y       z     vdW  Elec       q    Type
REMARK                         _______ _______ _______ _____ _____    ______ ____
ROOT
ATOM      1  O   UNL     1       6.299   1.468  -2.661  0.00  0.00    +0.000 OA
ATOM      2  C   UNL     1       7.207   0.872  -1.703  0.00  0.00    +0.000 C 
ATOM      3  C   UNL     1       6.012   0.258  -3.404  0.00  0.00    +0.000 C 
ATOM      4  C   UNL     1       8.263   0.257  -2.629  0.00  0.00    +0.000 C 
ATOM      5  C   UNL     1       6.328  -0.226  -1.095  0.00  0.00    +0.000 C 
ATOM      6  C   UNL     1       7.418  -0.177  -3.829  0.00  0.00    +0.000 C 
ATOM      7  C   UNL     1       5.484  -0.659  -2.295  0.00  0.00    +0.000 C 
ATOM      8  H   UNL     1       8.790  -0.587  -2.171  0.00  0.00    +0.000 HD
ATOM      9  H   UNL     1       9.013   0.971  -2.977  0.00  0.00    +0.000 HD
ATOM     10  H   UNL     1       5.669   0.170  -0.314  0.00  0.00    +0.000 HD
ATOM     11  H   UNL     1       6.904  -1.053  -0.669  0.00  0.00    +0.000 HD
ATOM     12  H   UNL     1       7.751   0.365  -4.721  0.00  0.00    +0.000 HD
ATOM     13  H   UNL     1       7.490  -1.250  -4.035  0.00  0.00    +0.000 HD
ATOM     14  H   UNL     1       5.595  -1.722  -2.531  0.00  0.00    +0.000 HD
ATOM     15  H   UNL     1       4.426  -0.465  -2.083  0.00  0.00    +0.000 HD
ENDROOT
BRANCH   3  16
ATOM     16  C   UNL     1       5.048   0.494  -4.544  0.00  0.00    +0.000 C 
ATOM     17  H   UNL     1       4.633   1.506  -4.512  0.00  0.00    +0.000 HD
ATOM     18  H   UNL     1       5.543   0.347  -5.509  0.00  0.00    +0.000 HD
ATOM     19  H   UNL     1       4.222  -0.225  -4.510  0.00  0.00    +0.000 HD
ENDBRANCH   3  16
BRANCH   2  20
ATOM     20  C   UNL     1       7.743   1.877  -0.710  0.00  0.00    +0.000 C 
ATOM     21  H   UNL     1       8.412   2.573  -1.234  0.00  0.00    +0.000 HD
BRANCH  20  22
ATOM     22  C   UNL     1       6.607   2.678  -0.063  0.00  0.00    +0.000 C 
ATOM     23  H   UNL     1       5.686   2.632  -0.652  0.00  0.00    +0.000 HD
ATOM     24  H   UNL     1       6.382   2.279   0.932  0.00  0.00    +0.000 HD
ATOM     25  H   UNL     1       6.883   3.730   0.062  0.00  0.00    +0.000 HD
ENDBRANCH  20  22
BRANCH  20  26
ATOM     26  C   UNL     1       8.583   1.191   0.374  0.00  0.00    +0.000 C 
ATOM     27  H   UNL     1       8.018   0.439   0.933  0.00  0.00    +0.000 HD
ATOM     28  H   UNL     1       8.926   1.934   1.102  0.00  0.00    +0.000 HD
ATOM     29  H   UNL     1       9.476   0.715  -0.044  0.00  0.00    +0.000 HD
ENDBRANCH  20  26
ENDBRANCH   2  20
TORSDOF 4
ENDMDL
MODEL 3
REMARK VINA RESULT:    -5.475      1.961      3.657
REMARK INTER + INTRA:          -6.447
REMARK INTER:                  -6.276
REMARK INTRA:                  -0.171
REMARK UNBOUND:                -0.172
REMARK  Name = 10106
REMARK  4 active torsions:
REMARK  status: ('A' for Active; 'I' for Inactive)
REMARK    1  A    between atoms: C_2  and  C_8
REMARK    2  A    between atoms: C_3  and  C_9
REMARK    3  A    between atoms: C_8  and  C_10
REMARK    4  A    between atoms: C_8  and  C_11
REMARK                            x       y       z     vdW  Elec       q    Type
REMARK                         _______ _______ _______ _____ _____    ______ ____
ROOT
ATOM      1  O   UNL     1       6.462  -0.405  -1.201  0.00  0.00    +0.000 OA
ATOM      2  C   UNL     1       7.022   0.886  -1.540  0.00  0.00    +0.000 C 
ATOM      3  C   UNL     1       6.546  -0.983  -2.527  0.00  0.00    +0.000 C 
ATOM      4  C   UNL     1       6.072   1.346  -2.652  0.00  0.00    +0.000 C 
ATOM      5  C   UNL     1       8.377   0.485  -2.131  0.00  0.00    +0.000 C 
ATOM      6  C   UNL     1       5.737   0.026  -3.349  0.00  0.00    +0.000 C 
ATOM      7  C   UNL     1       8.042  -0.836  -2.827  0.00  0.00    +0.000 C 
ATOM      8  H   UNL     1       6.534   2.066  -3.336  0.00  0.00    +0.000 HD
ATOM      9  H   UNL     1       5.141   1.786  -2.283  0.00  0.00    +0.000 HD
ATOM     10  H   UNL     1       9.121   0.301  -1.347  0.00  0.00    +0.000 HD
ATOM     11  H   UNL     1       8.784   1.229  -2.822  0.00  0.00    +0.000 HD
ATOM     12  H   UNL     1       4.660  -0.165  -3.267  0.00  0.00    +0.000 HD
ATOM     13  H   UNL     1       6.004   0.024  -4.411  0.00  0.00    +0.000 HD
ATOM     14  H   UNL     1       8.262  -0.819  -3.898  0.00  0.00    +0.000 HD
ATOM     15  H   UNL     1       8.624  -1.645  -2.371  0.00  0.00    +0.000 HD
ENDROOT
BRANCH   3  16
ATOM     16  C   UNL     1       6.027  -2.402  -2.574  0.00  0.00    +0.000 C 
ATOM     17  H   UNL     1       5.558  -2.686  -1.626  0.00  0.00    +0.000 HD
ATOM     18  H   UNL     1       5.293  -2.522  -3.377  0.00  0.00    +0.000 HD
ATOM     19  H   UNL     1       6.837  -3.106  -2.789  0.00  0.00    +0.000 HD
ENDBRANCH   3  16
BRANCH   2  20
ATOM     20  C   UNL     1       7.099   1.814  -0.350  0.00  0.00    +0.000 C 
ATOM     21  H   UNL     1       6.684   1.303   0.529  0.00  0.00    +0.000 HD
BRANCH  20  22
ATOM     22  C   UNL     1       8.549   2.211  -0.050  0.00  0.00    +0.000 C 
ATOM     23  H   UNL     1       9.076   2.549  -0.948  0.00  0.00    +0.000 HD
ATOM     24  H   UNL     1       8.576   3.031   0.677  0.00  0.00    +0.000 HD
ATOM     25  H   UNL     1       9.109   1.375   0.382  0.00  0.00    +0.000 HD
ENDBRANCH  20  22
BRANCH  20  26
ATOM     26  C   UNL     1       6.248   3.071  -0.571  0.00  0.00    +0.000 C 
ATOM     27  H   UNL     1       5.541   2.962  -1.398  0.00  0.00    +0.000 HD
ATOM     28  H   UNL     1       6.897   3.918  -0.821  0.00  0.00    +0.000 HD
ATOM     29  H   UNL     1       5.690   3.348   0.329  0.00  0.00    +0.000 HD
ENDBRANCH  20  26
ENDBRANCH   2  20
TORSDOF 4
ENDMDL
MODEL 4
REMARK VINA RESULT:    -5.420      1.723      3.283
REMARK INTER + INTRA:          -6.384
REMARK INTER:                  -6.186
REMARK INTRA:                  -0.198
REMARK UNBOUND:                -0.172
REMARK  Name = 10106
REMARK  4 active torsions:
REMARK  status: ('A' for Active; 'I' for Inactive)
REMARK    1  A    between atoms: C_2  and  C_8
REMARK    2  A    between atoms: C_3  and  C_9
REMARK    3  A    between atoms: C_8  and  C_10
REMARK    4  A    between atoms: C_8  and  C_11
REMARK                            x       y       z     vdW  Elec       q    Type
REMARK                         _______ _______ _______ _____ _____    ______ ____
ROOT
ATOM      1  O   UNL     1       7.766   0.222  -2.948  0.00  0.00    +0.000 OA
ATOM      2  C   UNL     1       6.552   0.355  -2.171  0.00  0.00    +0.000 C 
ATOM      3  C   UNL     1       7.201  -0.574  -4.018  0.00  0.00    +0.000 C 
ATOM      4  C   UNL     1       6.179  -1.115  -1.937  0.00  0.00    +0.000 C 
ATOM      5  C   UNL     1       5.603   0.986  -3.196  0.00  0.00    +0.000 C 
ATOM      6  C   UNL     1       6.638  -1.770  -3.242  0.00  0.00    +0.000 C 
ATOM      7  C   UNL     1       6.062   0.332  -4.500  0.00  0.00    +0.000 C 
ATOM      8  H   UNL     1       5.109  -1.259  -1.759  0.00  0.00    +0.000 HD
ATOM      9  H   UNL     1       6.722  -1.580  -1.110  0.00  0.00    +0.000 HD
ATOM     10  H   UNL     1       5.748   2.070  -3.265  0.00  0.00    +0.000 HD
ATOM     11  H   UNL     1       4.547   0.795  -2.982  0.00  0.00    +0.000 HD
ATOM     12  H   UNL     1       7.419  -2.506  -3.023  0.00  0.00    +0.000 HD
ATOM     13  H   UNL     1       5.826  -2.279  -3.772  0.00  0.00    +0.000 HD
ATOM     14  H   UNL     1       5.263  -0.220  -5.003  0.00  0.00    +0.000 HD
ATOM     15  H   UNL     1       6.428   1.105  -5.185  0.00  0.00    +0.000 HD
ENDROOT
BRANCH   3  16
ATOM     16  C   UNL     1       8.221  -0.928  -5.076  0.00  0.00    +0.000 C 
ATOM     17  H   UNL     1       8.303  -0.138  -5.830  0.00  0.00    +0.000 HD
ATOM     18  H   UNL     1       9.206  -1.090  -4.629  0.00  0.00    +0.000 HD
ATOM     19  H   UNL     1       7.953  -1.864  -5.578  0.00  0.00    +0.000 HD
ENDBRANCH   3  16
BRANCH   2  20
ATOM     20  C   UNL     1       6.754   1.164  -0.912  0.00  0.00    +0.000 C 
ATOM     21  H   UNL     1       6.110   2.052  -0.950  0.00  0.00    +0.000 HD
BRANCH  20  22
ATOM     22  C   UNL     1       6.394   0.348   0.336  0.00  0.00    +0.000 C 
ATOM     23  H   UNL     1       5.314   0.188   0.422  0.00  0.00    +0.000 HD
ATOM     24  H   UNL     1       6.871  -0.638   0.295  0.00  0.00    +0.000 HD
ATOM     25  H   UNL     1       6.742   0.842   1.248  0.00  0.00    +0.000 HD
ENDBRANCH  20  22
BRANCH  20  26
ATOM     26  C   UNL     1       8.198   1.671  -0.805  0.00  0.00    +0.000 C 
ATOM     27  H   UNL     1       8.287   2.563  -0.178  0.00  0.00    +0.000 HD
ATOM     28  H   UNL     1       8.568   1.946  -1.800  0.00  0.00    +0.000 HD
ATOM     29  H   UNL     1       8.871   0.902  -0.413  0.00  0.00    +0.000 HD
ENDBRANCH  20  26
ENDBRANCH   2  20
TORSDOF 4
ENDMDL
MODEL 5
REMARK VINA RESULT:    -5.379      1.747      3.117
REMARK INTER + INTRA:          -6.337
REMARK INTER:                  -6.144
REMARK INTRA:                  -0.193
REMARK UNBOUND:                -0.172
REMARK  Name = 10106
REMARK  4 active torsions:
REMARK  status: ('A' for Active; 'I' for Inactive)
REMARK    1  A    between atoms: C_2  and  C_8
REMARK    2  A    between atoms: C_3  and  C_9
REMARK    3  A    between atoms: C_8  and  C_10
REMARK    4  A    between atoms: C_8  and  C_11
REMARK                            x       y       z     vdW  Elec       q    Type
REMARK                         _______ _______ _______ _____ _____    ______ ____
ROOT
ATOM      1  O   UNL     1       7.234  -0.591  -1.092  0.00  0.00    +0.000 OA
ATOM      2  C   UNL     1       7.007  -0.190  -2.465  0.00  0.00    +0.000 C 
ATOM      3  C   UNL     1       8.084   0.522  -0.724  0.00  0.00    +0.000 C 
ATOM      4  C   UNL     1       8.443  -0.097  -2.995  0.00  0.00    +0.000 C 
ATOM      5  C   UNL     1       6.419   1.213  -2.277  0.00  0.00    +0.000 C 
ATOM      6  C   UNL     1       9.203   0.406  -1.765  0.00  0.00    +0.000 C 
ATOM      7  C   UNL     1       7.178   1.715  -1.048  0.00  0.00    +0.000 C 
ATOM      8  H   UNL     1       8.540   0.586  -3.845  0.00  0.00    +0.000 HD
ATOM      9  H   UNL     1       8.867  -1.061  -3.290  0.00  0.00    +0.000 HD
ATOM     10  H   UNL     1       5.347   1.174  -2.049  0.00  0.00    +0.000 HD
ATOM     11  H   UNL     1       6.560   1.860  -3.148  0.00  0.00    +0.000 HD
ATOM     12  H   UNL     1       9.948  -0.341  -1.468  0.00  0.00    +0.000 HD
ATOM     13  H   UNL     1       9.722   1.353  -1.942  0.00  0.00    +0.000 HD
ATOM     14  H   UNL     1       7.737   2.635  -1.240  0.00  0.00    +0.000 HD
ATOM     15  H   UNL     1       6.467   1.910  -0.237  0.00  0.00    +0.000 HD
ENDROOT
BRANCH   3  16
ATOM     16  C   UNL     1       8.545   0.447   0.714  0.00  0.00    +0.000 C 
ATOM     17  H   UNL     1       9.353   1.159   0.911  0.00  0.00    +0.000 HD
ATOM     18  H   UNL     1       7.717   0.657   1.399  0.00  0.00    +0.000 HD
ATOM     19  H   UNL     1       8.898  -0.560   0.958  0.00  0.00    +0.000 HD
ENDBRANCH   3  16
BRANCH   2  20
ATOM     20  C   UNL     1       6.118  -1.156  -3.212  0.00  0.00    +0.000 C 
ATOM     21  H   UNL     1       5.084  -0.790  -3.175  0.00  0.00    +0.000 HD
BRANCH  20  22
ATOM     22  C   UNL     1       6.544  -1.278  -4.680  0.00  0.00    +0.000 C 
ATOM     23  H   UNL     1       5.685  -1.264  -5.359  0.00  0.00    +0.000 HD
ATOM     24  H   UNL     1       7.195  -0.441  -4.957  0.00  0.00    +0.000 HD
ATOM     25  H   UNL     1       7.105  -2.201  -4.857  0.00  0.00    +0.000 HD
ENDBRANCH  20  22
BRANCH  20  26
ATOM     26  C   UNL     1       6.122  -2.539  -2.550  0.00  0.00    +0.000 C 
ATOM     27  H   UNL     1       6.137  -2.483  -1.457  0.00  0.00    +0.000 HD
ATOM     28  H   UNL     1       7.020  -3.090  -2.850  0.00  0.00    +0.000 HD
ATOM     29  H   UNL     1       5.259  -3.138  -2.856  0.00  0.00    +0.000 HD
ENDBRANCH  20  26
ENDBRANCH   2  20
TORSDOF 4
ENDMDL
MODEL 6
REMARK VINA RESULT:    -4.412     26.291     27.275
REMARK INTER + INTRA:          -5.228
REMARK INTER:                  -5.030
REMARK INTRA:                  -0.198
REMARK UNBOUND:                -0.172
REMARK  Name = 10106
REMARK  4 active torsions:
REMARK  status: ('A' for Active; 'I' for Inactive)
REMARK    1  A    between atoms: C_2  and  C_8
REMARK    2  A    between atoms: C_3  and  C_9
REMARK    3  A    between atoms: C_8  and  C_10
REMARK    4  A    between atoms: C_8  and  C_11
REMARK                            x       y       z     vdW  Elec       q    Type
REMARK                         _______ _______ _______ _____ _____    ______ ____
ROOT
ATOM      1  O   UNL     1     -17.967 -10.197   1.376  0.00  0.00    +0.000 OA
ATOM      2  C   UNL     1     -17.097 -10.083   0.225  0.00  0.00    +0.000 C 
ATOM      3  C   UNL     1     -16.960  -9.932   2.383  0.00  0.00    +0.000 C 
ATOM      4  C   UNL     1     -16.026 -11.132   0.550  0.00  0.00    +0.000 C 
ATOM      5  C   UNL     1     -16.531  -8.671   0.410  0.00  0.00    +0.000 C 
ATOM      6  C   UNL     1     -15.929 -11.024   2.074  0.00  0.00    +0.000 C 
ATOM      7  C   UNL     1     -16.435  -8.564   1.933  0.00  0.00    +0.000 C 
ATOM      8  H   UNL     1     -15.068 -10.926   0.062  0.00  0.00    +0.000 HD
ATOM      9  H   UNL     1     -16.319 -12.154   0.296  0.00  0.00    +0.000 HD
ATOM     10  H   UNL     1     -17.222  -7.907   0.037  0.00  0.00    +0.000 HD
ATOM     11  H   UNL     1     -15.564  -8.526  -0.080  0.00  0.00    +0.000 HD
ATOM     12  H   UNL     1     -16.216 -11.982   2.524  0.00  0.00    +0.000 HD
ATOM     13  H   UNL     1     -14.922 -10.772   2.420  0.00  0.00    +0.000 HD
ATOM     14  H   UNL     1     -15.418  -8.362   2.282  0.00  0.00    +0.000 HD
ATOM     15  H   UNL     1     -17.084  -7.752   2.282  0.00  0.00    +0.000 HD
ENDROOT
BRANCH   3  16
ATOM     16  C   UNL     1     -17.520  -9.967   3.786  0.00  0.00    +0.000 C 
ATOM     17  H   UNL     1     -17.451  -8.987   4.267  0.00  0.00    +0.000 HD
ATOM     18  H   UNL     1     -18.569 -10.281   3.779  0.00  0.00    +0.000 HD
ATOM     19  H   UNL     1     -16.985 -10.698   4.401  0.00  0.00    +0.000 HD
ENDBRANCH   3  16
BRANCH   2  20
ATOM     20  C   UNL     1     -17.827 -10.308  -1.079  0.00  0.00    +0.000 C 
ATOM     21  H   UNL     1     -17.338 -11.125  -1.625  0.00  0.00    +0.000 HD
BRANCH  20  22
ATOM     22  C   UNL     1     -19.293 -10.686  -0.835  0.00  0.00    +0.000 C 
ATOM     23  H   UNL     1     -19.558 -11.631  -1.318  0.00  0.00    +0.000 HD
ATOM     24  H   UNL     1     -19.481 -10.800   0.238  0.00  0.00    +0.000 HD
ATOM     25  H   UNL     1     -19.970  -9.909  -1.204  0.00  0.00    +0.000 HD
ENDBRANCH  20  22
BRANCH  20  26
ATOM     26  C   UNL     1     -17.749  -9.068  -1.978  0.00  0.00    +0.000 C 
ATOM     27  H   UNL     1     -16.781  -8.970  -2.479  0.00  0.00    +0.000 HD
ATOM     28  H   UNL     1     -17.885  -8.164  -1.374  0.00  0.00    +0.000 HD
ATOM     29  H   UNL     1     -18.535  -9.068  -2.739  0.00  0.00    +0.000 HD
ENDBRANCH  20  26
ENDBRANCH   2  20
TORSDOF 4
ENDMDL
MODEL 7
REMARK VINA RESULT:    -4.410     23.036     24.777
REMARK INTER + INTRA:          -5.227
REMARK INTER:                  -5.055
REMARK INTRA:                  -0.172
REMARK UNBOUND:                -0.172
REMARK  Name = 10106
REMARK  4 active torsions:
REMARK  status: ('A' for Active; 'I' for Inactive)
REMARK    1  A    between atoms: C_2  and  C_8
REMARK    2  A    between atoms: C_3  and  C_9
REMARK    3  A    between atoms: C_8  and  C_10
REMARK    4  A    between atoms: C_8  and  C_11
REMARK                            x       y       z     vdW  Elec       q    Type
REMARK                         _______ _______ _______ _____ _____    ______ ____
ROOT
ATOM      1  O   UNL     1       4.838 -11.084 -24.276  0.00  0.00    +0.000 OA
ATOM      2  C   UNL     1       5.764 -11.644 -25.238  0.00  0.00    +0.000 C 
ATOM      3  C   UNL     1       4.812  -9.742 -24.821  0.00  0.00    +0.000 C 
ATOM      4  C   UNL     1       6.971 -10.713 -25.074  0.00  0.00    +0.000 C 
ATOM      5  C   UNL     1       5.043 -11.352 -26.559  0.00  0.00    +0.000 C 
ATOM      6  C   UNL     1       6.298  -9.370 -24.781  0.00  0.00    +0.000 C 
ATOM      7  C   UNL     1       4.370 -10.010 -26.264  0.00  0.00    +0.000 C 
ATOM      8  H   UNL     1       7.600 -10.670 -25.970  0.00  0.00    +0.000 HD
ATOM      9  H   UNL     1       7.612 -10.969 -24.227  0.00  0.00    +0.000 HD
ATOM     10  H   UNL     1       4.273 -12.103 -26.773  0.00  0.00    +0.000 HD
ATOM     11  H   UNL     1       5.719 -11.301 -27.417  0.00  0.00    +0.000 HD
ATOM     12  H   UNL     1       6.596  -9.026 -23.783  0.00  0.00    +0.000 HD
ATOM     13  H   UNL     1       6.564  -8.593 -25.504  0.00  0.00    +0.000 HD
ATOM     14  H   UNL     1       4.675  -9.221 -26.957  0.00  0.00    +0.000 HD
ATOM     15  H   UNL     1       3.282 -10.126 -26.335  0.00  0.00    +0.000 HD
ENDROOT
BRANCH   3  16
ATOM     16  C   UNL     1       3.905  -8.819 -24.041  0.00  0.00    +0.000 C 
ATOM     17  H   UNL     1       3.343  -8.156 -24.707  0.00  0.00    +0.000 HD
ATOM     18  H   UNL     1       3.195  -9.390 -23.434  0.00  0.00    +0.000 HD
ATOM     19  H   UNL     1       4.482  -8.204 -23.342  0.00  0.00    +0.000 HD
ENDBRANCH   3  16
BRANCH   2  20
ATOM     20  C   UNL     1       6.052 -13.105 -24.983  0.00  0.00    +0.000 C 
ATOM     21  H   UNL     1       6.240 -13.250 -23.911  0.00  0.00    +0.000 HD
BRANCH  20  22
ATOM     22  C   UNL     1       4.867 -13.985 -25.398  0.00  0.00    +0.000 C 
ATOM     23  H   UNL     1       4.920 -14.273 -26.453  0.00  0.00    +0.000 HD
ATOM     24  H   UNL     1       4.852 -14.906 -24.805  0.00  0.00    +0.000 HD
ATOM     25  H   UNL     1       3.914 -13.474 -25.229  0.00  0.00    +0.000 HD
ENDBRANCH  20  22
BRANCH  20  26
ATOM     26  C   UNL     1       7.320 -13.556 -25.717  0.00  0.00    +0.000 C 
ATOM     27  H   UNL     1       7.185 -13.607 -26.802  0.00  0.00    +0.000 HD
ATOM     28  H   UNL     1       7.601 -14.563 -25.387  0.00  0.00    +0.000 HD
ATOM     29  H   UNL     1       8.169 -12.899 -25.504  0.00  0.00    +0.000 HD
ENDBRANCH  20  26
ENDBRANCH   2  20
TORSDOF 4
ENDMDL
MODEL 8
REMARK VINA RESULT:    -4.361      3.286      4.114
REMARK INTER + INTRA:          -5.170
REMARK INTER:                  -4.998
REMARK INTRA:                  -0.172
REMARK UNBOUND:                -0.172
REMARK  Name = 10106
REMARK  4 active torsions:
REMARK  status: ('A' for Active; 'I' for Inactive)
REMARK    1  A    between atoms: C_2  and  C_8
REMARK    2  A    between atoms: C_3  and  C_9
REMARK    3  A    between atoms: C_8  and  C_10
REMARK    4  A    between atoms: C_8  and  C_11
REMARK                            x       y       z     vdW  Elec       q    Type
REMARK                         _______ _______ _______ _____ _____    ______ ____
ROOT
ATOM      1  O   UNL     1       8.933  -1.560   0.183  0.00  0.00    +0.000 OA
ATOM      2  C   UNL     1       8.425  -0.253  -0.179  0.00  0.00    +0.000 C 
ATOM      3  C   UNL     1       9.128  -1.286   1.592  0.00  0.00    +0.000 C 
ATOM      4  C   UNL     1       9.569   0.657   0.288  0.00  0.00    +0.000 C 
ATOM      5  C   UNL     1       7.224  -0.122   0.764  0.00  0.00    +0.000 C 
ATOM      6  C   UNL     1      10.064  -0.073   1.539  0.00  0.00    +0.000 C 
ATOM      7  C   UNL     1       7.719  -0.853   2.013  0.00  0.00    +0.000 C 
ATOM      8  H   UNL     1       9.237   1.676   0.511  0.00  0.00    +0.000 HD
ATOM      9  H   UNL     1      10.397   0.722  -0.422  0.00  0.00    +0.000 HD
ATOM     10  H   UNL     1       6.343  -0.640   0.368  0.00  0.00    +0.000 HD
ATOM     11  H   UNL     1       6.947   0.916   0.969  0.00  0.00    +0.000 HD
ATOM     12  H   UNL     1      11.106  -0.380   1.391  0.00  0.00    +0.000 HD
ATOM     13  H   UNL     1      10.014   0.545   2.440  0.00  0.00    +0.000 HD
ATOM     14  H   UNL     1       7.717  -0.219   2.905  0.00  0.00    +0.000 HD
ATOM     15  H   UNL     1       7.075  -1.718   2.208  0.00  0.00    +0.000 HD
ENDROOT
BRANCH   3  16
ATOM     16  C   UNL     1       9.676  -2.478   2.342  0.00  0.00    +0.000 C 
ATOM     17  H   UNL     1      10.768  -2.511   2.295  0.00  0.00    +0.000 HD
ATOM     18  H   UNL     1       9.371  -2.450   3.393  0.00  0.00    +0.000 HD
ATOM     19  H   UNL     1       9.278  -3.413   1.932  0.00  0.00    +0.000 HD
ENDBRANCH   3  16
BRANCH   2  20
ATOM     20  C   UNL     1       8.092  -0.146  -1.649  0.00  0.00    +0.000 C 
ATOM     21  H   UNL     1       7.615  -1.080  -1.975  0.00  0.00    +0.000 HD
BRANCH  20  22
ATOM     22  C   UNL     1       7.131   1.018  -1.916  0.00  0.00    +0.000 C 
ATOM     23  H   UNL     1       6.333   0.738  -2.611  0.00  0.00    +0.000 HD
ATOM     24  H   UNL     1       6.657   1.340  -0.983  0.00  0.00    +0.000 HD
ATOM     25  H   UNL     1       7.659   1.883  -2.330  0.00  0.00    +0.000 HD
ENDBRANCH  20  22
BRANCH  20  26
ATOM     26  C   UNL     1       9.361   0.018  -2.494  0.00  0.00    +0.000 C 
ATOM     27  H   UNL     1       9.162   0.468  -3.472  0.00  0.00    +0.000 HD
ATOM     28  H   UNL     1       9.810  -0.963  -2.683  0.00  0.00    +0.000 HD
ATOM     29  H   UNL     1      10.116   0.623  -1.981  0.00  0.00    +0.000 HD
ENDBRANCH  20  26
ENDBRANCH   2  20
TORSDOF 4
ENDMDL
MODEL 9
REMARK VINA RESULT:    -4.335     19.698     21.400
REMARK INTER + INTRA:          -5.141
REMARK INTER:                  -4.945
REMARK INTRA:                  -0.196
REMARK UNBOUND:                -0.172
REMARK  Name = 10106
REMARK  4 active torsions:
REMARK  status: ('A' for Active; 'I' for Inactive)
REMARK    1  A    between atoms: C_2  and  C_8
REMARK    2  A    between atoms: C_3  and  C_9
REMARK    3  A    between atoms: C_8  and  C_10
REMARK    4  A    between atoms: C_8  and  C_11
REMARK                            x       y       z     vdW  Elec       q    Type
REMARK                         _______ _______ _______ _____ _____    ______ ____
ROOT
ATOM      1  O   UNL     1      -1.307   9.931  13.004  0.00  0.00    +0.000 OA
ATOM      2  C   UNL     1      -2.435   9.068  12.720  0.00  0.00    +0.000 C 
ATOM      3  C   UNL     1      -1.014  10.291  11.632  0.00  0.00    +0.000 C 
ATOM      4  C   UNL     1      -1.802   8.048  11.765  0.00  0.00    +0.000 C 
ATOM      5  C   UNL     1      -3.357  10.018  11.947  0.00  0.00    +0.000 C 
ATOM      6  C   UNL     1      -0.800   8.912  10.997  0.00  0.00    +0.000 C 
ATOM      7  C   UNL     1      -2.354  10.882  11.181  0.00  0.00    +0.000 C 
ATOM      8  H   UNL     1      -2.534   7.578  11.100  0.00  0.00    +0.000 HD
ATOM      9  H   UNL     1      -1.252   7.252  12.273  0.00  0.00    +0.000 HD
ATOM     10  H   UNL     1      -3.939  10.654  12.624  0.00  0.00    +0.000 HD
ATOM     11  H   UNL     1      -4.054   9.497  11.283  0.00  0.00    +0.000 HD
ATOM     12  H   UNL     1       0.215   8.542  11.182  0.00  0.00    +0.000 HD
ATOM     13  H   UNL     1      -0.973   8.908   9.916  0.00  0.00    +0.000 HD
ATOM     14  H   UNL     1      -2.497  10.837  10.097  0.00  0.00    +0.000 HD
ATOM     15  H   UNL     1      -2.459  11.926  11.496  0.00  0.00    +0.000 HD
ENDROOT
BRANCH   3  16
ATOM     16  C   UNL     1       0.163  11.231  11.519  0.00  0.00    +0.000 C 
ATOM     17  H   UNL     1       0.549  11.267  10.496  0.00  0.00    +0.000 HD
ATOM     18  H   UNL     1      -0.117  12.244  11.824  0.00  0.00    +0.000 HD
ATOM     19  H   UNL     1       0.974  10.922  12.188  0.00  0.00    +0.000 HD
ENDBRANCH   3  16
BRANCH   2  20
ATOM     20  C   UNL     1      -3.040   8.474  13.970  0.00  0.00    +0.000 C 
ATOM     21  H   UNL     1      -2.872   7.389  13.966  0.00  0.00    +0.000 HD
BRANCH  20  22
ATOM     22  C   UNL     1      -2.400   9.066  15.231  0.00  0.00    +0.000 C 
ATOM     23  H   UNL     1      -1.365   8.734  15.360  0.00  0.00    +0.000 HD
ATOM     24  H   UNL     1      -2.390  10.161  15.172  0.00  0.00    +0.000 HD
ATOM     25  H   UNL     1      -2.963   8.793  16.129  0.00  0.00    +0.000 HD
ENDBRANCH  20  22
BRANCH  20  26
ATOM     26  C   UNL     1      -4.558   8.685  14.005  0.00  0.00    +0.000 C 
ATOM     27  H   UNL     1      -5.096   7.818  14.401  0.00  0.00    +0.000 HD
ATOM     28  H   UNL     1      -4.933   8.851  12.988  0.00  0.00    +0.000 HD
ATOM     29  H   UNL     1      -4.833   9.564  14.596  0.00  0.00    +0.000 HD
ENDBRANCH  20  26
ENDBRANCH   2  20
TORSDOF 4
ENDMDL
MODEL 10
REMARK VINA RESULT:    -4.301     26.086     27.114
REMARK INTER + INTRA:          -5.102
REMARK INTER:                  -4.930
REMARK INTRA:                  -0.172
REMARK UNBOUND:                -0.172
REMARK  Name = 10106
REMARK  4 active torsions:
REMARK  status: ('A' for Active; 'I' for Inactive)
REMARK    1  A    between atoms: C_2  and  C_8
REMARK    2  A    between atoms: C_3  and  C_9
REMARK    3  A    between atoms: C_8  and  C_10
REMARK    4  A    between atoms: C_8  and  C_11
REMARK                            x       y       z     vdW  Elec       q    Type
REMARK                         _______ _______ _______ _____ _____    ______ ____
ROOT
ATOM      1  O   UNL     1     -17.795 -10.229   0.666  0.00  0.00    +0.000 OA
ATOM      2  C   UNL     1     -16.800 -10.467   1.691  0.00  0.00    +0.000 C 
ATOM      3  C   UNL     1     -16.921  -9.558  -0.273  0.00  0.00    +0.000 C 
ATOM      4  C   UNL     1     -16.305  -9.043   1.969  0.00  0.00    +0.000 C 
ATOM      5  C   UNL     1     -15.742 -11.254   0.909  0.00  0.00    +0.000 C 
ATOM      6  C   UNL     1     -16.390  -8.401   0.582  0.00  0.00    +0.000 C 
ATOM      7  C   UNL     1     -15.828 -10.613  -0.477  0.00  0.00    +0.000 C 
ATOM      8  H   UNL     1     -15.287  -9.017   2.371  0.00  0.00    +0.000 HD
ATOM      9  H   UNL     1     -16.948  -8.478   2.648  0.00  0.00    +0.000 HD
ATOM     10  H   UNL     1     -16.004 -12.316   0.833  0.00  0.00    +0.000 HD
ATOM     11  H   UNL     1     -14.740 -11.179   1.343  0.00  0.00    +0.000 HD
ATOM     12  H   UNL     1     -17.101  -7.568   0.611  0.00  0.00    +0.000 HD
ATOM     13  H   UNL     1     -15.427  -8.017   0.230  0.00  0.00    +0.000 HD
ATOM     14  H   UNL     1     -14.877 -10.184  -0.807  0.00  0.00    +0.000 HD
ATOM     15  H   UNL     1     -16.134 -11.370  -1.209  0.00  0.00    +0.000 HD
ENDROOT
BRANCH   3  16
ATOM     16  C   UNL     1     -17.640  -9.137  -1.534  0.00  0.00    +0.000 C 
ATOM     17  H   UNL     1     -16.995  -8.529  -2.176  0.00  0.00    +0.000 HD
ATOM     18  H   UNL     1     -17.976 -10.011  -2.101  0.00  0.00    +0.000 HD
ATOM     19  H   UNL     1     -18.540  -8.561  -1.295  0.00  0.00    +0.000 HD
ENDBRANCH   3  16
BRANCH   2  20
ATOM     20  C   UNL     1     -17.365 -11.186   2.893  0.00  0.00    +0.000 C 
ATOM     21  H   UNL     1     -18.057 -11.967   2.549  0.00  0.00    +0.000 HD
BRANCH  20  22
ATOM     22  C   UNL     1     -16.253 -11.843   3.719  0.00  0.00    +0.000 C 
ATOM     23  H   UNL     1     -15.686 -11.109   4.300  0.00  0.00    +0.000 HD
ATOM     24  H   UNL     1     -16.681 -12.563   4.426  0.00  0.00    +0.000 HD
ATOM     25  H   UNL     1     -15.553 -12.391   3.080  0.00  0.00    +0.000 HD
ENDBRANCH  20  22
BRANCH  20  26
ATOM     26  C   UNL     1     -18.180 -10.233   3.776  0.00  0.00    +0.000 C 
ATOM     27  H   UNL     1     -17.737 -10.094   4.767  0.00  0.00    +0.000 HD
ATOM     28  H   UNL     1     -19.184 -10.642   3.934  0.00  0.00    +0.000 HD
ATOM     29  H   UNL     1     -18.302  -9.251   3.309  0.00  0.00    +0.000 HD
ENDBRANCH  20  26
ENDBRANCH   2  20
TORSDOF 4
ENDMDL
