MODEL 1
REMARK VINA RESULT:    -5.953      0.000      0.000
REMARK INTER + INTRA:          -6.760
REMARK INTER:                  -6.641
REMARK INTRA:                  -0.119
REMARK UNBOUND:                -0.112
REMARK  Name = 637511
REMARK  2 active torsions:
REMARK  status: ('A' for Active; 'I' for Inactive)
REMARK    1  A    between atoms: C_2  and  C_7
REMARK    2  A    between atoms: C_9  and  C_10
REMARK                            x       y       z     vdW  Elec       q    Type
REMARK                         _______ _______ _______ _____ _____    ______ ____
ROOT
ATOM      1  C   UNL     1       6.650   0.967  -2.609  0.00  0.00    +0.000 A 
ATOM      2  C   UNL     1       7.581   0.079  -3.146  0.00  0.00    +0.000 A 
ATOM      3  C   UNL     1       5.446   1.200  -3.271  0.00  0.00    +0.000 A 
ATOM      4  C   UNL     1       7.308  -0.577  -4.347  0.00  0.00    +0.000 A 
ATOM      5  C   UNL     1       5.171   0.544  -4.472  0.00  0.00    +0.000 A 
ATOM      6  C   UNL     1       6.102  -0.344  -5.009  0.00  0.00    +0.000 A 
ATOM      7  H   UNL     1       8.540  -0.119  -2.675  0.00  0.00    +0.000 HD
ATOM      8  H   UNL     1       4.706   1.888  -2.866  0.00  0.00    +0.000 HD
ATOM      9  H   UNL     1       8.034  -1.265  -4.769  0.00  0.00    +0.000 HD
ATOM     10  H   UNL     1       4.233   0.725  -4.987  0.00  0.00    +0.000 HD
ATOM     11  H   UNL     1       5.888  -0.854  -5.944  0.00  0.00    +0.000 HD
ENDROOT
BRANCH   1  12
ATOM     12  C   UNL     1       6.936   1.650  -1.356  0.00  0.00    +0.000 C 
ATOM     13  C   UNL     1       6.324   2.772  -0.921  0.00  0.00    +0.000 C 
ATOM     14  H   UNL     1       7.719   1.205  -0.748  0.00  0.00    +0.000 HD
ATOM     15  H   UNL     1       5.552   3.295  -1.471  0.00  0.00    +0.000 HD
BRANCH  13  17
ATOM     16  O   UNL     1       7.123   4.517   0.462  0.00  0.00    +0.000 OA
ATOM     17  C   UNL     1       6.727   3.361   0.372  0.00  0.00    +0.000 C 
ATOM     18  H   UNL     1       6.650   2.705   1.254  0.00  0.00    +0.000 HD
ENDBRANCH  13  17
ENDBRANCH   1  12
TORSDOF 2
ENDMDL
MODEL 2
REMARK VINA RESULT:    -5.394     16.587     18.605
REMARK INTER + INTRA:          -6.136
REMARK INTER:                  -6.011
REMARK INTRA:                  -0.125
REMARK UNBOUND:                -0.112
REMARK  Name = 637511
REMARK  2 active torsions:
REMARK  status: ('A' for Active; 'I' for Inactive)
REMARK    1  A    between atoms: C_2  and  C_7
REMARK    2  A    between atoms: C_9  and  C_10
REMARK                            x       y       z     vdW  Elec       q    Type
REMARK                         _______ _______ _______ _____ _____    ______ ____
ROOT
ATOM      1  C   UNL     1      -0.946 -13.223  -8.927  0.00  0.00    +0.000 A 
ATOM      2  C   UNL     1      -1.579 -14.238  -8.210  0.00  0.00    +0.000 A 
ATOM      3  C   UNL     1      -0.356 -12.155  -8.251  0.00  0.00    +0.000 A 
ATOM      4  C   UNL     1      -1.623 -14.184  -6.817  0.00  0.00    +0.000 A 
ATOM      5  C   UNL     1      -0.399 -12.101  -6.858  0.00  0.00    +0.000 A 
ATOM      6  C   UNL     1      -1.032 -13.116  -6.141  0.00  0.00    +0.000 A 
ATOM      7  H   UNL     1      -2.067 -15.078  -8.694  0.00  0.00    +0.000 HD
ATOM      8  H   UNL     1       0.145 -11.355  -8.793  0.00  0.00    +0.000 HD
ATOM      9  H   UNL     1      -2.120 -14.972  -6.257  0.00  0.00    +0.000 HD
ATOM     10  H   UNL     1       0.060 -11.270  -6.332  0.00  0.00    +0.000 HD
ATOM     11  H   UNL     1      -1.067 -13.074  -5.056  0.00  0.00    +0.000 HD
ENDROOT
BRANCH   1  12
ATOM     12  C   UNL     1      -0.899 -13.279 -10.380  0.00  0.00    +0.000 C 
ATOM     13  C   UNL     1      -1.371 -14.292 -11.139  0.00  0.00    +0.000 C 
ATOM     14  H   UNL     1      -0.430 -12.426 -10.867  0.00  0.00    +0.000 HD
ATOM     15  H   UNL     1      -1.830 -15.186 -10.739  0.00  0.00    +0.000 HD
BRANCH  13  17
ATOM     16  O   UNL     1      -0.398 -13.513 -13.150  0.00  0.00    +0.000 OA
ATOM     17  C   UNL     1      -1.245 -14.214 -12.609  0.00  0.00    +0.000 C 
ATOM     18  H   UNL     1      -1.954 -14.822 -13.193  0.00  0.00    +0.000 HD
ENDBRANCH  13  17
ENDBRANCH   1  12
TORSDOF 2
ENDMDL
MODEL 3
REMARK VINA RESULT:    -5.281      2.411      3.206
REMARK INTER + INTRA:          -6.010
REMARK INTER:                  -5.899
REMARK INTRA:                  -0.111
REMARK UNBOUND:                -0.112
REMARK  Name = 637511
REMARK  2 active torsions:
REMARK  status: ('A' for Active; 'I' for Inactive)
REMARK    1  A    between atoms: C_2  and  C_7
REMARK    2  A    between atoms: C_9  and  C_10
REMARK                            x       y       z     vdW  Elec       q    Type
REMARK                         _______ _______ _______ _____ _____    ______ ____
ROOT
ATOM      1  C   UNL     1       7.192  -0.161  -2.969  0.00  0.00    +0.000 A 
ATOM      2  C   UNL     1       6.146   0.726  -2.716  0.00  0.00    +0.000 A 
ATOM      3  C   UNL     1       7.309  -0.760  -4.223  0.00  0.00    +0.000 A 
ATOM      4  C   UNL     1       5.216   1.013  -3.716  0.00  0.00    +0.000 A 
ATOM      5  C   UNL     1       6.380  -0.474  -5.224  0.00  0.00    +0.000 A 
ATOM      6  C   UNL     1       5.334   0.413  -4.970  0.00  0.00    +0.000 A 
ATOM      7  H   UNL     1       6.004   1.202  -1.750  0.00  0.00    +0.000 HD
ATOM      8  H   UNL     1       8.120  -1.453  -4.440  0.00  0.00    +0.000 HD
ATOM      9  H   UNL     1       4.399   1.700  -3.518  0.00  0.00    +0.000 HD
ATOM     10  H   UNL     1       6.472  -0.940  -6.200  0.00  0.00    +0.000 HD
ATOM     11  H   UNL     1       4.611   0.636  -5.749  0.00  0.00    +0.000 HD
ENDROOT
BRANCH   1  12
ATOM     12  C   UNL     1       8.161  -0.460  -1.926  0.00  0.00    +0.000 C 
ATOM     13  C   UNL     1       7.875  -1.017  -0.730  0.00  0.00    +0.000 C 
ATOM     14  H   UNL     1       9.190  -0.190  -2.152  0.00  0.00    +0.000 HD
ATOM     15  H   UNL     1       6.879  -1.295  -0.413  0.00  0.00    +0.000 HD
BRANCH  13  17
ATOM     16  O   UNL     1       9.419  -0.354   0.935  0.00  0.00    +0.000 OA
ATOM     17  C   UNL     1       8.966  -1.254   0.237  0.00  0.00    +0.000 C 
ATOM     18  H   UNL     1       9.351  -2.285   0.298  0.00  0.00    +0.000 HD
ENDBRANCH  13  17
ENDBRANCH   1  12
TORSDOF 2
ENDMDL
MODEL 4
REMARK VINA RESULT:    -4.752     17.067     18.367
REMARK INTER + INTRA:          -5.419
REMARK INTER:                  -5.303
REMARK INTRA:                  -0.117
REMARK UNBOUND:                -0.112
REMARK  Name = 637511
REMARK  2 active torsions:
REMARK  status: ('A' for Active; 'I' for Inactive)
REMARK    1  A    between atoms: C_2  and  C_7
REMARK    2  A    between atoms: C_9  and  C_10
REMARK                            x       y       z     vdW  Elec       q    Type
REMARK                         _______ _______ _______ _____ _____    ______ ____
ROOT
ATOM      1  C   UNL     1      -1.536 -13.664  -7.865  0.00  0.00    +0.000 A 
ATOM      2  C   UNL     1      -1.852 -14.466  -8.961  0.00  0.00    +0.000 A 
ATOM      3  C   UNL     1      -0.756 -12.521  -8.039  0.00  0.00    +0.000 A 
ATOM      4  C   UNL     1      -1.388 -14.125 -10.232  0.00  0.00    +0.000 A 
ATOM      5  C   UNL     1      -0.292 -12.180  -9.309  0.00  0.00    +0.000 A 
ATOM      6  C   UNL     1      -0.608 -12.981 -10.406  0.00  0.00    +0.000 A 
ATOM      7  H   UNL     1      -2.440 -15.374  -8.870  0.00  0.00    +0.000 HD
ATOM      8  H   UNL     1      -0.500 -11.882  -7.196  0.00  0.00    +0.000 HD
ATOM      9  H   UNL     1      -1.630 -14.751 -11.085  0.00  0.00    +0.000 HD
ATOM     10  H   UNL     1       0.315 -11.289  -9.445  0.00  0.00    +0.000 HD
ATOM     11  H   UNL     1      -0.246 -12.716 -11.395  0.00  0.00    +0.000 HD
ENDROOT
BRANCH   1  12
ATOM     12  C   UNL     1      -2.020 -14.019  -6.539  0.00  0.00    +0.000 C 
ATOM     13  C   UNL     1      -3.215 -14.587  -6.271  0.00  0.00    +0.000 C 
ATOM     14  H   UNL     1      -1.348 -13.786  -5.717  0.00  0.00    +0.000 HD
ATOM     15  H   UNL     1      -3.954 -14.831  -7.022  0.00  0.00    +0.000 HD
BRANCH  13  17
ATOM     16  O   UNL     1      -4.255 -14.114  -4.199  0.00  0.00    +0.000 OA
ATOM     17  C   UNL     1      -3.577 -14.883  -4.869  0.00  0.00    +0.000 C 
ATOM     18  H   UNL     1      -3.204 -15.836  -4.459  0.00  0.00    +0.000 HD
ENDBRANCH  13  17
ENDBRANCH   1  12
TORSDOF 2
ENDMDL
MODEL 5
REMARK VINA RESULT:    -4.667     14.275     14.605
REMARK INTER + INTRA:          -5.325
REMARK INTER:                  -5.201
REMARK INTRA:                  -0.124
REMARK UNBOUND:                -0.112
REMARK  Name = 637511
REMARK  2 active torsions:
REMARK  status: ('A' for Active; 'I' for Inactive)
REMARK    1  A    between atoms: C_2  and  C_7
REMARK    2  A    between atoms: C_9  and  C_10
REMARK                            x       y       z     vdW  Elec       q    Type
REMARK                         _______ _______ _______ _____ _____    ______ ____
ROOT
ATOM      1  C   UNL     1       3.156  13.349  -9.947  0.00  0.00    +0.000 A 
ATOM      2  C   UNL     1       3.421  12.329 -10.861  0.00  0.00    +0.000 A 
ATOM      3  C   UNL     1       1.840  13.643  -9.592  0.00  0.00    +0.000 A 
ATOM      4  C   UNL     1       2.369  11.604 -11.421  0.00  0.00    +0.000 A 
ATOM      5  C   UNL     1       0.787  12.917 -10.151  0.00  0.00    +0.000 A 
ATOM      6  C   UNL     1       1.052  11.897 -11.065  0.00  0.00    +0.000 A 
ATOM      7  H   UNL     1       4.428  12.078 -11.181  0.00  0.00    +0.000 HD
ATOM      8  H   UNL     1       1.614  14.433  -8.879  0.00  0.00    +0.000 HD
ATOM      9  H   UNL     1       2.573  10.812 -12.136  0.00  0.00    +0.000 HD
ATOM     10  H   UNL     1      -0.237  13.146  -9.874  0.00  0.00    +0.000 HD
ATOM     11  H   UNL     1       0.232  11.333 -11.501  0.00  0.00    +0.000 HD
ENDROOT
BRANCH   1  12
ATOM     12  C   UNL     1       4.253  14.105  -9.363  0.00  0.00    +0.000 C 
ATOM     13  C   UNL     1       4.181  14.841  -8.233  0.00  0.00    +0.000 C 
ATOM     14  H   UNL     1       5.193  14.065  -9.909  0.00  0.00    +0.000 HD
ATOM     15  H   UNL     1       3.283  14.956  -7.640  0.00  0.00    +0.000 HD
BRANCH  13  17
ATOM     16  O   UNL     1       6.496  15.327  -8.208  0.00  0.00    +0.000 OA
ATOM     17  C   UNL     1       5.379  15.566  -7.764  0.00  0.00    +0.000 C 
ATOM     18  H   UNL     1       5.214  16.336  -6.993  0.00  0.00    +0.000 HD
ENDBRANCH  13  17
ENDBRANCH   1  12
TORSDOF 2
ENDMDL
MODEL 6
REMARK VINA RESULT:    -4.657     24.411     25.449
REMARK INTER + INTRA:          -5.313
REMARK INTER:                  -5.204
REMARK INTRA:                  -0.109
REMARK UNBOUND:                -0.112
REMARK  Name = 637511
REMARK  2 active torsions:
REMARK  status: ('A' for Active; 'I' for Inactive)
REMARK    1  A    between atoms: C_2  and  C_7
REMARK    2  A    between atoms: C_9  and  C_10
REMARK                            x       y       z     vdW  Elec       q    Type
REMARK                         _______ _______ _______ _____ _____    ______ ____
ROOT
ATOM      1  C   UNL     1       0.286  -7.196  20.478  0.00  0.00    +0.000 A 
ATOM      2  C   UNL     1      -0.961  -6.576  20.404  0.00  0.00    +0.000 A 
ATOM      3  C   UNL     1       0.370  -8.560  20.756  0.00  0.00    +0.000 A 
ATOM      4  C   UNL     1      -2.124  -7.319  20.608  0.00  0.00    +0.000 A 
ATOM      5  C   UNL     1      -0.792  -9.304  20.960  0.00  0.00    +0.000 A 
ATOM      6  C   UNL     1      -2.039  -8.684  20.886  0.00  0.00    +0.000 A 
ATOM      7  H   UNL     1      -1.075  -5.513  20.209  0.00  0.00    +0.000 HD
ATOM      8  H   UNL     1       1.334  -9.062  20.815  0.00  0.00    +0.000 HD
ATOM      9  H   UNL     1      -3.095  -6.836  20.555  0.00  0.00    +0.000 HD
ATOM     10  H   UNL     1      -0.726 -10.367  21.176  0.00  0.00    +0.000 HD
ATOM     11  H   UNL     1      -2.944  -9.264  21.045  0.00  0.00    +0.000 HD
ENDROOT
BRANCH   1  12
ATOM     12  C   UNL     1       1.498  -6.421  20.264  0.00  0.00    +0.000 C 
ATOM     13  C   UNL     1       2.217  -5.812  21.231  0.00  0.00    +0.000 C 
ATOM     14  H   UNL     1       1.820  -6.331  19.229  0.00  0.00    +0.000 HD
ATOM     15  H   UNL     1       1.957  -5.828  22.281  0.00  0.00    +0.000 HD
BRANCH  13  17
ATOM     16  O   UNL     1       3.359  -3.977  20.269  0.00  0.00    +0.000 OA
ATOM     17  C   UNL     1       3.426  -5.048  20.862  0.00  0.00    +0.000 C 
ATOM     18  H   UNL     1       4.392  -5.492  21.149  0.00  0.00    +0.000 HD
ENDBRANCH  13  17
ENDBRANCH   1  12
TORSDOF 2
ENDMDL
MODEL 7
REMARK VINA RESULT:    -4.641      3.313      3.776
REMARK INTER + INTRA:          -5.295
REMARK INTER:                  -5.182
REMARK INTRA:                  -0.114
REMARK UNBOUND:                -0.112
REMARK  Name = 637511
REMARK  2 active torsions:
REMARK  status: ('A' for Active; 'I' for Inactive)
REMARK    1  A    between atoms: C_2  and  C_7
REMARK    2  A    between atoms: C_9  and  C_10
REMARK                            x       y       z     vdW  Elec       q    Type
REMARK                         _______ _______ _______ _____ _____    ______ ____
ROOT
ATOM      1  C   UNL     1       7.883  -0.794  -1.781  0.00  0.00    +0.000 A 
ATOM      2  C   UNL     1       6.861  -1.743  -1.821  0.00  0.00    +0.000 A 
ATOM      3  C   UNL     1       8.314  -0.184  -2.958  0.00  0.00    +0.000 A 
ATOM      4  C   UNL     1       6.270  -2.081  -3.039  0.00  0.00    +0.000 A 
ATOM      5  C   UNL     1       7.724  -0.521  -4.176  0.00  0.00    +0.000 A 
ATOM      6  C   UNL     1       6.701  -1.469  -4.216  0.00  0.00    +0.000 A 
ATOM      7  H   UNL     1       6.506  -2.257  -0.933  0.00  0.00    +0.000 HD
ATOM      8  H   UNL     1       9.108   0.560  -2.946  0.00  0.00    +0.000 HD
ATOM      9  H   UNL     1       5.478  -2.822  -3.072  0.00  0.00    +0.000 HD
ATOM     10  H   UNL     1       8.059  -0.045  -5.092  0.00  0.00    +0.000 HD
ATOM     11  H   UNL     1       6.243  -1.732  -5.165  0.00  0.00    +0.000 HD
ENDROOT
BRANCH   1  12
ATOM     12  C   UNL     1       8.498  -0.442  -0.510  0.00  0.00    +0.000 C 
ATOM     13  C   UNL     1       8.952  -1.321   0.409  0.00  0.00    +0.000 C 
ATOM     14  H   UNL     1       8.575   0.624  -0.307  0.00  0.00    +0.000 HD
ATOM     15  H   UNL     1       8.896  -2.396   0.300  0.00  0.00    +0.000 HD
BRANCH  13  17
ATOM     16  O   UNL     1       9.501  -1.455   2.706  0.00  0.00    +0.000 OA
ATOM     17  C   UNL     1       9.547  -0.814   1.662  0.00  0.00    +0.000 C 
ATOM     18  H   UNL     1      10.037   0.171   1.608  0.00  0.00    +0.000 HD
ENDBRANCH  13  17
ENDBRANCH   1  12
TORSDOF 2
ENDMDL
MODEL 8
REMARK VINA RESULT:    -4.536     31.062     33.072
REMARK INTER + INTRA:          -5.178
REMARK INTER:                  -5.054
REMARK INTRA:                  -0.124
REMARK UNBOUND:                -0.112
REMARK  Name = 637511
REMARK  2 active torsions:
REMARK  status: ('A' for Active; 'I' for Inactive)
REMARK    1  A    between atoms: C_2  and  C_7
REMARK    2  A    between atoms: C_9  and  C_10
REMARK                            x       y       z     vdW  Elec       q    Type
REMARK                         _______ _______ _______ _____ _____    ______ ____
ROOT
ATOM      1  C   UNL     1     -16.031   2.327  21.549  0.00  0.00    +0.000 A 
ATOM      2  C   UNL     1     -15.151   2.324  22.631  0.00  0.00    +0.000 A 
ATOM      3  C   UNL     1     -17.329   2.813  21.708  0.00  0.00    +0.000 A 
ATOM      4  C   UNL     1     -15.568   2.807  23.871  0.00  0.00    +0.000 A 
ATOM      5  C   UNL     1     -17.746   3.297  22.948  0.00  0.00    +0.000 A 
ATOM      6  C   UNL     1     -16.865   3.295  24.029  0.00  0.00    +0.000 A 
ATOM      7  H   UNL     1     -14.138   1.938  22.559  0.00  0.00    +0.000 HD
ATOM      8  H   UNL     1     -18.029   2.826  20.875  0.00  0.00    +0.000 HD
ATOM      9  H   UNL     1     -14.884   2.801  24.715  0.00  0.00    +0.000 HD
ATOM     10  H   UNL     1     -18.756   3.676  23.071  0.00  0.00    +0.000 HD
ATOM     11  H   UNL     1     -17.191   3.671  24.995  0.00  0.00    +0.000 HD
ENDROOT
BRANCH   1  12
ATOM     12  C   UNL     1     -15.596   1.823  20.255  0.00  0.00    +0.000 C 
ATOM     13  C   UNL     1     -16.245   2.009  19.086  0.00  0.00    +0.000 C 
ATOM     14  H   UNL     1     -14.677   1.242  20.264  0.00  0.00    +0.000 HD
ATOM     15  H   UNL     1     -17.176   2.552  18.988  0.00  0.00    +0.000 HD
BRANCH  13  17
ATOM     16  O   UNL     1     -15.027   0.395  17.858  0.00  0.00    +0.000 OA
ATOM     17  C   UNL     1     -15.686   1.428  17.848  0.00  0.00    +0.000 C 
ATOM     18  H   UNL     1     -15.897   1.973  16.914  0.00  0.00    +0.000 HD
ENDBRANCH  13  17
ENDBRANCH   1  12
TORSDOF 2
ENDMDL
MODEL 9
REMARK VINA RESULT:    -4.534     26.815     27.703
REMARK INTER + INTRA:          -5.175
REMARK INTER:                  -5.060
REMARK INTRA:                  -0.116
REMARK UNBOUND:                -0.112
REMARK  Name = 637511
REMARK  2 active torsions:
REMARK  status: ('A' for Active; 'I' for Inactive)
REMARK    1  A    between atoms: C_2  and  C_7
REMARK    2  A    between atoms: C_9  and  C_10
REMARK                            x       y       z     vdW  Elec       q    Type
REMARK                         _______ _______ _______ _____ _____    ______ ____
ROOT
ATOM      1  C   UNL     1     -17.620  -9.945   2.515  0.00  0.00    +0.000 A 
ATOM      2  C   UNL     1     -18.034 -10.612   1.362  0.00  0.00    +0.000 A 
ATOM      3  C   UNL     1     -16.739  -8.869   2.420  0.00  0.00    +0.000 A 
ATOM      4  C   UNL     1     -17.566 -10.203   0.113  0.00  0.00    +0.000 A 
ATOM      5  C   UNL     1     -16.272  -8.458   1.171  0.00  0.00    +0.000 A 
ATOM      6  C   UNL     1     -16.685  -9.125   0.018  0.00  0.00    +0.000 A 
ATOM      7  H   UNL     1     -18.703 -11.467   1.390  0.00  0.00    +0.000 HD
ATOM      8  H   UNL     1     -16.408  -8.334   3.308  0.00  0.00    +0.000 HD
ATOM      9  H   UNL     1     -17.883 -10.724  -0.785  0.00  0.00    +0.000 HD
ATOM     10  H   UNL     1     -15.586  -7.619   1.097  0.00  0.00    +0.000 HD
ATOM     11  H   UNL     1     -16.320  -8.805  -0.954  0.00  0.00    +0.000 HD
ENDROOT
BRANCH   1  12
ATOM     12  C   UNL     1     -18.109 -10.373   3.817  0.00  0.00    +0.000 C 
ATOM     13  C   UNL     1     -18.293 -11.654   4.201  0.00  0.00    +0.000 C 
ATOM     14  H   UNL     1     -18.347  -9.572   4.514  0.00  0.00    +0.000 HD
ATOM     15  H   UNL     1     -18.105 -12.511   3.567  0.00  0.00    +0.000 HD
BRANCH  13  17
ATOM     16  O   UNL     1     -19.714 -12.737   5.751  0.00  0.00    +0.000 OA
ATOM     17  C   UNL     1     -18.807 -11.937   5.557  0.00  0.00    +0.000 C 
ATOM     18  H   UNL     1     -18.328 -11.390   6.385  0.00  0.00    +0.000 HD
ENDBRANCH  13  17
ENDBRANCH   1  12
TORSDOF 2
ENDMDL
MODEL 10
REMARK VINA RESULT:    -4.410     33.418     34.240
REMARK INTER + INTRA:          -5.037
REMARK INTER:                  -4.925
REMARK INTRA:                  -0.112
REMARK UNBOUND:                -0.112
REMARK  Name = 637511
REMARK  2 active torsions:
REMARK  status: ('A' for Active; 'I' for Inactive)
REMARK    1  A    between atoms: C_2  and  C_7
REMARK    2  A    between atoms: C_9  and  C_10
REMARK                            x       y       z     vdW  Elec       q    Type
REMARK                         _______ _______ _______ _____ _____    ______ ____
ROOT
ATOM      1  C   UNL     1     -14.707 -13.281  20.340  0.00  0.00    +0.000 A 
ATOM      2  C   UNL     1     -15.405 -13.569  21.513  0.00  0.00    +0.000 A 
ATOM      3  C   UNL     1     -13.406 -13.754  20.169  0.00  0.00    +0.000 A 
ATOM      4  C   UNL     1     -14.802 -14.330  22.515  0.00  0.00    +0.000 A 
ATOM      5  C   UNL     1     -12.803 -14.515  21.170  0.00  0.00    +0.000 A 
ATOM      6  C   UNL     1     -13.501 -14.804  22.343  0.00  0.00    +0.000 A 
ATOM      7  H   UNL     1     -16.412 -13.206  21.698  0.00  0.00    +0.000 HD
ATOM      8  H   UNL     1     -12.847 -13.541  19.261  0.00  0.00    +0.000 HD
ATOM      9  H   UNL     1     -15.343 -14.551  23.430  0.00  0.00    +0.000 HD
ATOM     10  H   UNL     1     -11.790 -14.884  21.037  0.00  0.00    +0.000 HD
ATOM     11  H   UNL     1     -13.031 -15.396  23.123  0.00  0.00    +0.000 HD
ENDROOT
BRANCH   1  12
ATOM     12  C   UNL     1     -15.336 -12.487  19.296  0.00  0.00    +0.000 C 
ATOM     13  C   UNL     1     -14.864 -11.319  18.811  0.00  0.00    +0.000 C 
ATOM     14  H   UNL     1     -16.267 -12.887  18.901  0.00  0.00    +0.000 HD
ATOM     15  H   UNL     1     -13.960 -10.838  19.160  0.00  0.00    +0.000 HD
BRANCH  13  17
ATOM     16  O   UNL     1     -15.258  -9.533  17.311  0.00  0.00    +0.000 OA
ATOM     17  C   UNL     1     -15.618 -10.617  17.752  0.00  0.00    +0.000 C 
ATOM     18  H   UNL     1     -16.523 -11.124  17.379  0.00  0.00    +0.000 HD
ENDBRANCH  13  17
ENDBRANCH   1  12
TORSDOF 2
ENDMDL
