MODEL 1
REMARK VINA RESULT:    -4.684      0.000      0.000
REMARK INTER + INTRA:          -6.225
REMARK INTER:                  -5.969
REMARK INTRA:                  -0.256
REMARK UNBOUND:                -0.309
REMARK  Name = 4284
REMARK  6 active torsions:
REMARK  status: ('A' for Active; 'I' for Inactive)
REMARK    1  A    between atoms: N_2  and  C_3
REMARK    2  A    between atoms: N_2  and  C_4
REMARK    3  A    between atoms: C_3  and  C_7
REMARK    4  A    between atoms: C_4  and  C_8
REMARK    5  A    between atoms: C_5  and  C_6
REMARK    6  A    between atoms: C_10  and  C_14
REMARK                            x       y       z     vdW  Elec       q    Type
REMARK                         _______ _______ _______ _____ _____    ______ ____
ROOT
ATOM      1  O   UNL     1     -17.777  -9.044  -2.190  0.00  0.00    +0.000 OA
ATOM      2  N   UNL     1     -16.054 -10.624  -2.130  0.00  0.00    +0.000 N 
ATOM      3  C   UNL     1     -16.989  -9.749  -1.545  0.00  0.00    +0.000 C 
ENDROOT
BRANCH   3   4
ATOM      4  C   UNL     1     -17.059  -9.661  -0.096  0.00  0.00    +0.000 A 
ATOM      5  C   UNL     1     -17.910 -10.507   0.615  0.00  0.00    +0.000 A 
ATOM      6  C   UNL     1     -17.974 -10.424   2.006  0.00  0.00    +0.000 A 
ATOM      7  C   UNL     1     -16.272  -8.731   0.585  0.00  0.00    +0.000 A 
ATOM      8  C   UNL     1     -17.188  -9.495   2.687  0.00  0.00    +0.000 A 
ATOM      9  C   UNL     1     -16.337  -8.648   1.976  0.00  0.00    +0.000 A 
ATOM     10  H   UNL     1     -18.516 -11.239   0.086  0.00  0.00    +0.000 HD
ATOM     11  H   UNL     1     -15.605  -8.067   0.041  0.00  0.00    +0.000 HD
ATOM     12  H   UNL     1     -17.230  -9.418   3.770  0.00  0.00    +0.000 HD
ATOM     13  H   UNL     1     -15.724  -7.924   2.505  0.00  0.00    +0.000 HD
BRANCH   6  14
ATOM     14  C   UNL     1     -18.884 -11.329   2.766  0.00  0.00    +0.000 C 
ATOM     15  H   UNL     1     -18.325 -11.930   3.490  0.00  0.00    +0.000 HD
ATOM     16  H   UNL     1     -19.632 -10.760   3.330  0.00  0.00    +0.000 HD
ATOM     17  H   UNL     1     -19.406 -12.002   2.077  0.00  0.00    +0.000 HD
ENDBRANCH   6  14
ENDBRANCH   3   4
BRANCH   2  18
ATOM     18  C   UNL     1     -15.934 -10.779  -3.573  0.00  0.00    +0.000 C 
ATOM     19  H   UNL     1     -16.182  -9.822  -4.046  0.00  0.00    +0.000 HD
ATOM     20  H   UNL     1     -14.897 -11.013  -3.833  0.00  0.00    +0.000 HD
BRANCH  18  21
ATOM     21  C   UNL     1     -16.878 -11.840  -4.098  0.00  0.00    +0.000 C 
ATOM     22  H   UNL     1     -17.441 -11.479  -4.964  0.00  0.00    +0.000 HD
ATOM     23  H   UNL     1     -16.331 -12.737  -4.408  0.00  0.00    +0.000 HD
ATOM     24  H   UNL     1     -17.594 -12.130  -3.323  0.00  0.00    +0.000 HD
ENDBRANCH  18  21
ENDBRANCH   2  18
BRANCH   2  25
ATOM     25  C   UNL     1     -15.142 -11.437  -1.328  0.00  0.00    +0.000 C 
ATOM     26  H   UNL     1     -15.014 -11.005  -0.332  0.00  0.00    +0.000 HD
ATOM     27  H   UNL     1     -15.588 -12.426  -1.178  0.00  0.00    +0.000 HD
BRANCH  25  28
ATOM     28  C   UNL     1     -13.788 -11.572  -1.995  0.00  0.00    +0.000 C 
ATOM     29  H   UNL     1     -13.152 -10.711  -1.767  0.00  0.00    +0.000 HD
ATOM     30  H   UNL     1     -13.251 -12.467  -1.678  0.00  0.00    +0.000 HD
ATOM     31  H   UNL     1     -13.909 -11.620  -3.083  0.00  0.00    +0.000 HD
ENDBRANCH  25  28
ENDBRANCH   2  25
TORSDOF 6
ENDMDL
MODEL 2
REMARK VINA RESULT:    -4.407     25.704     26.833
REMARK INTER + INTRA:          -5.875
REMARK INTER:                  -5.734
REMARK INTRA:                  -0.141
REMARK UNBOUND:                -0.309
REMARK  Name = 4284
REMARK  6 active torsions:
REMARK  status: ('A' for Active; 'I' for Inactive)
REMARK    1  A    between atoms: N_2  and  C_3
REMARK    2  A    between atoms: N_2  and  C_4
REMARK    3  A    between atoms: C_3  and  C_7
REMARK    4  A    between atoms: C_4  and  C_8
REMARK    5  A    between atoms: C_5  and  C_6
REMARK    6  A    between atoms: C_10  and  C_14
REMARK                            x       y       z     vdW  Elec       q    Type
REMARK                         _______ _______ _______ _____ _____    ______ ____
ROOT
ATOM      1  O   UNL     1       3.925  -6.132  13.205  0.00  0.00    +0.000 OA
ATOM      2  N   UNL     1       5.531  -4.443  13.392  0.00  0.00    +0.000 N 
ATOM      3  C   UNL     1       4.455  -5.222  13.856  0.00  0.00    +0.000 C 
ENDROOT
BRANCH   3   4
ATOM      4  C   UNL     1       3.926  -4.969  15.186  0.00  0.00    +0.000 A 
ATOM      5  C   UNL     1       4.368  -5.727  16.270  0.00  0.00    +0.000 A 
ATOM      6  C   UNL     1       3.862  -5.480  17.547  0.00  0.00    +0.000 A 
ATOM      7  C   UNL     1       2.976  -3.965  15.379  0.00  0.00    +0.000 A 
ATOM      8  C   UNL     1       2.912  -4.477  17.739  0.00  0.00    +0.000 A 
ATOM      9  C   UNL     1       2.470  -3.719  16.655  0.00  0.00    +0.000 A 
ATOM     10  H   UNL     1       5.116  -6.503  16.123  0.00  0.00    +0.000 HD
ATOM     11  H   UNL     1       2.624  -3.368  14.541  0.00  0.00    +0.000 HD
ATOM     12  H   UNL     1       2.508  -4.276  18.728  0.00  0.00    +0.000 HD
ATOM     13  H   UNL     1       1.731  -2.937  16.804  0.00  0.00    +0.000 HD
BRANCH   6  14
ATOM     14  C   UNL     1       4.336  -6.291  18.706  0.00  0.00    +0.000 C 
ATOM     15  H   UNL     1       5.429  -6.330  18.737  0.00  0.00    +0.000 HD
ATOM     16  H   UNL     1       4.003  -5.858  19.656  0.00  0.00    +0.000 HD
ATOM     17  H   UNL     1       3.948  -7.312  18.634  0.00  0.00    +0.000 HD
ENDBRANCH   6  14
ENDBRANCH   3   4
BRANCH   2  18
ATOM     18  C   UNL     1       6.125  -4.647  12.078  0.00  0.00    +0.000 C 
ATOM     19  H   UNL     1       7.058  -4.074  12.027  0.00  0.00    +0.000 HD
ATOM     20  H   UNL     1       6.382  -5.703  11.949  0.00  0.00    +0.000 HD
BRANCH  18  21
ATOM     21  C   UNL     1       5.204  -4.174  10.972  0.00  0.00    +0.000 C 
ATOM     22  H   UNL     1       4.742  -5.019  10.452  0.00  0.00    +0.000 HD
ATOM     23  H   UNL     1       4.398  -3.548  11.371  0.00  0.00    +0.000 HD
ATOM     24  H   UNL     1       5.761  -3.585  10.238  0.00  0.00    +0.000 HD
ENDBRANCH  18  21
ENDBRANCH   2  18
BRANCH   2  25
ATOM     25  C   UNL     1       6.125  -3.379  14.197  0.00  0.00    +0.000 C 
ATOM     26  H   UNL     1       5.882  -3.513  15.255  0.00  0.00    +0.000 HD
ATOM     27  H   UNL     1       7.216  -3.445  14.123  0.00  0.00    +0.000 HD
BRANCH  25  28
ATOM     28  C   UNL     1       5.655  -2.012  13.743  0.00  0.00    +0.000 C 
ATOM     29  H   UNL     1       4.596  -2.035  13.465  0.00  0.00    +0.000 HD
ATOM     30  H   UNL     1       5.772  -1.250  14.514  0.00  0.00    +0.000 HD
ATOM     31  H   UNL     1       6.224  -1.691  12.864  0.00  0.00    +0.000 HD
ENDBRANCH  25  28
ENDBRANCH   2  25
TORSDOF 6
ENDMDL
MODEL 3
REMARK VINA RESULT:    -4.384      1.841      2.368
REMARK INTER + INTRA:          -5.847
REMARK INTER:                  -5.591
REMARK INTRA:                  -0.255
REMARK UNBOUND:                -0.309
REMARK  Name = 4284
REMARK  6 active torsions:
REMARK  status: ('A' for Active; 'I' for Inactive)
REMARK    1  A    between atoms: N_2  and  C_3
REMARK    2  A    between atoms: N_2  and  C_4
REMARK    3  A    between atoms: C_3  and  C_7
REMARK    4  A    between atoms: C_4  and  C_8
REMARK    5  A    between atoms: C_5  and  C_6
REMARK    6  A    between atoms: C_10  and  C_14
REMARK                            x       y       z     vdW  Elec       q    Type
REMARK                         _______ _______ _______ _____ _____    ______ ____
ROOT
ATOM      1  O   UNL     1     -14.083 -11.175  -0.906  0.00  0.00    +0.000 OA
ATOM      2  N   UNL     1     -16.239 -11.169  -1.809  0.00  0.00    +0.000 N 
ATOM      3  C   UNL     1     -15.291 -10.924  -0.799  0.00  0.00    +0.000 C 
ENDROOT
BRANCH   3   4
ATOM      4  C   UNL     1     -15.732 -10.327   0.450  0.00  0.00    +0.000 A 
ATOM      5  C   UNL     1     -15.870 -11.117   1.592  0.00  0.00    +0.000 A 
ATOM      6  C   UNL     1     -16.291 -10.541   2.791  0.00  0.00    +0.000 A 
ATOM      7  C   UNL     1     -16.016  -8.962   0.508  0.00  0.00    +0.000 A 
ATOM      8  C   UNL     1     -16.576  -9.177   2.849  0.00  0.00    +0.000 A 
ATOM      9  C   UNL     1     -16.438  -8.388   1.708  0.00  0.00    +0.000 A 
ATOM     10  H   UNL     1     -15.638 -12.178   1.551  0.00  0.00    +0.000 HD
ATOM     11  H   UNL     1     -15.913  -8.338  -0.375  0.00  0.00    +0.000 HD
ATOM     12  H   UNL     1     -16.907  -8.717   3.776  0.00  0.00    +0.000 HD
ATOM     13  H   UNL     1     -16.660  -7.325   1.751  0.00  0.00    +0.000 HD
BRANCH   6  14
ATOM     14  C   UNL     1     -16.437 -11.386   4.012  0.00  0.00    +0.000 C 
ATOM     15  H   UNL     1     -15.854 -12.308   3.924  0.00  0.00    +0.000 HD
ATOM     16  H   UNL     1     -16.076 -10.862   4.904  0.00  0.00    +0.000 HD
ATOM     17  H   UNL     1     -17.490 -11.647   4.164  0.00  0.00    +0.000 HD
ENDBRANCH   6  14
ENDBRANCH   3   4
BRANCH   2  18
ATOM     18  C   UNL     1     -15.872 -11.749  -3.094  0.00  0.00    +0.000 C 
ATOM     19  H   UNL     1     -14.994 -12.388  -2.947  0.00  0.00    +0.000 HD
ATOM     20  H   UNL     1     -16.684 -12.387  -3.456  0.00  0.00    +0.000 HD
BRANCH  18  21
ATOM     21  C   UNL     1     -15.531 -10.679  -4.110  0.00  0.00    +0.000 C 
ATOM     22  H   UNL     1     -14.491 -10.762  -4.441  0.00  0.00    +0.000 HD
ATOM     23  H   UNL     1     -16.169 -10.757  -4.996  0.00  0.00    +0.000 HD
ATOM     24  H   UNL     1     -15.671  -9.684  -3.676  0.00  0.00    +0.000 HD
ENDBRANCH  18  21
ENDBRANCH   2  18
BRANCH   2  25
ATOM     25  C   UNL     1     -17.656 -10.855  -1.639  0.00  0.00    +0.000 C 
ATOM     26  H   UNL     1     -17.792 -10.081  -0.878  0.00  0.00    +0.000 HD
ATOM     27  H   UNL     1     -18.042 -10.436  -2.574  0.00  0.00    +0.000 HD
BRANCH  25  28
ATOM     28  C   UNL     1     -18.453 -12.085  -1.252  0.00  0.00    +0.000 C 
ATOM     29  H   UNL     1     -18.263 -12.363  -0.211  0.00  0.00    +0.000 HD
ATOM     30  H   UNL     1     -19.529 -11.939  -1.359  0.00  0.00    +0.000 HD
ATOM     31  H   UNL     1     -18.165 -12.933  -1.883  0.00  0.00    +0.000 HD
ENDBRANCH  25  28
ENDBRANCH   2  25
TORSDOF 6
ENDMDL
MODEL 4
REMARK VINA RESULT:    -4.272     25.015     27.356
REMARK INTER + INTRA:          -5.705
REMARK INTER:                  -5.506
REMARK INTRA:                  -0.199
REMARK UNBOUND:                -0.309
REMARK  Name = 4284
REMARK  6 active torsions:
REMARK  status: ('A' for Active; 'I' for Inactive)
REMARK    1  A    between atoms: N_2  and  C_3
REMARK    2  A    between atoms: N_2  and  C_4
REMARK    3  A    between atoms: C_3  and  C_7
REMARK    4  A    between atoms: C_4  and  C_8
REMARK    5  A    between atoms: C_5  and  C_6
REMARK    6  A    between atoms: C_10  and  C_14
REMARK                            x       y       z     vdW  Elec       q    Type
REMARK                         _______ _______ _______ _____ _____    ______ ____
ROOT
ATOM      1  O   UNL     1      -3.517   1.523 -18.156  0.00  0.00    +0.000 OA
ATOM      2  N   UNL     1      -2.289   2.871 -16.693  0.00  0.00    +0.000 N 
ATOM      3  C   UNL     1      -2.599   2.329 -17.954  0.00  0.00    +0.000 C 
ENDROOT
BRANCH   3   4
ATOM      4  C   UNL     1      -1.814   2.736 -19.107  0.00  0.00    +0.000 A 
ATOM      5  C   UNL     1      -0.847   1.879 -19.633  0.00  0.00    +0.000 A 
ATOM      6  C   UNL     1      -0.096   2.271 -20.742  0.00  0.00    +0.000 A 
ATOM      7  C   UNL     1      -2.029   3.986 -19.690  0.00  0.00    +0.000 A 
ATOM      8  C   UNL     1      -0.311   3.520 -21.324  0.00  0.00    +0.000 A 
ATOM      9  C   UNL     1      -1.277   4.377 -20.798  0.00  0.00    +0.000 A 
ATOM     10  H   UNL     1      -0.686   0.901 -19.186  0.00  0.00    +0.000 HD
ATOM     11  H   UNL     1      -2.779   4.662 -19.289  0.00  0.00    +0.000 HD
ATOM     12  H   UNL     1       0.269   3.838 -22.186  0.00  0.00    +0.000 HD
ATOM     13  H   UNL     1      -1.445   5.350 -21.251  0.00  0.00    +0.000 HD
BRANCH   6  14
ATOM     14  C   UNL     1       0.937   1.353 -21.304  0.00  0.00    +0.000 C 
ATOM     15  H   UNL     1       0.598   0.313 -21.271  0.00  0.00    +0.000 HD
ATOM     16  H   UNL     1       1.149   1.588 -22.353  0.00  0.00    +0.000 HD
ATOM     17  H   UNL     1       1.867   1.440 -20.733  0.00  0.00    +0.000 HD
ENDBRANCH   6  14
ENDBRANCH   3   4
BRANCH   2  18
ATOM     18  C   UNL     1      -3.040   2.524 -15.494  0.00  0.00    +0.000 C 
ATOM     19  H   UNL     1      -3.468   1.524 -15.630  0.00  0.00    +0.000 HD
ATOM     20  H   UNL     1      -2.362   2.476 -14.636  0.00  0.00    +0.000 HD
BRANCH  18  21
ATOM     21  C   UNL     1      -4.165   3.505 -15.240  0.00  0.00    +0.000 C 
ATOM     22  H   UNL     1      -3.802   4.537 -15.245  0.00  0.00    +0.000 HD
ATOM     23  H   UNL     1      -4.942   3.422 -16.009  0.00  0.00    +0.000 HD
ATOM     24  H   UNL     1      -4.628   3.312 -14.268  0.00  0.00    +0.000 HD
ENDBRANCH  18  21
ENDBRANCH   2  18
BRANCH   2  25
ATOM     25  C   UNL     1      -1.195   3.821 -16.502  0.00  0.00    +0.000 C 
ATOM     26  H   UNL     1      -0.527   3.819 -17.368  0.00  0.00    +0.000 HD
ATOM     27  H   UNL     1      -1.610   4.832 -16.436  0.00  0.00    +0.000 HD
BRANCH  25  28
ATOM     28  C   UNL     1      -0.398   3.503 -15.252  0.00  0.00    +0.000 C 
ATOM     29  H   UNL     1      -0.031   4.419 -14.779  0.00  0.00    +0.000 HD
ATOM     30  H   UNL     1      -0.984   2.963 -14.507  0.00  0.00    +0.000 HD
ATOM     31  H   UNL     1       0.470   2.887 -15.508  0.00  0.00    +0.000 HD
ENDBRANCH  25  28
ENDBRANCH   2  25
TORSDOF 6
ENDMDL
MODEL 5
REMARK VINA RESULT:    -4.206     32.103     35.153
REMARK INTER + INTRA:          -5.622
REMARK INTER:                  -5.368
REMARK INTRA:                  -0.253
REMARK UNBOUND:                -0.309
REMARK  Name = 4284
REMARK  6 active torsions:
REMARK  status: ('A' for Active; 'I' for Inactive)
REMARK    1  A    between atoms: N_2  and  C_3
REMARK    2  A    between atoms: N_2  and  C_4
REMARK    3  A    between atoms: C_3  and  C_7
REMARK    4  A    between atoms: C_4  and  C_8
REMARK    5  A    between atoms: C_5  and  C_6
REMARK    6  A    between atoms: C_10  and  C_14
REMARK                            x       y       z     vdW  Elec       q    Type
REMARK                         _______ _______ _______ _____ _____    ______ ____
ROOT
ATOM      1  O   UNL     1       6.779  -9.747 -24.331  0.00  0.00    +0.000 OA
ATOM      2  N   UNL     1       5.213 -11.345 -25.009  0.00  0.00    +0.000 N 
ATOM      3  C   UNL     1       6.411 -10.617 -25.131  0.00  0.00    +0.000 C 
ENDROOT
BRANCH   3   4
ATOM      4  C   UNL     1       7.293 -10.898 -26.252  0.00  0.00    +0.000 A 
ATOM      5  C   UNL     1       7.276 -10.074 -27.378  0.00  0.00    +0.000 A 
ATOM      6  C   UNL     1       8.126 -10.343 -28.451  0.00  0.00    +0.000 A 
ATOM      7  C   UNL     1       8.160 -11.990 -26.199  0.00  0.00    +0.000 A 
ATOM      8  C   UNL     1       8.992 -11.435 -28.400  0.00  0.00    +0.000 A 
ATOM      9  C   UNL     1       9.009 -12.259 -27.274  0.00  0.00    +0.000 A 
ATOM     10  H   UNL     1       6.608  -9.217 -27.415  0.00  0.00    +0.000 HD
ATOM     11  H   UNL     1       8.182 -12.638 -25.327  0.00  0.00    +0.000 HD
ATOM     12  H   UNL     1       9.657 -11.657 -29.230  0.00  0.00    +0.000 HD
ATOM     13  H   UNL     1       9.683 -13.109 -27.232  0.00  0.00    +0.000 HD
BRANCH   6  14
ATOM     14  C   UNL     1       8.107  -9.463 -29.655  0.00  0.00    +0.000 C 
ATOM     15  H   UNL     1       7.242  -8.793 -29.639  0.00  0.00    +0.000 HD
ATOM     16  H   UNL     1       9.001  -8.831 -29.700  0.00  0.00    +0.000 HD
ATOM     17  H   UNL     1       8.065 -10.071 -30.565  0.00  0.00    +0.000 HD
ENDBRANCH   6  14
ENDBRANCH   3   4
BRANCH   2  18
ATOM     18  C   UNL     1       4.285 -11.132 -23.907  0.00  0.00    +0.000 C 
ATOM     19  H   UNL     1       3.647 -12.019 -23.816  0.00  0.00    +0.000 HD
ATOM     20  H   UNL     1       4.842 -11.033 -22.970  0.00  0.00    +0.000 HD
BRANCH  18  21
ATOM     21  C   UNL     1       3.406  -9.922 -24.146  0.00  0.00    +0.000 C 
ATOM     22  H   UNL     1       3.585  -9.491 -25.136  0.00  0.00    +0.000 HD
ATOM     23  H   UNL     1       2.345 -10.187 -24.085  0.00  0.00    +0.000 HD
ATOM     24  H   UNL     1       3.608  -9.151 -23.397  0.00  0.00    +0.000 HD
ENDBRANCH  18  21
ENDBRANCH   2  18
BRANCH   2  25
ATOM     25  C   UNL     1       4.819 -12.364 -25.980  0.00  0.00    +0.000 C 
ATOM     26  H   UNL     1       3.812 -12.167 -26.359  0.00  0.00    +0.000 HD
ATOM     27  H   UNL     1       5.488 -12.308 -26.845  0.00  0.00    +0.000 HD
BRANCH  25  28
ATOM     28  C   UNL     1       4.865 -13.752 -25.375  0.00  0.00    +0.000 C 
ATOM     29  H   UNL     1       3.863 -14.191 -25.325  0.00  0.00    +0.000 HD
ATOM     30  H   UNL     1       5.492 -14.438 -25.945  0.00  0.00    +0.000 HD
ATOM     31  H   UNL     1       5.260 -13.705 -24.355  0.00  0.00    +0.000 HD
ENDBRANCH  25  28
ENDBRANCH   2  25
TORSDOF 6
ENDMDL
MODEL 6
REMARK VINA RESULT:    -4.204     28.565     30.812
REMARK INTER + INTRA:          -5.619
REMARK INTER:                  -5.304
REMARK INTRA:                  -0.315
REMARK UNBOUND:                -0.309
REMARK  Name = 4284
REMARK  6 active torsions:
REMARK  status: ('A' for Active; 'I' for Inactive)
REMARK    1  A    between atoms: N_2  and  C_3
REMARK    2  A    between atoms: N_2  and  C_4
REMARK    3  A    between atoms: C_3  and  C_7
REMARK    4  A    between atoms: C_4  and  C_8
REMARK    5  A    between atoms: C_5  and  C_6
REMARK    6  A    between atoms: C_10  and  C_14
REMARK                            x       y       z     vdW  Elec       q    Type
REMARK                         _______ _______ _______ _____ _____    ______ ____
ROOT
ATOM      1  O   UNL     1      -5.038  12.117  17.779  0.00  0.00    +0.000 OA
ATOM      2  N   UNL     1      -3.842  13.464  16.288  0.00  0.00    +0.000 N 
ATOM      3  C   UNL     1      -4.155  12.246  16.921  0.00  0.00    +0.000 C 
ENDROOT
BRANCH   3   4
ATOM      4  C   UNL     1      -3.416  11.051  16.549  0.00  0.00    +0.000 A 
ATOM      5  C   UNL     1      -3.836  10.279  15.466  0.00  0.00    +0.000 A 
ATOM      6  C   UNL     1      -3.124   9.133  15.108  0.00  0.00    +0.000 A 
ATOM      7  C   UNL     1      -2.285  10.677  17.275  0.00  0.00    +0.000 A 
ATOM      8  C   UNL     1      -1.994   8.759  15.834  0.00  0.00    +0.000 A 
ATOM      9  C   UNL     1      -1.574   9.531  16.918  0.00  0.00    +0.000 A 
ATOM     10  H   UNL     1      -4.712  10.575  14.893  0.00  0.00    +0.000 HD
ATOM     11  H   UNL     1      -1.949  11.271  18.121  0.00  0.00    +0.000 HD
ATOM     12  H   UNL     1      -1.432   7.868  15.568  0.00  0.00    +0.000 HD
ATOM     13  H   UNL     1      -0.694   9.241  17.484  0.00  0.00    +0.000 HD
BRANCH   6  14
ATOM     14  C   UNL     1      -3.573   8.308  13.950  0.00  0.00    +0.000 C 
ATOM     15  H   UNL     1      -4.414   7.665  14.228  0.00  0.00    +0.000 HD
ATOM     16  H   UNL     1      -3.912   8.939  13.120  0.00  0.00    +0.000 HD
ATOM     17  H   UNL     1      -2.749   7.679  13.595  0.00  0.00    +0.000 HD
ENDBRANCH   6  14
ENDBRANCH   3   4
BRANCH   2  18
ATOM     18  C   UNL     1      -4.547  14.701  16.595  0.00  0.00    +0.000 C 
ATOM     19  H   UNL     1      -4.826  14.687  17.655  0.00  0.00    +0.000 HD
ATOM     20  H   UNL     1      -3.879  15.554  16.443  0.00  0.00    +0.000 HD
BRANCH  18  21
ATOM     21  C   UNL     1      -5.805  14.843  15.763  0.00  0.00    +0.000 C 
ATOM     22  H   UNL     1      -5.766  15.737  15.133  0.00  0.00    +0.000 HD
ATOM     23  H   UNL     1      -5.944  13.978  15.105  0.00  0.00    +0.000 HD
ATOM     24  H   UNL     1      -6.684  14.922  16.411  0.00  0.00    +0.000 HD
ENDBRANCH  18  21
ENDBRANCH   2  18
BRANCH   2  25
ATOM     25  C   UNL     1      -2.791  13.569  15.279  0.00  0.00    +0.000 C 
ATOM     26  H   UNL     1      -2.524  12.580  14.895  0.00  0.00    +0.000 HD
ATOM     27  H   UNL     1      -3.174  14.136  14.424  0.00  0.00    +0.000 HD
BRANCH  25  28
ATOM     28  C   UNL     1      -1.553  14.242  15.837  0.00  0.00    +0.000 C 
ATOM     29  H   UNL     1      -1.114  13.646  16.644  0.00  0.00    +0.000 HD
ATOM     30  H   UNL     1      -0.778  14.388  15.083  0.00  0.00    +0.000 HD
ATOM     31  H   UNL     1      -1.811  15.223  16.248  0.00  0.00    +0.000 HD
ENDBRANCH  25  28
ENDBRANCH   2  25
TORSDOF 6
ENDMDL
MODEL 7
REMARK VINA RESULT:    -4.057     27.057     28.896
REMARK INTER + INTRA:          -5.434
REMARK INTER:                  -5.168
REMARK INTRA:                  -0.265
REMARK UNBOUND:                -0.309
REMARK  Name = 4284
REMARK  6 active torsions:
REMARK  status: ('A' for Active; 'I' for Inactive)
REMARK    1  A    between atoms: N_2  and  C_3
REMARK    2  A    between atoms: N_2  and  C_4
REMARK    3  A    between atoms: C_3  and  C_7
REMARK    4  A    between atoms: C_4  and  C_8
REMARK    5  A    between atoms: C_5  and  C_6
REMARK    6  A    between atoms: C_10  and  C_14
REMARK                            x       y       z     vdW  Elec       q    Type
REMARK                         _______ _______ _______ _____ _____    ______ ____
ROOT
ATOM      1  O   UNL     1      -3.377  12.171  10.657  0.00  0.00    +0.000 OA
ATOM      2  N   UNL     1      -1.293  12.720  11.562  0.00  0.00    +0.000 N 
ATOM      3  C   UNL     1      -2.337  11.834  11.237  0.00  0.00    +0.000 C 
ENDROOT
BRANCH   3   4
ATOM      4  C   UNL     1      -2.200  10.429  11.584  0.00  0.00    +0.000 A 
ATOM      5  C   UNL     1      -2.811   9.931  12.735  0.00  0.00    +0.000 A 
ATOM      6  C   UNL     1      -2.681   8.581  13.065  0.00  0.00    +0.000 A 
ATOM      7  C   UNL     1      -1.461   9.577  10.762  0.00  0.00    +0.000 A 
ATOM      8  C   UNL     1      -1.941   7.730  12.244  0.00  0.00    +0.000 A 
ATOM      9  C   UNL     1      -1.331   8.228  11.093  0.00  0.00    +0.000 A 
ATOM     10  H   UNL     1      -3.396  10.591  13.370  0.00  0.00    +0.000 HD
ATOM     11  H   UNL     1      -0.981   9.955   9.863  0.00  0.00    +0.000 HD
ATOM     12  H   UNL     1      -1.830   6.678  12.491  0.00  0.00    +0.000 HD
ATOM     13  H   UNL     1      -0.755   7.566  10.453  0.00  0.00    +0.000 HD
BRANCH   6  14
ATOM     14  C   UNL     1      -3.334   8.049  14.296  0.00  0.00    +0.000 C 
ATOM     15  H   UNL     1      -2.728   8.257  15.183  0.00  0.00    +0.000 HD
ATOM     16  H   UNL     1      -4.313   8.512  14.459  0.00  0.00    +0.000 HD
ATOM     17  H   UNL     1      -3.471   6.966  14.209  0.00  0.00    +0.000 HD
ENDBRANCH   6  14
ENDBRANCH   3   4
BRANCH   2  18
ATOM     18  C   UNL     1      -1.348  14.138  11.233  0.00  0.00    +0.000 C 
ATOM     19  H   UNL     1      -2.382  14.481  11.355  0.00  0.00    +0.000 HD
ATOM     20  H   UNL     1      -0.730  14.703  11.937  0.00  0.00    +0.000 HD
BRANCH  18  21
ATOM     21  C   UNL     1      -0.916  14.394   9.805  0.00  0.00    +0.000 C 
ATOM     22  H   UNL     1       0.175  14.423   9.718  0.00  0.00    +0.000 HD
ATOM     23  H   UNL     1      -1.281  13.608   9.134  0.00  0.00    +0.000 HD
ATOM     24  H   UNL     1      -1.311  15.352   9.453  0.00  0.00    +0.000 HD
ENDBRANCH  18  21
ENDBRANCH   2  18
BRANCH   2  25
ATOM     25  C   UNL     1      -0.081  12.277  12.248  0.00  0.00    +0.000 C 
ATOM     26  H   UNL     1       0.067  11.201  12.114  0.00  0.00    +0.000 HD
ATOM     27  H   UNL     1       0.786  12.764  11.789  0.00  0.00    +0.000 HD
BRANCH  25  28
ATOM     28  C   UNL     1      -0.135  12.596  13.728  0.00  0.00    +0.000 C 
ATOM     29  H   UNL     1      -1.148  12.879  14.031  0.00  0.00    +0.000 HD
ATOM     30  H   UNL     1       0.167  11.753  14.351  0.00  0.00    +0.000 HD
ATOM     31  H   UNL     1       0.529  13.436  13.956  0.00  0.00    +0.000 HD
ENDBRANCH  25  28
ENDBRANCH   2  25
TORSDOF 6
ENDMDL
MODEL 8
REMARK VINA RESULT:    -4.043     27.957     29.550
REMARK INTER + INTRA:          -5.416
REMARK INTER:                  -5.125
REMARK INTRA:                  -0.291
REMARK UNBOUND:                -0.309
REMARK  Name = 4284
REMARK  6 active torsions:
REMARK  status: ('A' for Active; 'I' for Inactive)
REMARK    1  A    between atoms: N_2  and  C_3
REMARK    2  A    between atoms: N_2  and  C_4
REMARK    3  A    between atoms: C_3  and  C_7
REMARK    4  A    between atoms: C_4  and  C_8
REMARK    5  A    between atoms: C_5  and  C_6
REMARK    6  A    between atoms: C_10  and  C_14
REMARK                            x       y       z     vdW  Elec       q    Type
REMARK                         _______ _______ _______ _____ _____    ______ ____
ROOT
ATOM      1  O   UNL     1       8.370  -1.848  12.220  0.00  0.00    +0.000 OA
ATOM      2  N   UNL     1       8.443  -0.389  14.044  0.00  0.00    +0.000 N 
ATOM      3  C   UNL     1       7.914  -1.462  13.304  0.00  0.00    +0.000 C 
ENDROOT
BRANCH   3   4
ATOM      4  C   UNL     1       6.769  -2.184  13.833  0.00  0.00    +0.000 A 
ATOM      5  C   UNL     1       6.956  -3.389  14.510  0.00  0.00    +0.000 A 
ATOM      6  C   UNL     1       5.856  -4.080  15.020  0.00  0.00    +0.000 A 
ATOM      7  C   UNL     1       5.483  -1.670  13.665  0.00  0.00    +0.000 A 
ATOM      8  C   UNL     1       4.570  -3.566  14.852  0.00  0.00    +0.000 A 
ATOM      9  C   UNL     1       4.383  -2.361  14.175  0.00  0.00    +0.000 A 
ATOM     10  H   UNL     1       7.958  -3.786  14.651  0.00  0.00    +0.000 HD
ATOM     11  H   UNL     1       5.326  -0.732  13.139  0.00  0.00    +0.000 HD
ATOM     12  H   UNL     1       3.705  -4.095  15.242  0.00  0.00    +0.000 HD
ATOM     13  H   UNL     1       3.383  -1.960  14.044  0.00  0.00    +0.000 HD
BRANCH   6  14
ATOM     14  C   UNL     1       6.055  -5.368  15.745  0.00  0.00    +0.000 C 
ATOM     15  H   UNL     1       5.401  -5.432  16.620  0.00  0.00    +0.000 HD
ATOM     16  H   UNL     1       5.819  -6.226  15.105  0.00  0.00    +0.000 HD
ATOM     17  H   UNL     1       7.095  -5.456  16.075  0.00  0.00    +0.000 HD
ENDBRANCH   6  14
ENDBRANCH   3   4
BRANCH   2  18
ATOM     18  C   UNL     1       9.598   0.374  13.588  0.00  0.00    +0.000 C 
ATOM     19  H   UNL     1      10.358   0.356  14.378  0.00  0.00    +0.000 HD
ATOM     20  H   UNL     1      10.031  -0.106  12.706  0.00  0.00    +0.000 HD
BRANCH  18  21
ATOM     21  C   UNL     1       9.232   1.815  13.298  0.00  0.00    +0.000 C 
ATOM     22  H   UNL     1       8.520   1.885  12.470  0.00  0.00    +0.000 HD
ATOM     23  H   UNL     1       8.773   2.289  14.172  0.00  0.00    +0.000 HD
ATOM     24  H   UNL     1      10.125   2.388  13.028  0.00  0.00    +0.000 HD
ENDBRANCH  18  21
ENDBRANCH   2  18
BRANCH   2  25
ATOM     25  C   UNL     1       7.871   0.033  15.321  0.00  0.00    +0.000 C 
ATOM     26  H   UNL     1       7.733   1.118  15.342  0.00  0.00    +0.000 HD
ATOM     27  H   UNL     1       6.873  -0.405  15.425  0.00  0.00    +0.000 HD
BRANCH  25  28
ATOM     28  C   UNL     1       8.747  -0.385  16.485  0.00  0.00    +0.000 C 
ATOM     29  H   UNL     1       8.788  -1.475  16.573  0.00  0.00    +0.000 HD
ATOM     30  H   UNL     1       9.773  -0.028  16.388  0.00  0.00    +0.000 HD
ATOM     31  H   UNL     1       8.341   0.011  17.422  0.00  0.00    +0.000 HD
ENDBRANCH  25  28
ENDBRANCH   2  25
TORSDOF 6
ENDMDL
MODEL 9
REMARK VINA RESULT:    -4.000     30.969     32.970
REMARK INTER + INTRA:          -5.361
REMARK INTER:                  -5.053
REMARK INTRA:                  -0.309
REMARK UNBOUND:                -0.309
REMARK  Name = 4284
REMARK  6 active torsions:
REMARK  status: ('A' for Active; 'I' for Inactive)
REMARK    1  A    between atoms: N_2  and  C_3
REMARK    2  A    between atoms: N_2  and  C_4
REMARK    3  A    between atoms: C_3  and  C_7
REMARK    4  A    between atoms: C_4  and  C_8
REMARK    5  A    between atoms: C_5  and  C_6
REMARK    6  A    between atoms: C_10  and  C_14
REMARK                            x       y       z     vdW  Elec       q    Type
REMARK                         _______ _______ _______ _____ _____    ______ ____
ROOT
ATOM      1  O   UNL     1       4.075   8.998  20.236  0.00  0.00    +0.000 OA
ATOM      2  N   UNL     1       4.771   8.160  18.168  0.00  0.00    +0.000 N 
ATOM      3  C   UNL     1       3.806   8.562  19.110  0.00  0.00    +0.000 C 
ENDROOT
BRANCH   3   4
ATOM      4  C   UNL     1       2.399   8.480  18.753  0.00  0.00    +0.000 A 
ATOM      5  C   UNL     1       1.668   7.330  19.053  0.00  0.00    +0.000 A 
ATOM      6  C   UNL     1       0.317   7.255  18.713  0.00  0.00    +0.000 A 
ATOM      7  C   UNL     1       1.779   9.553  18.111  0.00  0.00    +0.000 A 
ATOM      8  C   UNL     1      -0.303   8.327  18.071  0.00  0.00    +0.000 A 
ATOM      9  C   UNL     1       0.429   9.476  17.770  0.00  0.00    +0.000 A 
ATOM     10  H   UNL     1       2.147   6.498  19.563  0.00  0.00    +0.000 HD
ATOM     11  H   UNL     1       2.340  10.453  17.872  0.00  0.00    +0.000 HD
ATOM     12  H   UNL     1      -1.353   8.280  17.798  0.00  0.00    +0.000 HD
ATOM     13  H   UNL     1      -0.053  10.312  17.271  0.00  0.00    +0.000 HD
BRANCH   6  14
ATOM     14  C   UNL     1      -0.465   6.026  19.035  0.00  0.00    +0.000 C 
ATOM     15  H   UNL     1      -1.489   6.278  19.328  0.00  0.00    +0.000 HD
ATOM     16  H   UNL     1      -0.534   5.360  18.168  0.00  0.00    +0.000 HD
ATOM     17  H   UNL     1       0.013   5.481  19.856  0.00  0.00    +0.000 HD
ENDBRANCH   6  14
ENDBRANCH   3   4
BRANCH   2  18
ATOM     18  C   UNL     1       6.200   8.228  18.445  0.00  0.00    +0.000 C 
ATOM     19  H   UNL     1       6.712   8.580  17.542  0.00  0.00    +0.000 HD
ATOM     20  H   UNL     1       6.388   8.961  19.235  0.00  0.00    +0.000 HD
BRANCH  18  21
ATOM     21  C   UNL     1       6.756   6.870  18.821  0.00  0.00    +0.000 C 
ATOM     22  H   UNL     1       5.963   6.192  19.149  0.00  0.00    +0.000 HD
ATOM     23  H   UNL     1       7.264   6.402  17.971  0.00  0.00    +0.000 HD
ATOM     24  H   UNL     1       7.479   6.967  19.637  0.00  0.00    +0.000 HD
ENDBRANCH  18  21
ENDBRANCH   2  18
BRANCH   2  25
ATOM     25  C   UNL     1       4.407   7.651  16.848  0.00  0.00    +0.000 C 
ATOM     26  H   UNL     1       4.720   6.609  16.736  0.00  0.00    +0.000 HD
ATOM     27  H   UNL     1       3.316   7.654  16.754  0.00  0.00    +0.000 HD
BRANCH  25  28
ATOM     28  C   UNL     1       5.026   8.482  15.743  0.00  0.00    +0.000 C 
ATOM     29  H   UNL     1       6.114   8.532  15.853  0.00  0.00    +0.000 HD
ATOM     30  H   UNL     1       4.818   8.082  14.749  0.00  0.00    +0.000 HD
ATOM     31  H   UNL     1       4.639   9.506  15.781  0.00  0.00    +0.000 HD
ENDBRANCH  25  28
ENDBRANCH   2  25
TORSDOF 6
ENDMDL
MODEL 10
REMARK VINA RESULT:    -3.956     32.415     33.586
REMARK INTER + INTRA:          -5.306
REMARK INTER:                  -5.020
REMARK INTRA:                  -0.286
REMARK UNBOUND:                -0.309
REMARK  Name = 4284
REMARK  6 active torsions:
REMARK  status: ('A' for Active; 'I' for Inactive)
REMARK    1  A    between atoms: N_2  and  C_3
REMARK    2  A    between atoms: N_2  and  C_4
REMARK    3  A    between atoms: C_3  and  C_7
REMARK    4  A    between atoms: C_4  and  C_8
REMARK    5  A    between atoms: C_5  and  C_6
REMARK    6  A    between atoms: C_10  and  C_14
REMARK                            x       y       z     vdW  Elec       q    Type
REMARK                         _______ _______ _______ _____ _____    ______ ____
ROOT
ATOM      1  O   UNL     1       1.780  15.189 -10.563  0.00  0.00    +0.000 OA
ATOM      2  N   UNL     1       2.582  13.084 -11.187  0.00  0.00    +0.000 N 
ATOM      3  C   UNL     1       2.684  14.344 -10.570  0.00  0.00    +0.000 C 
ENDROOT
BRANCH   3   4
ATOM      4  C   UNL     1       3.916  14.692  -9.882  0.00  0.00    +0.000 A 
ATOM      5  C   UNL     1       4.966  15.284 -10.583  0.00  0.00    +0.000 A 
ATOM      6  C   UNL     1       6.147  15.620  -9.920  0.00  0.00    +0.000 A 
ATOM      7  C   UNL     1       4.047  14.434  -8.516  0.00  0.00    +0.000 A 
ATOM      8  C   UNL     1       6.279  15.362  -8.556  0.00  0.00    +0.000 A 
ATOM      9  C   UNL     1       5.229  14.769  -7.854  0.00  0.00    +0.000 A 
ATOM     10  H   UNL     1       4.861  15.495 -11.645  0.00  0.00    +0.000 HD
ATOM     11  H   UNL     1       3.236  13.973  -7.960  0.00  0.00    +0.000 HD
ATOM     12  H   UNL     1       7.194  15.616  -8.028  0.00  0.00    +0.000 HD
ATOM     13  H   UNL     1       5.330  14.568  -6.791  0.00  0.00    +0.000 HD
BRANCH   6  14
ATOM     14  C   UNL     1       7.269  16.254 -10.670  0.00  0.00    +0.000 C 
ATOM     15  H   UNL     1       6.918  17.113 -11.250  0.00  0.00    +0.000 HD
ATOM     16  H   UNL     1       8.046  16.621  -9.990  0.00  0.00    +0.000 HD
ATOM     17  H   UNL     1       7.721  15.528 -11.355  0.00  0.00    +0.000 HD
ENDBRANCH   6  14
ENDBRANCH   3   4
BRANCH   2  18
ATOM     18  C   UNL     1       1.375  12.657 -11.883  0.00  0.00    +0.000 C 
ATOM     19  H   UNL     1       0.685  13.507 -11.933  0.00  0.00    +0.000 HD
ATOM     20  H   UNL     1       1.622  12.375 -12.911  0.00  0.00    +0.000 HD
BRANCH  18  21
ATOM     21  C   UNL     1       0.691  11.516 -11.158  0.00  0.00    +0.000 C 
ATOM     22  H   UNL     1      -0.202  11.182 -11.695  0.00  0.00    +0.000 HD
ATOM     23  H   UNL     1       1.360  10.655 -11.057  0.00  0.00    +0.000 HD
ATOM     24  H   UNL     1       0.387  11.831 -10.155  0.00  0.00    +0.000 HD
ENDBRANCH  18  21
ENDBRANCH   2  18
BRANCH   2  25
ATOM     25  C   UNL     1       3.677  12.117 -11.170  0.00  0.00    +0.000 C 
ATOM     26  H   UNL     1       4.531  12.511 -10.612  0.00  0.00    +0.000 HD
ATOM     27  H   UNL     1       3.350  11.219 -10.636  0.00  0.00    +0.000 HD
BRANCH  25  28
ATOM     28  C   UNL     1       4.119  11.755 -12.574  0.00  0.00    +0.000 C 
ATOM     29  H   UNL     1       3.319  11.945 -13.297  0.00  0.00    +0.000 HD
ATOM     30  H   UNL     1       4.992  12.322 -12.899  0.00  0.00    +0.000 HD
ATOM     31  H   UNL     1       4.371  10.691 -12.626  0.00  0.00    +0.000 HD
ENDBRANCH  25  28
ENDBRANCH   2  25
TORSDOF 6
ENDMDL
