MODEL 1
REMARK VINA RESULT:    -3.283      0.000      0.000
REMARK INTER + INTRA:          -3.667
REMARK INTER:                  -3.667
REMARK INTRA:                   0.000
REMARK UNBOUND:                 0.000
REMARK  Name = 650
REMARK  3 active torsions:
REMARK  status: ('A' for Active; 'I' for Inactive)
REMARK    1  A    between atoms: C_3  and  C_4
REMARK    2  A    between atoms: C_3  and  C_5
REMARK    3  A    between atoms: C_4  and  C_6
REMARK                            x       y       z     vdW  Elec       q    Type
REMARK                         _______ _______ _______ _____ _____    ______ ____
ROOT
ATOM      1  O   UNL     1       6.194  -0.408  -1.158  0.00  0.00    +0.000 OA
ATOM      2  C   UNL     1       6.065  -0.834  -2.298  0.00  0.00    +0.000 C 
ENDROOT
BRANCH   2   3
ATOM      3  C   UNL     1       6.036  -2.294  -2.639  0.00  0.00    +0.000 C 
ATOM      4  H   UNL     1       6.698  -2.495  -3.485  0.00  0.00    +0.000 HD
ATOM      5  H   UNL     1       5.019  -2.577  -2.926  0.00  0.00    +0.000 HD
ATOM      6  H   UNL     1       6.325  -2.889  -1.771  0.00  0.00    +0.000 HD
ENDBRANCH   2   3
BRANCH   2   8
ATOM      7  O   UNL     1       5.706   1.340  -3.113  0.00  0.00    +0.000 OA
ATOM      8  C   UNL     1       5.927   0.175  -3.418  0.00  0.00    +0.000 C 
BRANCH   8   9
ATOM      9  C   UNL     1       6.067  -0.299  -4.833  0.00  0.00    +0.000 C 
ATOM     10  H   UNL     1       5.374  -1.122  -5.024  0.00  0.00    +0.000 HD
ATOM     11  H   UNL     1       5.821   0.521  -5.514  0.00  0.00    +0.000 HD
ATOM     12  H   UNL     1       7.097  -0.607  -5.026  0.00  0.00    +0.000 HD
ENDBRANCH   8   9
ENDBRANCH   2   8
TORSDOF 3
ENDMDL
MODEL 2
REMARK VINA RESULT:    -3.269      1.798      2.086
REMARK INTER + INTRA:          -3.651
REMARK INTER:                  -3.651
REMARK INTRA:                   0.000
REMARK UNBOUND:                 0.000
REMARK  Name = 650
REMARK  3 active torsions:
REMARK  status: ('A' for Active; 'I' for Inactive)
REMARK    1  A    between atoms: C_3  and  C_4
REMARK    2  A    between atoms: C_3  and  C_5
REMARK    3  A    between atoms: C_4  and  C_6
REMARK                            x       y       z     vdW  Elec       q    Type
REMARK                         _______ _______ _______ _____ _____    ______ ____
ROOT
ATOM      1  O   UNL     1       6.990  -1.338  -4.625  0.00  0.00    +0.000 OA
ATOM      2  C   UNL     1       6.288  -1.091  -3.652  0.00  0.00    +0.000 C 
ENDROOT
BRANCH   2   3
ATOM      3  C   UNL     1       5.979  -2.089  -2.577  0.00  0.00    +0.000 C 
ATOM      4  H   UNL     1       4.928  -2.382  -2.627  0.00  0.00    +0.000 HD
ATOM      5  H   UNL     1       6.162  -1.634  -1.599  0.00  0.00    +0.000 HD
ATOM      6  H   UNL     1       6.629  -2.961  -2.675  0.00  0.00    +0.000 HD
ENDBRANCH   2   3
BRANCH   2   8
ATOM      7  O   UNL     1       4.778   0.596  -4.280  0.00  0.00    +0.000 OA
ATOM      8  C   UNL     1       5.706   0.302  -3.537  0.00  0.00    +0.000 C 
BRANCH   8   9
ATOM      9  C   UNL     1       6.289   1.243  -2.528  0.00  0.00    +0.000 C 
ATOM     10  H   UNL     1       6.362   2.249  -2.949  0.00  0.00    +0.000 HD
ATOM     11  H   UNL     1       5.634   1.286  -1.653  0.00  0.00    +0.000 HD
ATOM     12  H   UNL     1       7.270   0.888  -2.205  0.00  0.00    +0.000 HD
ENDBRANCH   8   9
ENDBRANCH   2   8
TORSDOF 3
ENDMDL
MODEL 3
REMARK VINA RESULT:    -3.252      1.564      2.725
REMARK INTER + INTRA:          -3.632
REMARK INTER:                  -3.632
REMARK INTRA:                   0.000
REMARK UNBOUND:                 0.000
REMARK  Name = 650
REMARK  3 active torsions:
REMARK  status: ('A' for Active; 'I' for Inactive)
REMARK    1  A    between atoms: C_3  and  C_4
REMARK    2  A    between atoms: C_3  and  C_5
REMARK    3  A    between atoms: C_4  and  C_6
REMARK                            x       y       z     vdW  Elec       q    Type
REMARK                         _______ _______ _______ _____ _____    ______ ____
ROOT
ATOM      1  O   UNL     1       5.994   1.212  -2.925  0.00  0.00    +0.000 OA
ATOM      2  C   UNL     1       5.894   0.322  -3.761  0.00  0.00    +0.000 C 
ENDROOT
BRANCH   2   3
ATOM      3  C   UNL     1       5.127   0.469  -5.040  0.00  0.00    +0.000 C 
ATOM      4  H   UNL     1       4.056   0.372  -4.850  0.00  0.00    +0.000 HD
ATOM      5  H   UNL     1       5.425  -0.324  -5.732  0.00  0.00    +0.000 HD
ATOM      6  H   UNL     1       5.352   1.431  -5.506  0.00  0.00    +0.000 HD
ENDBRANCH   2   3
BRANCH   2   8
ATOM      7  O   UNL     1       7.653  -1.211  -4.037  0.00  0.00    +0.000 OA
ATOM      8  C   UNL     1       6.586  -0.994  -3.477  0.00  0.00    +0.000 C 
BRANCH   8   9
ATOM      9  C   UNL     1       5.935  -1.959  -2.532  0.00  0.00    +0.000 C 
ATOM     10  H   UNL     1       4.961  -2.268  -2.922  0.00  0.00    +0.000 HD
ATOM     11  H   UNL     1       6.563  -2.849  -2.435  0.00  0.00    +0.000 HD
ATOM     12  H   UNL     1       5.829  -1.504  -1.544  0.00  0.00    +0.000 HD
ENDBRANCH   8   9
ENDBRANCH   2   8
TORSDOF 3
ENDMDL
MODEL 4
REMARK VINA RESULT:    -3.149     10.760     11.041
REMARK INTER + INTRA:          -3.517
REMARK INTER:                  -3.517
REMARK INTRA:                   0.000
REMARK UNBOUND:                 0.000
REMARK  Name = 650
REMARK  3 active torsions:
REMARK  status: ('A' for Active; 'I' for Inactive)
REMARK    1  A    between atoms: C_3  and  C_4
REMARK    2  A    between atoms: C_3  and  C_5
REMARK    3  A    between atoms: C_4  and  C_6
REMARK                            x       y       z     vdW  Elec       q    Type
REMARK                         _______ _______ _______ _____ _____    ______ ____
ROOT
ATOM      1  O   UNL     1      14.960   3.259  -2.671  0.00  0.00    +0.000 OA
ATOM      2  C   UNL     1      15.220   3.723  -3.773  0.00  0.00    +0.000 C 
ENDROOT
BRANCH   2   3
ATOM      3  C   UNL     1      14.226   3.811  -4.892  0.00  0.00    +0.000 C 
ATOM      4  H   UNL     1      14.152   4.841  -5.249  0.00  0.00    +0.000 HD
ATOM      5  H   UNL     1      13.242   3.505  -4.525  0.00  0.00    +0.000 HD
ATOM      6  H   UNL     1      14.512   3.139  -5.704  0.00  0.00    +0.000 HD
ENDBRANCH   2   3
BRANCH   2   8
ATOM      7  O   UNL     1      17.477   3.973  -3.171  0.00  0.00    +0.000 OA
ATOM      8  C   UNL     1      16.625   4.235  -4.010  0.00  0.00    +0.000 C 
BRANCH   8   9
ATOM      9  C   UNL     1      16.900   5.029  -5.251  0.00  0.00    +0.000 C 
ATOM     10  H   UNL     1      17.474   5.926  -5.004  0.00  0.00    +0.000 HD
ATOM     11  H   UNL     1      17.494   4.424  -5.943  0.00  0.00    +0.000 HD
ATOM     12  H   UNL     1      15.963   5.293  -5.744  0.00  0.00    +0.000 HD
ENDBRANCH   8   9
ENDBRANCH   2   8
TORSDOF 3
ENDMDL
MODEL 5
REMARK VINA RESULT:    -3.045      1.784      2.395
REMARK INTER + INTRA:          -3.401
REMARK INTER:                  -3.401
REMARK INTRA:                   0.000
REMARK UNBOUND:                 0.000
REMARK  Name = 650
REMARK  3 active torsions:
REMARK  status: ('A' for Active; 'I' for Inactive)
REMARK    1  A    between atoms: C_3  and  C_4
REMARK    2  A    between atoms: C_3  and  C_5
REMARK    3  A    between atoms: C_4  and  C_6
REMARK                            x       y       z     vdW  Elec       q    Type
REMARK                         _______ _______ _______ _____ _____    ______ ____
ROOT
ATOM      1  O   UNL     1       7.072  -0.998  -0.810  0.00  0.00    +0.000 OA
ATOM      2  C   UNL     1       6.792  -0.614  -1.938  0.00  0.00    +0.000 C 
ENDROOT
BRANCH   2   3
ATOM      3  C   UNL     1       6.840   0.823  -2.361  0.00  0.00    +0.000 C 
ATOM      4  H   UNL     1       6.667   1.474  -1.500  0.00  0.00    +0.000 HD
ATOM      5  H   UNL     1       6.051   1.010  -3.095  0.00  0.00    +0.000 HD
ATOM      6  H   UNL     1       7.801   1.046  -2.828  0.00  0.00    +0.000 HD
ENDBRANCH   2   3
BRANCH   2   8
ATOM      7  O   UNL     1       5.911  -2.708  -2.537  0.00  0.00    +0.000 OA
ATOM      8  C   UNL     1       6.376  -1.656  -2.955  0.00  0.00    +0.000 C 
BRANCH   8   9
ATOM      9  C   UNL     1       6.553  -1.348  -4.412  0.00  0.00    +0.000 C 
ATOM     10  H   UNL     1       5.585  -1.130  -4.870  0.00  0.00    +0.000 HD
ATOM     11  H   UNL     1       7.188  -0.464  -4.519  0.00  0.00    +0.000 HD
ATOM     12  H   UNL     1       7.041  -2.184  -4.916  0.00  0.00    +0.000 HD
ENDBRANCH   8   9
ENDBRANCH   2   8
TORSDOF 3
ENDMDL
MODEL 6
REMARK VINA RESULT:    -2.994      2.452      2.908
REMARK INTER + INTRA:          -3.344
REMARK INTER:                  -3.344
REMARK INTRA:                   0.000
REMARK UNBOUND:                 0.000
REMARK  Name = 650
REMARK  3 active torsions:
REMARK  status: ('A' for Active; 'I' for Inactive)
REMARK    1  A    between atoms: C_3  and  C_4
REMARK    2  A    between atoms: C_3  and  C_5
REMARK    3  A    between atoms: C_4  and  C_6
REMARK                            x       y       z     vdW  Elec       q    Type
REMARK                         _______ _______ _______ _____ _____    ______ ____
ROOT
ATOM      1  O   UNL     1       8.526  -0.655  -4.594  0.00  0.00    +0.000 OA
ATOM      2  C   UNL     1       8.133  -1.285  -3.621  0.00  0.00    +0.000 C 
ENDROOT
BRANCH   2   3
ATOM      3  C   UNL     1       9.049  -1.910  -2.612  0.00  0.00    +0.000 C 
ATOM      4  H   UNL     1       9.913  -2.354  -3.113  0.00  0.00    +0.000 HD
ATOM      5  H   UNL     1       8.515  -2.705  -2.084  0.00  0.00    +0.000 HD
ATOM      6  H   UNL     1       9.366  -1.166  -1.879  0.00  0.00    +0.000 HD
ENDBRANCH   2   3
BRANCH   2   8
ATOM      7  O   UNL     1       5.908  -0.626  -3.991  0.00  0.00    +0.000 OA
ATOM      8  C   UNL     1       6.638  -1.436  -3.435  0.00  0.00    +0.000 C 
BRANCH   8   9
ATOM      9  C   UNL     1       6.130  -2.562  -2.585  0.00  0.00    +0.000 C 
ATOM     10  H   UNL     1       6.583  -3.505  -2.901  0.00  0.00    +0.000 HD
ATOM     11  H   UNL     1       6.409  -2.381  -1.543  0.00  0.00    +0.000 HD
ATOM     12  H   UNL     1       5.041  -2.616  -2.644  0.00  0.00    +0.000 HD
ENDBRANCH   8   9
ENDBRANCH   2   8
TORSDOF 3
ENDMDL
MODEL 7
REMARK VINA RESULT:    -2.979      8.764      9.283
REMARK INTER + INTRA:          -3.328
REMARK INTER:                  -3.328
REMARK INTRA:                   0.000
REMARK UNBOUND:                 0.000
REMARK  Name = 650
REMARK  3 active torsions:
REMARK  status: ('A' for Active; 'I' for Inactive)
REMARK    1  A    between atoms: C_3  and  C_4
REMARK    2  A    between atoms: C_3  and  C_5
REMARK    3  A    between atoms: C_4  and  C_6
REMARK                            x       y       z     vdW  Elec       q    Type
REMARK                         _______ _______ _______ _____ _____    ______ ____
ROOT
ATOM      1  O   UNL     1      11.626   5.769  -4.092  0.00  0.00    +0.000 OA
ATOM      2  C   UNL     1      11.437   6.979  -4.121  0.00  0.00    +0.000 C 
ENDROOT
BRANCH   2   3
ATOM      3  C   UNL     1      12.542   7.991  -4.094  0.00  0.00    +0.000 C 
ATOM      4  H   UNL     1      12.366   8.719  -3.297  0.00  0.00    +0.000 HD
ATOM      5  H   UNL     1      12.564   8.527  -5.047  0.00  0.00    +0.000 HD
ATOM      6  H   UNL     1      13.505   7.495  -3.958  0.00  0.00    +0.000 HD
ENDBRANCH   2   3
BRANCH   2   8
ATOM      7  O   UNL     1       9.539   8.006  -3.193  0.00  0.00    +0.000 OA
ATOM      8  C   UNL     1      10.006   7.469  -4.189  0.00  0.00    +0.000 C 
BRANCH   8   9
ATOM      9  C   UNL     1       9.240   7.273  -5.463  0.00  0.00    +0.000 C 
ATOM     10  H   UNL     1       8.230   7.678  -5.360  0.00  0.00    +0.000 HD
ATOM     11  H   UNL     1       9.743   7.810  -6.272  0.00  0.00    +0.000 HD
ATOM     12  H   UNL     1       9.208   6.213  -5.723  0.00  0.00    +0.000 HD
ENDBRANCH   8   9
ENDBRANCH   2   8
TORSDOF 3
ENDMDL
MODEL 8
REMARK VINA RESULT:    -2.899      9.501      9.867
REMARK INTER + INTRA:          -3.238
REMARK INTER:                  -3.238
REMARK INTRA:                   0.000
REMARK UNBOUND:                 0.000
REMARK  Name = 650
REMARK  3 active torsions:
REMARK  status: ('A' for Active; 'I' for Inactive)
REMARK    1  A    between atoms: C_3  and  C_4
REMARK    2  A    between atoms: C_3  and  C_5
REMARK    3  A    between atoms: C_4  and  C_6
REMARK                            x       y       z     vdW  Elec       q    Type
REMARK                         _______ _______ _______ _____ _____    ______ ____
ROOT
ATOM      1  O   UNL     1      11.917   7.804  -2.164  0.00  0.00    +0.000 OA
ATOM      2  C   UNL     1      10.851   7.908  -2.758  0.00  0.00    +0.000 C 
ENDROOT
BRANCH   2   3
ATOM      3  C   UNL     1       9.515   7.815  -2.085  0.00  0.00    +0.000 C 
ATOM      4  H   UNL     1       9.404   6.839  -1.605  0.00  0.00    +0.000 HD
ATOM      5  H   UNL     1       8.726   7.919  -2.834  0.00  0.00    +0.000 HD
ATOM      6  H   UNL     1       9.403   8.620  -1.356  0.00  0.00    +0.000 HD
ENDBRANCH   2   3
BRANCH   2   8
ATOM      7  O   UNL     1      11.838   7.674  -4.877  0.00  0.00    +0.000 OA
ATOM      8  C   UNL     1      10.895   8.144  -4.252  0.00  0.00    +0.000 C 
BRANCH   8   9
ATOM      9  C   UNL     1       9.792   8.935  -4.887  0.00  0.00    +0.000 C 
ATOM     10  H   UNL     1       9.034   8.262  -5.295  0.00  0.00    +0.000 HD
ATOM     11  H   UNL     1       9.317   9.565  -4.129  0.00  0.00    +0.000 HD
ATOM     12  H   UNL     1      10.194   9.583  -5.668  0.00  0.00    +0.000 HD
ENDBRANCH   8   9
ENDBRANCH   2   8
TORSDOF 3
ENDMDL
MODEL 9
REMARK VINA RESULT:    -2.892      1.681      2.779
REMARK INTER + INTRA:          -3.230
REMARK INTER:                  -3.230
REMARK INTRA:                   0.000
REMARK UNBOUND:                 0.000
REMARK  Name = 650
REMARK  3 active torsions:
REMARK  status: ('A' for Active; 'I' for Inactive)
REMARK    1  A    between atoms: C_3  and  C_4
REMARK    2  A    between atoms: C_3  and  C_5
REMARK    3  A    between atoms: C_4  and  C_6
REMARK                            x       y       z     vdW  Elec       q    Type
REMARK                         _______ _______ _______ _____ _____    ______ ____
ROOT
ATOM      1  O   UNL     1       5.561  -1.611  -2.589  0.00  0.00    +0.000 OA
ATOM      2  C   UNL     1       5.763  -0.404  -2.581  0.00  0.00    +0.000 C 
ENDROOT
BRANCH   2   3
ATOM      3  C   UNL     1       5.332   0.516  -3.683  0.00  0.00    +0.000 C 
ATOM      4  H   UNL     1       4.850  -0.053  -4.481  0.00  0.00    +0.000 HD
ATOM      5  H   UNL     1       6.211   1.015  -4.101  0.00  0.00    +0.000 HD
ATOM      6  H   UNL     1       4.658   1.282  -3.292  0.00  0.00    +0.000 HD
ENDBRANCH   2   3
BRANCH   2   8
ATOM      7  O   UNL     1       6.830  -0.582  -0.495  0.00  0.00    +0.000 OA
ATOM      8  C   UNL     1       6.489   0.183  -1.388  0.00  0.00    +0.000 C 
BRANCH   8   9
ATOM      9  C   UNL     1       6.751   1.659  -1.362  0.00  0.00    +0.000 C 
ATOM     10  H   UNL     1       6.201   2.123  -0.540  0.00  0.00    +0.000 HD
ATOM     11  H   UNL     1       7.819   1.832  -1.201  0.00  0.00    +0.000 HD
ATOM     12  H   UNL     1       6.471   2.107  -2.318  0.00  0.00    +0.000 HD
ENDBRANCH   8   9
ENDBRANCH   2   8
TORSDOF 3
ENDMDL
MODEL 10
REMARK VINA RESULT:    -2.855      9.434     10.282
REMARK INTER + INTRA:          -3.188
REMARK INTER:                  -3.188
REMARK INTRA:                   0.000
REMARK UNBOUND:                 0.000
REMARK  Name = 650
REMARK  3 active torsions:
REMARK  status: ('A' for Active; 'I' for Inactive)
REMARK    1  A    between atoms: C_3  and  C_4
REMARK    2  A    between atoms: C_3  and  C_5
REMARK    3  A    between atoms: C_4  and  C_6
REMARK                            x       y       z     vdW  Elec       q    Type
REMARK                         _______ _______ _______ _____ _____    ______ ____
ROOT
ATOM      1  O   UNL     1      11.323   8.730  -4.050  0.00  0.00    +0.000 OA
ATOM      2  C   UNL     1      12.189   7.948  -3.676  0.00  0.00    +0.000 C 
ENDROOT
BRANCH   2   3
ATOM      3  C   UNL     1      13.496   7.758  -4.385  0.00  0.00    +0.000 C 
ATOM      4  H   UNL     1      13.333   7.275  -5.352  0.00  0.00    +0.000 HD
ATOM      5  H   UNL     1      14.141   7.111  -3.784  0.00  0.00    +0.000 HD
ATOM      6  H   UNL     1      13.999   8.719  -4.512  0.00  0.00    +0.000 HD
ENDBRANCH   2   3
BRANCH   2   8
ATOM      7  O   UNL     1      11.679   7.738  -1.392  0.00  0.00    +0.000 OA
ATOM      8  C   UNL     1      11.914   7.133  -2.430  0.00  0.00    +0.000 C 
BRANCH   8   9
ATOM      9  C   UNL     1      11.944   5.637  -2.530  0.00  0.00    +0.000 C 
ATOM     10  H   UNL     1      12.742   5.321  -3.205  0.00  0.00    +0.000 HD
ATOM     11  H   UNL     1      12.144   5.214  -1.541  0.00  0.00    +0.000 HD
ATOM     12  H   UNL     1      10.976   5.264  -2.872  0.00  0.00    +0.000 HD
ENDBRANCH   8   9
ENDBRANCH   2   8
TORSDOF 3
ENDMDL
