MODEL 1
REMARK VINA RESULT:    -4.288      0.000      0.000
REMARK INTER + INTRA:          -6.879
REMARK INTER:                  -6.542
REMARK INTRA:                  -0.337
REMARK UNBOUND:                -0.586
REMARK  Name = 31249
REMARK  9 active torsions:
REMARK  status: ('A' for Active; 'I' for Inactive)
REMARK    1  A    between atoms: O_1  and  C_7
REMARK    2  A    between atoms: O_1  and  C_9
REMARK    3  A    between atoms: O_2  and  C_8
REMARK    4  A    between atoms: O_2  and  C_10
REMARK    5  A    between atoms: C_5  and  C_6
REMARK    6  A    between atoms: C_5  and  C_7
REMARK    7  A    between atoms: C_6  and  C_8
REMARK    8  A    between atoms: C_9  and  C_11
REMARK    9  A    between atoms: C_10  and  C_12
REMARK                            x       y       z     vdW  Elec       q    Type
REMARK                         _______ _______ _______ _____ _____    ______ ____
ROOT
ATOM      1  C   UNL     1      12.480   5.489  -3.963  0.00  0.00    +0.000 C 
ATOM      2  H   UNL     1      11.780   5.435  -4.806  0.00  0.00    +0.000 HD
ATOM      3  H   UNL     1      12.593   4.484  -3.542  0.00  0.00    +0.000 HD
ENDROOT
BRANCH   1   4
ATOM      4  C   UNL     1      11.927   6.430  -2.897  0.00  0.00    +0.000 C 
ATOM      5  H   UNL     1      11.707   5.863  -1.984  0.00  0.00    +0.000 HD
ATOM      6  H   UNL     1      12.675   7.195  -2.656  0.00  0.00    +0.000 HD
BRANCH   4   8
ATOM      7  O   UNL     1       9.779   7.533  -2.586  0.00  0.00    +0.000 OA
ATOM      8  C   UNL     1      10.658   7.131  -3.334  0.00  0.00    +0.000 C 
BRANCH   8   9
ATOM      9  O   UNL     1      10.657   7.230  -4.697  0.00  0.00    +0.000 OA
BRANCH   9  10
ATOM     10  C   UNL     1       9.653   8.087  -5.251  0.00  0.00    +0.000 C 
ATOM     11  H   UNL     1       9.193   8.675  -4.450  0.00  0.00    +0.000 HD
ATOM     12  H   UNL     1      10.111   8.762  -5.981  0.00  0.00    +0.000 HD
BRANCH  10  13
ATOM     13  C   UNL     1       8.600   7.237  -5.931  0.00  0.00    +0.000 C 
ATOM     14  H   UNL     1       8.367   7.626  -6.926  0.00  0.00    +0.000 HD
ATOM     15  H   UNL     1       8.944   6.202  -6.028  0.00  0.00    +0.000 HD
ATOM     16  H   UNL     1       7.681   7.212  -5.336  0.00  0.00    +0.000 HD
ENDBRANCH  10  13
ENDBRANCH   9  10
ENDBRANCH   8   9
ENDBRANCH   4   8
ENDBRANCH   1   4
BRANCH   1  18
ATOM     17  O   UNL     1      14.062   7.016  -5.008  0.00  0.00    +0.000 OA
ATOM     18  C   UNL     1      13.826   5.931  -4.494  0.00  0.00    +0.000 C 
BRANCH  18  19
ATOM     19  O   UNL     1      14.727   4.919  -4.313  0.00  0.00    +0.000 OA
BRANCH  19  20
ATOM     20  C   UNL     1      15.320   4.401  -5.508  0.00  0.00    +0.000 C 
ATOM     21  H   UNL     1      15.209   3.311  -5.527  0.00  0.00    +0.000 HD
ATOM     22  H   UNL     1      14.819   4.834  -6.381  0.00  0.00    +0.000 HD
BRANCH  20  23
ATOM     23  C   UNL     1      16.789   4.767  -5.527  0.00  0.00    +0.000 C 
ATOM     24  H   UNL     1      17.049   5.292  -6.450  0.00  0.00    +0.000 HD
ATOM     25  H   UNL     1      17.038   5.407  -4.674  0.00  0.00    +0.000 HD
ATOM     26  H   UNL     1      17.410   3.870  -5.445  0.00  0.00    +0.000 HD
ENDBRANCH  20  23
ENDBRANCH  19  20
ENDBRANCH  18  19
ENDBRANCH   1  18
TORSDOF 9
ENDMDL
MODEL 2
REMARK VINA RESULT:    -4.277      1.400      5.427
REMARK INTER + INTRA:          -6.864
REMARK INTER:                  -6.397
REMARK INTRA:                  -0.466
REMARK UNBOUND:                -0.586
REMARK  Name = 31249
REMARK  9 active torsions:
REMARK  status: ('A' for Active; 'I' for Inactive)
REMARK    1  A    between atoms: O_1  and  C_7
REMARK    2  A    between atoms: O_1  and  C_9
REMARK    3  A    between atoms: O_2  and  C_8
REMARK    4  A    between atoms: O_2  and  C_10
REMARK    5  A    between atoms: C_5  and  C_6
REMARK    6  A    between atoms: C_5  and  C_7
REMARK    7  A    between atoms: C_6  and  C_8
REMARK    8  A    between atoms: C_9  and  C_11
REMARK    9  A    between atoms: C_10  and  C_12
REMARK                            x       y       z     vdW  Elec       q    Type
REMARK                         _______ _______ _______ _____ _____    ______ ____
ROOT
ATOM      1  C   UNL     1      12.803   6.581  -4.108  0.00  0.00    +0.000 C 
ATOM      2  H   UNL     1      12.807   6.854  -5.170  0.00  0.00    +0.000 HD
ATOM      3  H   UNL     1      13.824   6.678  -3.721  0.00  0.00    +0.000 HD
ENDROOT
BRANCH   1   4
ATOM      4  C   UNL     1      12.332   5.138  -3.950  0.00  0.00    +0.000 C 
ATOM      5  H   UNL     1      12.102   4.940  -2.896  0.00  0.00    +0.000 HD
ATOM      6  H   UNL     1      11.420   4.981  -4.538  0.00  0.00    +0.000 HD
BRANCH   4   8
ATOM      7  O   UNL     1      13.167   3.214  -5.186  0.00  0.00    +0.000 OA
ATOM      8  C   UNL     1      13.368   4.131  -4.404  0.00  0.00    +0.000 C 
BRANCH   8   9
ATOM      9  O   UNL     1      14.555   4.414  -3.789  0.00  0.00    +0.000 OA
BRANCH   9  10
ATOM     10  C   UNL     1      15.726   3.953  -4.472  0.00  0.00    +0.000 C 
ATOM     11  H   UNL     1      16.488   3.670  -3.739  0.00  0.00    +0.000 HD
ATOM     12  H   UNL     1      15.472   3.083  -5.088  0.00  0.00    +0.000 HD
BRANCH  10  13
ATOM     13  C   UNL     1      16.252   5.066  -5.354  0.00  0.00    +0.000 C 
ATOM     14  H   UNL     1      15.685   5.988  -5.198  0.00  0.00    +0.000 HD
ATOM     15  H   UNL     1      17.308   5.260  -5.140  0.00  0.00    +0.000 HD
ATOM     16  H   UNL     1      16.188   4.785  -6.410  0.00  0.00    +0.000 HD
ENDBRANCH  10  13
ENDBRANCH   9  10
ENDBRANCH   8   9
ENDBRANCH   4   8
ENDBRANCH   1   4
BRANCH   1  18
ATOM     17  O   UNL     1      11.952   7.776  -2.165  0.00  0.00    +0.000 OA
ATOM     18  C   UNL     1      11.924   7.568  -3.370  0.00  0.00    +0.000 C 
BRANCH  18  19
ATOM     19  O   UNL     1      11.094   8.178  -4.268  0.00  0.00    +0.000 OA
BRANCH  19  20
ATOM     20  C   UNL     1       9.715   7.805  -4.184  0.00  0.00    +0.000 C 
ATOM     21  H   UNL     1       9.600   6.997  -3.452  0.00  0.00    +0.000 HD
ATOM     22  H   UNL     1       9.120   8.670  -3.868  0.00  0.00    +0.000 HD
BRANCH  20  23
ATOM     23  C   UNL     1       9.248   7.333  -5.545  0.00  0.00    +0.000 C 
ATOM     24  H   UNL     1       9.712   7.919  -6.342  0.00  0.00    +0.000 HD
ATOM     25  H   UNL     1       9.496   6.276  -5.692  0.00  0.00    +0.000 HD
ATOM     26  H   UNL     1       8.160   7.419  -5.630  0.00  0.00    +0.000 HD
ENDBRANCH  20  23
ENDBRANCH  19  20
ENDBRANCH  18  19
ENDBRANCH   1  18
TORSDOF 9
ENDMDL
MODEL 3
REMARK VINA RESULT:    -4.160      2.788      5.862
REMARK INTER + INTRA:          -6.692
REMARK INTER:                  -6.303
REMARK INTRA:                  -0.389
REMARK UNBOUND:                -0.586
REMARK  Name = 31249
REMARK  9 active torsions:
REMARK  status: ('A' for Active; 'I' for Inactive)
REMARK    1  A    between atoms: O_1  and  C_7
REMARK    2  A    between atoms: O_1  and  C_9
REMARK    3  A    between atoms: O_2  and  C_8
REMARK    4  A    between atoms: O_2  and  C_10
REMARK    5  A    between atoms: C_5  and  C_6
REMARK    6  A    between atoms: C_5  and  C_7
REMARK    7  A    between atoms: C_6  and  C_8
REMARK    8  A    between atoms: C_9  and  C_11
REMARK    9  A    between atoms: C_10  and  C_12
REMARK                            x       y       z     vdW  Elec       q    Type
REMARK                         _______ _______ _______ _____ _____    ______ ____
ROOT
ATOM      1  C   UNL     1      10.270   6.730  -1.459  0.00  0.00    +0.000 C 
ATOM      2  H   UNL     1      10.723   5.916  -0.881  0.00  0.00    +0.000 HD
ATOM      3  H   UNL     1       9.655   6.291  -2.253  0.00  0.00    +0.000 HD
ENDROOT
BRANCH   1   4
ATOM      4  C   UNL     1      11.366   7.592  -2.080  0.00  0.00    +0.000 C 
ATOM      5  H   UNL     1      11.347   8.592  -1.629  0.00  0.00    +0.000 HD
ATOM      6  H   UNL     1      12.346   7.142  -1.883  0.00  0.00    +0.000 HD
BRANCH   4   8
ATOM      7  O   UNL     1      10.758   8.734  -4.143  0.00  0.00    +0.000 OA
ATOM      8  C   UNL     1      11.210   7.748  -3.578  0.00  0.00    +0.000 C 
BRANCH   8   9
ATOM      9  O   UNL     1      11.649   6.607  -4.188  0.00  0.00    +0.000 OA
BRANCH   9  10
ATOM     10  C   UNL     1      13.044   6.326  -4.035  0.00  0.00    +0.000 C 
ATOM     11  H   UNL     1      13.353   6.557  -3.010  0.00  0.00    +0.000 HD
ATOM     12  H   UNL     1      13.228   5.265  -4.241  0.00  0.00    +0.000 HD
BRANCH  10  13
ATOM     13  C   UNL     1      13.828   7.178  -5.010  0.00  0.00    +0.000 C 
ATOM     14  H   UNL     1      14.859   6.824  -5.098  0.00  0.00    +0.000 HD
ATOM     15  H   UNL     1      13.363   7.157  -6.001  0.00  0.00    +0.000 HD
ATOM     16  H   UNL     1      13.839   8.224  -4.686  0.00  0.00    +0.000 HD
ENDBRANCH  10  13
ENDBRANCH   9  10
ENDBRANCH   8   9
ENDBRANCH   4   8
ENDBRANCH   1   4
BRANCH   1  18
ATOM     17  O   UNL     1       9.057   8.691  -0.678  0.00  0.00    +0.000 OA
ATOM     18  C   UNL     1       9.359   7.514  -0.539  0.00  0.00    +0.000 C 
BRANCH  18  19
ATOM     19  O   UNL     1       8.941   6.694   0.472  0.00  0.00    +0.000 OA
BRANCH  19  20
ATOM     20  C   UNL     1       8.607   5.358   0.082  0.00  0.00    +0.000 C 
ATOM     21  H   UNL     1       7.934   5.387  -0.782  0.00  0.00    +0.000 HD
ATOM     22  H   UNL     1       9.521   4.816  -0.186  0.00  0.00    +0.000 HD
BRANCH  20  23
ATOM     23  C   UNL     1       7.923   4.663   1.241  0.00  0.00    +0.000 C 
ATOM     24  H   UNL     1       7.383   3.776   0.900  0.00  0.00    +0.000 HD
ATOM     25  H   UNL     1       8.656   4.363   1.997  0.00  0.00    +0.000 HD
ATOM     26  H   UNL     1       7.217   5.339   1.732  0.00  0.00    +0.000 HD
ENDBRANCH  20  23
ENDBRANCH  19  20
ENDBRANCH  18  19
ENDBRANCH   1  18
TORSDOF 9
ENDMDL
MODEL 4
REMARK VINA RESULT:    -3.790      8.309      9.324
REMARK INTER + INTRA:          -6.149
REMARK INTER:                  -5.775
REMARK INTRA:                  -0.374
REMARK UNBOUND:                -0.586
REMARK  Name = 31249
REMARK  9 active torsions:
REMARK  status: ('A' for Active; 'I' for Inactive)
REMARK    1  A    between atoms: O_1  and  C_7
REMARK    2  A    between atoms: O_1  and  C_9
REMARK    3  A    between atoms: O_2  and  C_8
REMARK    4  A    between atoms: O_2  and  C_10
REMARK    5  A    between atoms: C_5  and  C_6
REMARK    6  A    between atoms: C_5  and  C_7
REMARK    7  A    between atoms: C_6  and  C_8
REMARK    8  A    between atoms: C_9  and  C_11
REMARK    9  A    between atoms: C_10  and  C_12
REMARK                            x       y       z     vdW  Elec       q    Type
REMARK                         _______ _______ _______ _____ _____    ______ ____
ROOT
ATOM      1  C   UNL     1       9.077  -0.650  -2.703  0.00  0.00    +0.000 C 
ATOM      2  H   UNL     1       8.525  -0.068  -3.451  0.00  0.00    +0.000 HD
ATOM      3  H   UNL     1      10.051  -0.922  -3.127  0.00  0.00    +0.000 HD
ENDROOT
BRANCH   1   4
ATOM      4  C   UNL     1       8.299  -1.916  -2.358  0.00  0.00    +0.000 C 
ATOM      5  H   UNL     1       8.743  -2.774  -2.878  0.00  0.00    +0.000 HD
ATOM      6  H   UNL     1       8.352  -2.100  -1.279  0.00  0.00    +0.000 HD
BRANCH   4   8
ATOM      7  O   UNL     1       6.018  -2.727  -2.620  0.00  0.00    +0.000 OA
ATOM      8  C   UNL     1       6.839  -1.831  -2.752  0.00  0.00    +0.000 C 
BRANCH   8   9
ATOM      9  O   UNL     1       6.597  -0.596  -3.284  0.00  0.00    +0.000 OA
BRANCH   9  10
ATOM     10  C   UNL     1       6.114  -0.590  -4.631  0.00  0.00    +0.000 C 
ATOM     11  H   UNL     1       6.947  -0.404  -5.317  0.00  0.00    +0.000 HD
ATOM     12  H   UNL     1       5.662  -1.561  -4.862  0.00  0.00    +0.000 HD
BRANCH  10  13
ATOM     13  C   UNL     1       5.076   0.503  -4.778  0.00  0.00    +0.000 C 
ATOM     14  H   UNL     1       4.538   0.406  -5.725  0.00  0.00    +0.000 HD
ATOM     15  H   UNL     1       4.355   0.463  -3.956  0.00  0.00    +0.000 HD
ATOM     16  H   UNL     1       5.548   1.491  -4.738  0.00  0.00    +0.000 HD
ENDBRANCH  10  13
ENDBRANCH   9  10
ENDBRANCH   8   9
ENDBRANCH   4   8
ENDBRANCH   1   4
BRANCH   1  18
ATOM     17  O   UNL     1       9.951   1.283  -1.508  0.00  0.00    +0.000 OA
ATOM     18  C   UNL     1       9.319   0.236  -1.500  0.00  0.00    +0.000 C 
BRANCH  18  19
ATOM     19  O   UNL     1       8.724  -0.331  -0.408  0.00  0.00    +0.000 OA
BRANCH  19  20
ATOM     20  C   UNL     1       8.013   0.573   0.445  0.00  0.00    +0.000 C 
ATOM     21  H   UNL     1       8.417   0.509   1.461  0.00  0.00    +0.000 HD
ATOM     22  H   UNL     1       8.129   1.596   0.070  0.00  0.00    +0.000 HD
BRANCH  20  23
ATOM     23  C   UNL     1       6.547   0.193   0.452  0.00  0.00    +0.000 C 
ATOM     24  H   UNL     1       5.940   0.991   0.887  0.00  0.00    +0.000 HD
ATOM     25  H   UNL     1       6.195  -0.004  -0.566  0.00  0.00    +0.000 HD
ATOM     26  H   UNL     1       6.390  -0.724   1.027  0.00  0.00    +0.000 HD
ENDBRANCH  20  23
ENDBRANCH  19  20
ENDBRANCH  18  19
ENDBRANCH   1  18
TORSDOF 9
ENDMDL
MODEL 5
REMARK VINA RESULT:    -3.641      8.582      9.774
REMARK INTER + INTRA:          -5.931
REMARK INTER:                  -5.427
REMARK INTRA:                  -0.504
REMARK UNBOUND:                -0.586
REMARK  Name = 31249
REMARK  9 active torsions:
REMARK  status: ('A' for Active; 'I' for Inactive)
REMARK    1  A    between atoms: O_1  and  C_7
REMARK    2  A    between atoms: O_1  and  C_9
REMARK    3  A    between atoms: O_2  and  C_8
REMARK    4  A    between atoms: O_2  and  C_10
REMARK    5  A    between atoms: C_5  and  C_6
REMARK    6  A    between atoms: C_5  and  C_7
REMARK    7  A    between atoms: C_6  and  C_8
REMARK    8  A    between atoms: C_9  and  C_11
REMARK    9  A    between atoms: C_10  and  C_12
REMARK                            x       y       z     vdW  Elec       q    Type
REMARK                         _______ _______ _______ _____ _____    ______ ____
ROOT
ATOM      1  C   UNL     1       9.199   0.162  -0.733  0.00  0.00    +0.000 C 
ATOM      2  H   UNL     1       9.663   1.105  -0.418  0.00  0.00    +0.000 HD
ATOM      3  H   UNL     1       9.853  -0.664  -0.432  0.00  0.00    +0.000 HD
ENDROOT
BRANCH   1   4
ATOM      4  C   UNL     1       9.032   0.154  -2.250  0.00  0.00    +0.000 C 
ATOM      5  H   UNL     1       7.987   0.365  -2.507  0.00  0.00    +0.000 HD
ATOM      6  H   UNL     1       9.661   0.934  -2.695  0.00  0.00    +0.000 HD
BRANCH   4   8
ATOM      7  O   UNL     1      10.471  -1.412  -3.436  0.00  0.00    +0.000 OA
ATOM      8  C   UNL     1       9.412  -1.172  -2.874  0.00  0.00    +0.000 C 
BRANCH   8   9
ATOM      9  O   UNL     1       8.375  -2.048  -2.713  0.00  0.00    +0.000 OA
BRANCH   9  10
ATOM     10  C   UNL     1       7.120  -1.621  -3.252  0.00  0.00    +0.000 C 
ATOM     11  H   UNL     1       7.027  -0.536  -3.144  0.00  0.00    +0.000 HD
ATOM     12  H   UNL     1       7.068  -1.888  -4.313  0.00  0.00    +0.000 HD
BRANCH  10  13
ATOM     13  C   UNL     1       6.001  -2.308  -2.498  0.00  0.00    +0.000 C 
ATOM     14  H   UNL     1       5.414  -2.945  -3.165  0.00  0.00    +0.000 HD
ATOM     15  H   UNL     1       6.403  -2.923  -1.687  0.00  0.00    +0.000 HD
ATOM     16  H   UNL     1       5.336  -1.570  -2.037  0.00  0.00    +0.000 HD
ENDBRANCH  10  13
ENDBRANCH   9  10
ENDBRANCH   8   9
ENDBRANCH   4   8
ENDBRANCH   1   4
BRANCH   1  18
ATOM     17  O   UNL     1       6.863   0.641  -0.242  0.00  0.00    +0.000 OA
ATOM     18  C   UNL     1       7.884   0.013   0.001  0.00  0.00    +0.000 C 
BRANCH  18  19
ATOM     19  O   UNL     1       8.030  -0.929   0.982  0.00  0.00    +0.000 OA
BRANCH  19  20
ATOM     20  C   UNL     1       9.253  -0.861   1.723  0.00  0.00    +0.000 C 
ATOM     21  H   UNL     1      10.023  -0.375   1.113  0.00  0.00    +0.000 HD
ATOM     22  H   UNL     1       9.093  -0.280   2.639  0.00  0.00    +0.000 HD
BRANCH  20  23
ATOM     23  C   UNL     1       9.693  -2.266   2.077  0.00  0.00    +0.000 C 
ATOM     24  H   UNL     1       8.991  -3.006   1.684  0.00  0.00    +0.000 HD
ATOM     25  H   UNL     1      10.689  -2.472   1.671  0.00  0.00    +0.000 HD
ATOM     26  H   UNL     1       9.761  -2.385   3.163  0.00  0.00    +0.000 HD
ENDBRANCH  20  23
ENDBRANCH  19  20
ENDBRANCH  18  19
ENDBRANCH   1  18
TORSDOF 9
ENDMDL
MODEL 6
REMARK VINA RESULT:    -3.466     10.362     11.428
REMARK INTER + INTRA:          -5.673
REMARK INTER:                  -5.454
REMARK INTRA:                  -0.219
REMARK UNBOUND:                -0.586
REMARK  Name = 31249
REMARK  9 active torsions:
REMARK  status: ('A' for Active; 'I' for Inactive)
REMARK    1  A    between atoms: O_1  and  C_7
REMARK    2  A    between atoms: O_1  and  C_9
REMARK    3  A    between atoms: O_2  and  C_8
REMARK    4  A    between atoms: O_2  and  C_10
REMARK    5  A    between atoms: C_5  and  C_6
REMARK    6  A    between atoms: C_5  and  C_7
REMARK    7  A    between atoms: C_6  and  C_8
REMARK    8  A    between atoms: C_9  and  C_11
REMARK    9  A    between atoms: C_10  and  C_12
REMARK                            x       y       z     vdW  Elec       q    Type
REMARK                         _______ _______ _______ _____ _____    ______ ____
ROOT
ATOM      1  C   UNL     1       9.096  -0.714   2.155  0.00  0.00    +0.000 C 
ATOM      2  H   UNL     1       8.106  -0.345   2.451  0.00  0.00    +0.000 HD
ATOM      3  H   UNL     1       9.835   0.066   2.373  0.00  0.00    +0.000 HD
ENDROOT
BRANCH   1   4
ATOM      4  C   UNL     1       9.104  -1.021   0.660  0.00  0.00    +0.000 C 
ATOM      5  H   UNL     1       9.857  -0.400   0.161  0.00  0.00    +0.000 HD
ATOM      6  H   UNL     1       9.363  -2.074   0.501  0.00  0.00    +0.000 HD
BRANCH   4   8
ATOM      7  O   UNL     1       6.933   0.048   0.389  0.00  0.00    +0.000 OA
ATOM      8  C   UNL     1       7.766  -0.759   0.001  0.00  0.00    +0.000 C 
BRANCH   8   9
ATOM      9  O   UNL     1       7.643  -1.576  -1.087  0.00  0.00    +0.000 OA
BRANCH   9  10
ATOM     10  C   UNL     1       6.517  -1.311  -1.930  0.00  0.00    +0.000 C 
ATOM     11  H   UNL     1       5.694  -0.913  -1.327  0.00  0.00    +0.000 HD
ATOM     12  H   UNL     1       6.796  -0.578  -2.694  0.00  0.00    +0.000 HD
BRANCH  10  13
ATOM     13  C   UNL     1       6.085  -2.602  -2.595  0.00  0.00    +0.000 C 
ATOM     14  H   UNL     1       6.183  -2.533  -3.682  0.00  0.00    +0.000 HD
ATOM     15  H   UNL     1       6.692  -3.440  -2.239  0.00  0.00    +0.000 HD
ATOM     16  H   UNL     1       5.044  -2.834  -2.347  0.00  0.00    +0.000 HD
ENDBRANCH  10  13
ENDBRANCH   9  10
ENDBRANCH   8   9
ENDBRANCH   4   8
ENDBRANCH   1   4
BRANCH   1  18
ATOM     17  O   UNL     1       9.761  -3.018   2.574  0.00  0.00    +0.000 OA
ATOM     18  C   UNL     1       9.424  -1.923   3.003  0.00  0.00    +0.000 C 
BRANCH  18  19
ATOM     19  O   UNL     1       9.272  -1.593   4.321  0.00  0.00    +0.000 OA
BRANCH  19  20
ATOM     20  C   UNL     1       8.327  -2.383   5.049  0.00  0.00    +0.000 C 
ATOM     21  H   UNL     1       7.509  -2.679   4.383  0.00  0.00    +0.000 HD
ATOM     22  H   UNL     1       8.824  -3.280   5.437  0.00  0.00    +0.000 HD
BRANCH  20  23
ATOM     23  C   UNL     1       7.780  -1.563   6.199  0.00  0.00    +0.000 C 
ATOM     24  H   UNL     1       8.218  -0.562   6.207  0.00  0.00    +0.000 HD
ATOM     25  H   UNL     1       6.691  -1.473   6.123  0.00  0.00    +0.000 HD
ATOM     26  H   UNL     1       7.994  -2.051   7.155  0.00  0.00    +0.000 HD
ENDBRANCH  20  23
ENDBRANCH  19  20
ENDBRANCH  18  19
ENDBRANCH   1  18
TORSDOF 9
ENDMDL
MODEL 7
REMARK VINA RESULT:    -3.370     15.726     16.995
REMARK INTER + INTRA:          -5.532
REMARK INTER:                  -5.146
REMARK INTRA:                  -0.386
REMARK UNBOUND:                -0.586
REMARK  Name = 31249
REMARK  9 active torsions:
REMARK  status: ('A' for Active; 'I' for Inactive)
REMARK    1  A    between atoms: O_1  and  C_7
REMARK    2  A    between atoms: O_1  and  C_9
REMARK    3  A    between atoms: O_2  and  C_8
REMARK    4  A    between atoms: O_2  and  C_10
REMARK    5  A    between atoms: C_5  and  C_6
REMARK    6  A    between atoms: C_5  and  C_7
REMARK    7  A    between atoms: C_6  and  C_8
REMARK    8  A    between atoms: C_9  and  C_11
REMARK    9  A    between atoms: C_10  and  C_12
REMARK                            x       y       z     vdW  Elec       q    Type
REMARK                         _______ _______ _______ _____ _____    ______ ____
ROOT
ATOM      1  C   UNL     1      -3.028   6.654  -5.945  0.00  0.00    +0.000 C 
ATOM      2  H   UNL     1      -3.482   7.646  -5.834  0.00  0.00    +0.000 HD
ATOM      3  H   UNL     1      -1.950   6.782  -6.096  0.00  0.00    +0.000 HD
ENDROOT
BRANCH   1   4
ATOM      4  C   UNL     1      -3.632   5.945  -7.154  0.00  0.00    +0.000 C 
ATOM      5  H   UNL     1      -2.894   5.908  -7.965  0.00  0.00    +0.000 HD
ATOM      6  H   UNL     1      -3.900   4.917  -6.883  0.00  0.00    +0.000 HD
BRANCH   4   8
ATOM      7  O   UNL     1      -5.465   7.547  -7.118  0.00  0.00    +0.000 OA
ATOM      8  C   UNL     1      -4.873   6.635  -7.678  0.00  0.00    +0.000 C 
BRANCH   8   9
ATOM      9  O   UNL     1      -5.224   6.066  -8.870  0.00  0.00    +0.000 OA
BRANCH   9  10
ATOM     10  C   UNL     1      -4.179   5.989  -9.846  0.00  0.00    +0.000 C 
ATOM     11  H   UNL     1      -3.238   5.722  -9.352  0.00  0.00    +0.000 HD
ATOM     12  H   UNL     1      -4.430   5.225 -10.590  0.00  0.00    +0.000 HD
BRANCH  10  13
ATOM     13  C   UNL     1      -4.037   7.335 -10.523  0.00  0.00    +0.000 C 
ATOM     14  H   UNL     1      -4.206   7.250 -11.600  0.00  0.00    +0.000 HD
ATOM     15  H   UNL     1      -4.753   8.053 -10.110  0.00  0.00    +0.000 HD
ATOM     16  H   UNL     1      -3.037   7.749 -10.353  0.00  0.00    +0.000 HD
ENDBRANCH  10  13
ENDBRANCH   9  10
ENDBRANCH   8   9
ENDBRANCH   4   8
ENDBRANCH   1   4
BRANCH   1  18
ATOM     17  O   UNL     1      -3.526   4.706  -4.573  0.00  0.00    +0.000 OA
ATOM     18  C   UNL     1      -3.235   5.892  -4.655  0.00  0.00    +0.000 C 
BRANCH  18  19
ATOM     19  O   UNL     1      -3.052   6.745  -3.603  0.00  0.00    +0.000 OA
BRANCH  19  20
ATOM     20  C   UNL     1      -4.232   7.402  -3.131  0.00  0.00    +0.000 C 
ATOM     21  H   UNL     1      -5.073   7.161  -3.790  0.00  0.00    +0.000 HD
ATOM     22  H   UNL     1      -4.458   7.062  -2.113  0.00  0.00    +0.000 HD
BRANCH  20  23
ATOM     23  C   UNL     1      -3.996   8.898  -3.129  0.00  0.00    +0.000 C 
ATOM     24  H   UNL     1      -3.624   9.233  -2.157  0.00  0.00    +0.000 HD
ATOM     25  H   UNL     1      -3.270   9.174  -3.901  0.00  0.00    +0.000 HD
ATOM     26  H   UNL     1      -4.922   9.434  -3.357  0.00  0.00    +0.000 HD
ENDBRANCH  20  23
ENDBRANCH  19  20
ENDBRANCH  18  19
ENDBRANCH   1  18
TORSDOF 9
ENDMDL
MODEL 8
REMARK VINA RESULT:    -3.350     18.551     20.908
REMARK INTER + INTRA:          -5.503
REMARK INTER:                  -5.176
REMARK INTRA:                  -0.327
REMARK UNBOUND:                -0.586
REMARK  Name = 31249
REMARK  9 active torsions:
REMARK  status: ('A' for Active; 'I' for Inactive)
REMARK    1  A    between atoms: O_1  and  C_7
REMARK    2  A    between atoms: O_1  and  C_9
REMARK    3  A    between atoms: O_2  and  C_8
REMARK    4  A    between atoms: O_2  and  C_10
REMARK    5  A    between atoms: C_5  and  C_6
REMARK    6  A    between atoms: C_5  and  C_7
REMARK    7  A    between atoms: C_6  and  C_8
REMARK    8  A    between atoms: C_9  and  C_11
REMARK    9  A    between atoms: C_10  and  C_12
REMARK                            x       y       z     vdW  Elec       q    Type
REMARK                         _______ _______ _______ _____ _____    ______ ____
ROOT
ATOM      1  C   UNL     1      -0.362   9.644  11.116  0.00  0.00    +0.000 C 
ATOM      2  H   UNL     1      -0.218   9.716  12.201  0.00  0.00    +0.000 HD
ATOM      3  H   UNL     1      -0.099  10.609  10.667  0.00  0.00    +0.000 HD
ENDROOT
BRANCH   1   4
ATOM      4  C   UNL     1      -1.822   9.321  10.812  0.00  0.00    +0.000 C 
ATOM      5  H   UNL     1      -2.046   9.578   9.769  0.00  0.00    +0.000 HD
ATOM      6  H   UNL     1      -1.998   8.247  10.948  0.00  0.00    +0.000 HD
BRANCH   4   8
ATOM      7  O   UNL     1      -3.729  10.750  11.310  0.00  0.00    +0.000 OA
ATOM      8  C   UNL     1      -2.787  10.076  11.701  0.00  0.00    +0.000 C 
BRANCH   8   9
ATOM      9  O   UNL     1      -2.426   9.885  13.005  0.00  0.00    +0.000 OA
BRANCH   9  10
ATOM     10  C   UNL     1      -3.377   9.180  13.810  0.00  0.00    +0.000 C 
ATOM     11  H   UNL     1      -3.425   9.638  14.803  0.00  0.00    +0.000 HD
ATOM     12  H   UNL     1      -4.364   9.231  13.338  0.00  0.00    +0.000 HD
BRANCH  10  13
ATOM     13  C   UNL     1      -2.944   7.734  13.933  0.00  0.00    +0.000 C 
ATOM     14  H   UNL     1      -3.376   7.272  14.825  0.00  0.00    +0.000 HD
ATOM     15  H   UNL     1      -3.255   7.163  13.053  0.00  0.00    +0.000 HD
ATOM     16  H   UNL     1      -1.853   7.662  13.989  0.00  0.00    +0.000 HD
ENDBRANCH  10  13
ENDBRANCH   9  10
ENDBRANCH   8   9
ENDBRANCH   4   8
ENDBRANCH   1   4
BRANCH   1  18
ATOM     17  O   UNL     1       0.299   7.445  10.309  0.00  0.00    +0.000 OA
ATOM     18  C   UNL     1       0.594   8.600  10.581  0.00  0.00    +0.000 C 
BRANCH  18  19
ATOM     19  O   UNL     1       1.836   9.159  10.461  0.00  0.00    +0.000 OA
BRANCH  19  20
ATOM     20  C   UNL     1       1.953  10.196   9.481  0.00  0.00    +0.000 C 
ATOM     21  H   UNL     1       1.333   9.949   8.613  0.00  0.00    +0.000 HD
ATOM     22  H   UNL     1       1.614  11.145   9.912  0.00  0.00    +0.000 HD
BRANCH  20  23
ATOM     23  C   UNL     1       3.402  10.313   9.059  0.00  0.00    +0.000 C 
ATOM     24  H   UNL     1       3.485  10.781   8.074  0.00  0.00    +0.000 HD
ATOM     25  H   UNL     1       3.967  10.910   9.782  0.00  0.00    +0.000 HD
ATOM     26  H   UNL     1       3.874   9.327   9.023  0.00  0.00    +0.000 HD
ENDBRANCH  20  23
ENDBRANCH  19  20
ENDBRANCH  18  19
ENDBRANCH   1  18
TORSDOF 9
ENDMDL
MODEL 9
REMARK VINA RESULT:    -3.330     28.287     29.305
REMARK INTER + INTRA:          -5.474
REMARK INTER:                  -4.888
REMARK INTRA:                  -0.586
REMARK UNBOUND:                -0.586
REMARK  Name = 31249
REMARK  9 active torsions:
REMARK  status: ('A' for Active; 'I' for Inactive)
REMARK    1  A    between atoms: O_1  and  C_7
REMARK    2  A    between atoms: O_1  and  C_9
REMARK    3  A    between atoms: O_2  and  C_8
REMARK    4  A    between atoms: O_2  and  C_10
REMARK    5  A    between atoms: C_5  and  C_6
REMARK    6  A    between atoms: C_5  and  C_7
REMARK    7  A    between atoms: C_6  and  C_8
REMARK    8  A    between atoms: C_9  and  C_11
REMARK    9  A    between atoms: C_10  and  C_12
REMARK                            x       y       z     vdW  Elec       q    Type
REMARK                         _______ _______ _______ _____ _____    ______ ____
ROOT
ATOM      1  C   UNL     1       6.957 -12.207 -26.674  0.00  0.00    +0.000 C 
ATOM      2  H   UNL     1       6.103 -12.414 -27.330  0.00  0.00    +0.000 HD
ATOM      3  H   UNL     1       7.873 -12.517 -27.190  0.00  0.00    +0.000 HD
ENDROOT
BRANCH   1   4
ATOM      4  C   UNL     1       6.811 -12.995 -25.375  0.00  0.00    +0.000 C 
ATOM      5  H   UNL     1       7.479 -13.865 -25.396  0.00  0.00    +0.000 HD
ATOM      6  H   UNL     1       7.095 -12.362 -24.526  0.00  0.00    +0.000 HD
BRANCH   4   8
ATOM      7  O   UNL     1       4.872 -13.644 -24.054  0.00  0.00    +0.000 OA
ATOM      8  C   UNL     1       5.399 -13.490 -25.146  0.00  0.00    +0.000 C 
BRANCH   8   9
ATOM      9  O   UNL     1       4.819 -13.742 -26.357  0.00  0.00    +0.000 OA
BRANCH   9  10
ATOM     10  C   UNL     1       4.113 -14.983 -26.455  0.00  0.00    +0.000 C 
ATOM     11  H   UNL     1       3.644 -15.213 -25.492  0.00  0.00    +0.000 HD
ATOM     12  H   UNL     1       3.340 -14.905 -27.227  0.00  0.00    +0.000 HD
BRANCH  10  13
ATOM     13  C   UNL     1       5.091 -16.079 -26.822  0.00  0.00    +0.000 C 
ATOM     14  H   UNL     1       4.783 -17.037 -26.394  0.00  0.00    +0.000 HD
ATOM     15  H   UNL     1       5.162 -16.184 -27.909  0.00  0.00    +0.000 HD
ATOM     16  H   UNL     1       6.096 -15.836 -26.460  0.00  0.00    +0.000 HD
ENDBRANCH  10  13
ENDBRANCH   9  10
ENDBRANCH   8   9
ENDBRANCH   4   8
ENDBRANCH   1   4
BRANCH   1  18
ATOM     17  O   UNL     1       7.131  -9.868 -27.328  0.00  0.00    +0.000 OA
ATOM     18  C   UNL     1       7.028 -10.712 -26.448  0.00  0.00    +0.000 C 
BRANCH  18  19
ATOM     19  O   UNL     1       6.968 -10.465 -25.105  0.00  0.00    +0.000 OA
BRANCH  19  20
ATOM     20  C   UNL     1       6.202  -9.317 -24.724  0.00  0.00    +0.000 C 
ATOM     21  H   UNL     1       6.535  -8.967 -23.741  0.00  0.00    +0.000 HD
ATOM     22  H   UNL     1       6.347  -8.521 -25.463  0.00  0.00    +0.000 HD
BRANCH  20  23
ATOM     23  C   UNL     1       4.738  -9.699 -24.663  0.00  0.00    +0.000 C 
ATOM     24  H   UNL     1       4.612 -10.779 -24.774  0.00  0.00    +0.000 HD
ATOM     25  H   UNL     1       4.299  -9.387 -23.709  0.00  0.00    +0.000 HD
ATOM     26  H   UNL     1       4.175  -9.194 -25.453  0.00  0.00    +0.000 HD
ENDBRANCH  20  23
ENDBRANCH  19  20
ENDBRANCH  18  19
ENDBRANCH   1  18
TORSDOF 9
ENDMDL
MODEL 10
REMARK VINA RESULT:    -3.329     32.578     34.706
REMARK INTER + INTRA:          -5.473
REMARK INTER:                  -4.766
REMARK INTRA:                  -0.706
REMARK UNBOUND:                -0.586
REMARK  Name = 31249
REMARK  9 active torsions:
REMARK  status: ('A' for Active; 'I' for Inactive)
REMARK    1  A    between atoms: O_1  and  C_7
REMARK    2  A    between atoms: O_1  and  C_9
REMARK    3  A    between atoms: O_2  and  C_8
REMARK    4  A    between atoms: O_2  and  C_10
REMARK    5  A    between atoms: C_5  and  C_6
REMARK    6  A    between atoms: C_5  and  C_7
REMARK    7  A    between atoms: C_6  and  C_8
REMARK    8  A    between atoms: C_9  and  C_11
REMARK    9  A    between atoms: C_10  and  C_12
REMARK                            x       y       z     vdW  Elec       q    Type
REMARK                         _______ _______ _______ _____ _____    ______ ____
ROOT
ATOM      1  C   UNL     1     -16.991  -9.174   2.869  0.00  0.00    +0.000 C 
ATOM      2  H   UNL     1     -16.932  -8.275   3.494  0.00  0.00    +0.000 HD
ATOM      3  H   UNL     1     -18.033  -9.312   2.558  0.00  0.00    +0.000 HD
ENDROOT
BRANCH   1   4
ATOM      4  C   UNL     1     -16.534 -10.389   3.672  0.00  0.00    +0.000 C 
ATOM      5  H   UNL     1     -15.735 -10.908   3.130  0.00  0.00    +0.000 HD
ATOM      6  H   UNL     1     -16.140 -10.064   4.641  0.00  0.00    +0.000 HD
BRANCH   4   8
ATOM      7  O   UNL     1     -18.330 -11.436   4.939  0.00  0.00    +0.000 OA
ATOM      8  C   UNL     1     -17.652 -11.379   3.924  0.00  0.00    +0.000 C 
BRANCH   8   9
ATOM      9  O   UNL     1     -17.769 -12.198   2.836  0.00  0.00    +0.000 OA
BRANCH   9  10
ATOM     10  C   UNL     1     -19.110 -12.508   2.441  0.00  0.00    +0.000 C 
ATOM     11  H   UNL     1     -19.136 -13.508   1.996  0.00  0.00    +0.000 HD
ATOM     12  H   UNL     1     -19.764 -12.483   3.319  0.00  0.00    +0.000 HD
BRANCH  10  13
ATOM     13  C   UNL     1     -19.575 -11.484   1.428  0.00  0.00    +0.000 C 
ATOM     14  H   UNL     1     -20.452 -10.943   1.794  0.00  0.00    +0.000 HD
ATOM     15  H   UNL     1     -18.779 -10.764   1.215  0.00  0.00    +0.000 HD
ATOM     16  H   UNL     1     -19.828 -11.968   0.478  0.00  0.00    +0.000 HD
ENDBRANCH  10  13
ENDBRANCH   9  10
ENDBRANCH   8   9
ENDBRANCH   4   8
ENDBRANCH   1   4
BRANCH   1  18
ATOM     17  O   UNL     1     -16.289  -8.009   0.850  0.00  0.00    +0.000 OA
ATOM     18  C   UNL     1     -16.156  -8.943   1.629  0.00  0.00    +0.000 C 
BRANCH  18  19
ATOM     19  O   UNL     1     -15.239  -9.952   1.519  0.00  0.00    +0.000 OA
BRANCH  19  20
ATOM     20  C   UNL     1     -15.005 -10.429   0.190  0.00  0.00    +0.000 C 
ATOM     21  H   UNL     1     -15.154  -9.611  -0.523  0.00  0.00    +0.000 HD
ATOM     22  H   UNL     1     -13.976 -10.799   0.111  0.00  0.00    +0.000 HD
BRANCH  20  23
ATOM     23  C   UNL     1     -15.977 -11.551  -0.109  0.00  0.00    +0.000 C 
ATOM     24  H   UNL     1     -16.812 -11.543   0.597  0.00  0.00    +0.000 HD
ATOM     25  H   UNL     1     -16.372 -11.458  -1.126  0.00  0.00    +0.000 HD
ATOM     26  H   UNL     1     -15.474 -12.521  -0.051  0.00  0.00    +0.000 HD
ENDBRANCH  20  23
ENDBRANCH  19  20
ENDBRANCH  18  19
ENDBRANCH   1  18
TORSDOF 9
ENDMDL
