MODEL 1
REMARK VINA RESULT:    -4.814      0.000      0.000
REMARK INTER + INTRA:          -6.752
REMARK INTER:                  -6.347
REMARK INTRA:                  -0.405
REMARK UNBOUND:                -0.250
REMARK  Name = 5363374
REMARK  7 active torsions:
REMARK  status: ('A' for Active; 'I' for Inactive)
REMARK    1  A    between atoms: O_1  and  C_8
REMARK    2  A    between atoms: O_1  and  C_9
REMARK    3  A    between atoms: C_3  and  C_4
REMARK    4  A    between atoms: C_3  and  C_5
REMARK    5  A    between atoms: C_4  and  C_6
REMARK    6  A    between atoms: C_7  and  C_8
REMARK    7  A    between atoms: C_9  and  C_10
REMARK                            x       y       z     vdW  Elec       q    Type
REMARK                         _______ _______ _______ _____ _____    ______ ____
ROOT
ATOM      1  C   UNL     1       6.177  -1.875  -3.372  0.00  0.00    +0.000 C 
ATOM      2  C   UNL     1       6.856  -2.101  -2.238  0.00  0.00    +0.000 C 
ATOM      3  H   UNL     1       5.198  -2.330  -3.496  0.00  0.00    +0.000 HD
ATOM      4  H   UNL     1       6.413  -2.744  -1.482  0.00  0.00    +0.000 HD
ENDROOT
BRANCH   1   5
ATOM      5  C   UNL     1       6.678  -1.004  -4.487  0.00  0.00    +0.000 C 
ATOM      6  H   UNL     1       6.897  -1.653  -5.344  0.00  0.00    +0.000 HD
ATOM      7  H   UNL     1       7.633  -0.526  -4.245  0.00  0.00    +0.000 HD
BRANCH   5   8
ATOM      8  C   UNL     1       5.629   0.031  -4.895  0.00  0.00    +0.000 C 
ATOM      9  H   UNL     1       4.730  -0.468  -5.277  0.00  0.00    +0.000 HD
ATOM     10  H   UNL     1       6.016   0.660  -5.707  0.00  0.00    +0.000 HD
BRANCH   8  11
ATOM     11  C   UNL     1       5.238   0.918  -3.724  0.00  0.00    +0.000 C 
ATOM     12  H   UNL     1       4.418   1.585  -4.009  0.00  0.00    +0.000 HD
ATOM     13  H   UNL     1       4.904   0.317  -2.871  0.00  0.00    +0.000 HD
ATOM     14  H   UNL     1       6.082   1.536  -3.400  0.00  0.00    +0.000 HD
ENDBRANCH   8  11
ENDBRANCH   5   8
ENDBRANCH   1   5
BRANCH   2  15
ATOM     15  C   UNL     1       8.198  -1.514  -1.944  0.00  0.00    +0.000 C 
ATOM     16  H   UNL     1       8.239  -0.512  -2.390  0.00  0.00    +0.000 HD
ATOM     17  H   UNL     1       8.418  -1.417  -0.878  0.00  0.00    +0.000 HD
BRANCH  15  18
ATOM     18  O   UNL     1       9.194  -2.329  -2.544  0.00  0.00    +0.000 OA
BRANCH  18  20
ATOM     19  O   UNL     1      10.619  -2.221  -4.359  0.00  0.00    +0.000 OA
ATOM     20  C   UNL     1      10.031  -1.698  -3.422  0.00  0.00    +0.000 C 
BRANCH  20  21
ATOM     21  C   UNL     1      10.135  -0.244  -3.073  0.00  0.00    +0.000 C 
ATOM     22  H   UNL     1       9.446  -0.009  -2.257  0.00  0.00    +0.000 HD
ATOM     23  H   UNL     1       9.912   0.364  -3.954  0.00  0.00    +0.000 HD
ATOM     24  H   UNL     1      11.154  -0.022  -2.744  0.00  0.00    +0.000 HD
ENDBRANCH  20  21
ENDBRANCH  18  20
ENDBRANCH  15  18
ENDBRANCH   2  15
TORSDOF 7
ENDMDL
MODEL 2
REMARK VINA RESULT:    -4.710      2.303      3.141
REMARK INTER + INTRA:          -6.612
REMARK INTER:                  -6.111
REMARK INTRA:                  -0.501
REMARK UNBOUND:                -0.250
REMARK  Name = 5363374
REMARK  7 active torsions:
REMARK  status: ('A' for Active; 'I' for Inactive)
REMARK    1  A    between atoms: O_1  and  C_8
REMARK    2  A    between atoms: O_1  and  C_9
REMARK    3  A    between atoms: C_3  and  C_4
REMARK    4  A    between atoms: C_3  and  C_5
REMARK    5  A    between atoms: C_4  and  C_6
REMARK    6  A    between atoms: C_7  and  C_8
REMARK    7  A    between atoms: C_9  and  C_10
REMARK                            x       y       z     vdW  Elec       q    Type
REMARK                         _______ _______ _______ _____ _____    ______ ____
ROOT
ATOM      1  C   UNL     1       6.319  -1.903  -3.396  0.00  0.00    +0.000 C 
ATOM      2  C   UNL     1       6.836  -2.085  -2.173  0.00  0.00    +0.000 C 
ATOM      3  H   UNL     1       5.457  -2.494  -3.695  0.00  0.00    +0.000 HD
ATOM      4  H   UNL     1       6.385  -2.829  -1.520  0.00  0.00    +0.000 HD
ENDROOT
BRANCH   1   5
ATOM      5  C   UNL     1       6.846  -0.904  -4.386  0.00  0.00    +0.000 C 
ATOM      6  H   UNL     1       7.237  -1.463  -5.246  0.00  0.00    +0.000 HD
ATOM      7  H   UNL     1       7.705  -0.348  -3.998  0.00  0.00    +0.000 HD
BRANCH   5   8
ATOM      8  C   UNL     1       5.742   0.042  -4.860  0.00  0.00    +0.000 C 
ATOM      9  H   UNL     1       4.898  -0.531  -5.265  0.00  0.00    +0.000 HD
ATOM     10  H   UNL     1       6.115   0.680  -5.671  0.00  0.00    +0.000 HD
BRANCH   8  11
ATOM     11  C   UNL     1       5.239   0.922  -3.727  0.00  0.00    +0.000 C 
ATOM     12  H   UNL     1       6.074   1.237  -3.092  0.00  0.00    +0.000 HD
ATOM     13  H   UNL     1       4.751   1.821  -4.116  0.00  0.00    +0.000 HD
ATOM     14  H   UNL     1       4.522   0.383  -3.100  0.00  0.00    +0.000 HD
ENDBRANCH   8  11
ENDBRANCH   5   8
ENDBRANCH   1   5
BRANCH   2  15
ATOM     15  C   UNL     1       8.002  -1.318  -1.642  0.00  0.00    +0.000 C 
ATOM     16  H   UNL     1       8.891  -1.957  -1.706  0.00  0.00    +0.000 HD
ATOM     17  H   UNL     1       8.212  -0.394  -2.186  0.00  0.00    +0.000 HD
BRANCH  15  18
ATOM     18  O   UNL     1       7.757  -1.000  -0.279  0.00  0.00    +0.000 OA
BRANCH  18  20
ATOM     19  O   UNL     1       6.059   0.246   0.670  0.00  0.00    +0.000 OA
ATOM     20  C   UNL     1       7.040   0.143  -0.054  0.00  0.00    +0.000 C 
BRANCH  20  21
ATOM     21  C   UNL     1       7.633   1.279  -0.832  0.00  0.00    +0.000 C 
ATOM     22  H   UNL     1       7.755   0.987  -1.878  0.00  0.00    +0.000 HD
ATOM     23  H   UNL     1       8.593   1.565  -0.396  0.00  0.00    +0.000 HD
ATOM     24  H   UNL     1       6.959   2.140  -0.787  0.00  0.00    +0.000 HD
ENDBRANCH  20  21
ENDBRANCH  18  20
ENDBRANCH  15  18
ENDBRANCH   2  15
TORSDOF 7
ENDMDL
MODEL 3
REMARK VINA RESULT:    -4.481      2.384      4.290
REMARK INTER + INTRA:          -6.303
REMARK INTER:                  -5.922
REMARK INTRA:                  -0.381
REMARK UNBOUND:                -0.250
REMARK  Name = 5363374
REMARK  7 active torsions:
REMARK  status: ('A' for Active; 'I' for Inactive)
REMARK    1  A    between atoms: O_1  and  C_8
REMARK    2  A    between atoms: O_1  and  C_9
REMARK    3  A    between atoms: C_3  and  C_4
REMARK    4  A    between atoms: C_3  and  C_5
REMARK    5  A    between atoms: C_4  and  C_6
REMARK    6  A    between atoms: C_7  and  C_8
REMARK    7  A    between atoms: C_9  and  C_10
REMARK                            x       y       z     vdW  Elec       q    Type
REMARK                         _______ _______ _______ _____ _____    ______ ____
ROOT
ATOM      1  C   UNL     1       8.756  -1.872  -2.526  0.00  0.00    +0.000 C 
ATOM      2  C   UNL     1       7.497  -2.199  -2.203  0.00  0.00    +0.000 C 
ATOM      3  H   UNL     1       9.544  -2.038  -1.797  0.00  0.00    +0.000 HD
ATOM      4  H   UNL     1       7.299  -2.608  -1.216  0.00  0.00    +0.000 HD
ENDROOT
BRANCH   1   5
ATOM      5  C   UNL     1       9.158  -1.305  -3.857  0.00  0.00    +0.000 C 
ATOM      6  H   UNL     1       9.392  -0.243  -3.709  0.00  0.00    +0.000 HD
ATOM      7  H   UNL     1       8.335  -1.314  -4.579  0.00  0.00    +0.000 HD
BRANCH   5   8
ATOM      8  C   UNL     1      10.390  -2.019  -4.414  0.00  0.00    +0.000 C 
ATOM      9  H   UNL     1      10.200  -2.364  -5.438  0.00  0.00    +0.000 HD
ATOM     10  H   UNL     1      10.616  -2.907  -3.812  0.00  0.00    +0.000 HD
BRANCH   8  11
ATOM     11  C   UNL     1      11.605  -1.104  -4.424  0.00  0.00    +0.000 C 
ATOM     12  H   UNL     1      11.576  -0.426  -3.564  0.00  0.00    +0.000 HD
ATOM     13  H   UNL     1      12.532  -1.683  -4.367  0.00  0.00    +0.000 HD
ATOM     14  H   UNL     1      11.632  -0.496  -5.334  0.00  0.00    +0.000 HD
ENDBRANCH   8  11
ENDBRANCH   5   8
ENDBRANCH   1   5
BRANCH   2  15
ATOM     15  C   UNL     1       6.335  -2.038  -3.128  0.00  0.00    +0.000 C 
ATOM     16  H   UNL     1       6.721  -1.792  -4.125  0.00  0.00    +0.000 HD
ATOM     17  H   UNL     1       5.711  -2.930  -3.220  0.00  0.00    +0.000 HD
BRANCH  15  18
ATOM     18  O   UNL     1       5.529  -0.964  -2.666  0.00  0.00    +0.000 OA
BRANCH  18  20
ATOM     19  O   UNL     1       5.164   0.343  -4.536  0.00  0.00    +0.000 OA
ATOM     20  C   UNL     1       5.594   0.188  -3.401  0.00  0.00    +0.000 C 
BRANCH  20  21
ATOM     21  C   UNL     1       6.279   1.261  -2.609  0.00  0.00    +0.000 C 
ATOM     22  H   UNL     1       5.979   1.196  -1.560  0.00  0.00    +0.000 HD
ATOM     23  H   UNL     1       6.030   2.242  -3.023  0.00  0.00    +0.000 HD
ATOM     24  H   UNL     1       7.362   1.121  -2.671  0.00  0.00    +0.000 HD
ENDBRANCH  20  21
ENDBRANCH  18  20
ENDBRANCH  15  18
ENDBRANCH   2  15
TORSDOF 7
ENDMDL
MODEL 4
REMARK VINA RESULT:    -4.258     15.806     16.869
REMARK INTER + INTRA:          -6.002
REMARK INTER:                  -5.589
REMARK INTRA:                  -0.413
REMARK UNBOUND:                -0.250
REMARK  Name = 5363374
REMARK  7 active torsions:
REMARK  status: ('A' for Active; 'I' for Inactive)
REMARK    1  A    between atoms: O_1  and  C_8
REMARK    2  A    between atoms: O_1  and  C_9
REMARK    3  A    between atoms: C_3  and  C_4
REMARK    4  A    between atoms: C_3  and  C_5
REMARK    5  A    between atoms: C_4  and  C_6
REMARK    6  A    between atoms: C_7  and  C_8
REMARK    7  A    between atoms: C_9  and  C_10
REMARK                            x       y       z     vdW  Elec       q    Type
REMARK                         _______ _______ _______ _____ _____    ______ ____
ROOT
ATOM      1  C   UNL     1      -1.371 -13.798  -9.680  0.00  0.00    +0.000 C 
ATOM      2  C   UNL     1      -1.667 -14.492 -10.789  0.00  0.00    +0.000 C 
ATOM      3  H   UNL     1      -1.768 -14.138  -8.728  0.00  0.00    +0.000 HD
ATOM      4  H   UNL     1      -2.307 -15.366 -10.704  0.00  0.00    +0.000 HD
ENDROOT
BRANCH   1   5
ATOM      5  C   UNL     1      -0.495 -12.579  -9.666  0.00  0.00    +0.000 C 
ATOM      6  H   UNL     1      -0.957 -11.830 -10.322  0.00  0.00    +0.000 HD
ATOM      7  H   UNL     1       0.490 -12.769 -10.104  0.00  0.00    +0.000 HD
BRANCH   5   8
ATOM      8  C   UNL     1      -0.371 -12.002  -8.255  0.00  0.00    +0.000 C 
ATOM      9  H   UNL     1      -0.799 -10.993  -8.217  0.00  0.00    +0.000 HD
ATOM     10  H   UNL     1       0.686 -11.913  -7.976  0.00  0.00    +0.000 HD
BRANCH   8  11
ATOM     11  C   UNL     1      -1.083 -12.875  -7.234  0.00  0.00    +0.000 C 
ATOM     12  H   UNL     1      -0.606 -12.778  -6.253  0.00  0.00    +0.000 HD
ATOM     13  H   UNL     1      -2.132 -12.581  -7.130  0.00  0.00    +0.000 HD
ATOM     14  H   UNL     1      -1.047 -13.930  -7.525  0.00  0.00    +0.000 HD
ENDBRANCH   8  11
ENDBRANCH   5   8
ENDBRANCH   1   5
BRANCH   2  15
ATOM     15  C   UNL     1      -1.162 -14.136 -12.149  0.00  0.00    +0.000 C 
ATOM     16  H   UNL     1      -1.911 -14.451 -12.886  0.00  0.00    +0.000 HD
ATOM     17  H   UNL     1      -0.979 -13.068 -12.291  0.00  0.00    +0.000 HD
BRANCH  15  18
ATOM     18  O   UNL     1       0.048 -14.842 -12.386  0.00  0.00    +0.000 OA
BRANCH  18  20
ATOM     19  O   UNL     1       2.235 -14.474 -13.033  0.00  0.00    +0.000 OA
ATOM     20  C   UNL     1       1.075 -14.104 -12.907  0.00  0.00    +0.000 C 
BRANCH  20  21
ATOM     21  C   UNL     1       0.577 -12.750 -13.312  0.00  0.00    +0.000 C 
ATOM     22  H   UNL     1       1.308 -11.987 -13.033  0.00  0.00    +0.000 HD
ATOM     23  H   UNL     1      -0.388 -12.554 -12.837  0.00  0.00    +0.000 HD
ATOM     24  H   UNL     1       0.442 -12.723 -14.398  0.00  0.00    +0.000 HD
ENDBRANCH  20  21
ENDBRANCH  18  20
ENDBRANCH  15  18
ENDBRANCH   2  15
TORSDOF 7
ENDMDL
MODEL 5
REMARK VINA RESULT:    -4.251      2.400      4.452
REMARK INTER + INTRA:          -5.992
REMARK INTER:                  -5.607
REMARK INTRA:                  -0.385
REMARK UNBOUND:                -0.250
REMARK  Name = 5363374
REMARK  7 active torsions:
REMARK  status: ('A' for Active; 'I' for Inactive)
REMARK    1  A    between atoms: O_1  and  C_8
REMARK    2  A    between atoms: O_1  and  C_9
REMARK    3  A    between atoms: C_3  and  C_4
REMARK    4  A    between atoms: C_3  and  C_5
REMARK    5  A    between atoms: C_4  and  C_6
REMARK    6  A    between atoms: C_7  and  C_8
REMARK    7  A    between atoms: C_9  and  C_10
REMARK                            x       y       z     vdW  Elec       q    Type
REMARK                         _______ _______ _______ _____ _____    ______ ____
ROOT
ATOM      1  C   UNL     1       9.599  -0.233  -2.725  0.00  0.00    +0.000 C 
ATOM      2  C   UNL     1       8.757   0.351  -1.860  0.00  0.00    +0.000 C 
ATOM      3  H   UNL     1      10.355   0.376  -3.213  0.00  0.00    +0.000 HD
ATOM      4  H   UNL     1       8.848   1.420  -1.683  0.00  0.00    +0.000 HD
ENDROOT
BRANCH   1   5
ATOM      5  C   UNL     1       9.579  -1.698  -3.050  0.00  0.00    +0.000 C 
ATOM      6  H   UNL     1       8.535  -1.985  -3.227  0.00  0.00    +0.000 HD
ATOM      7  H   UNL     1       9.902  -2.316  -2.206  0.00  0.00    +0.000 HD
BRANCH   5   8
ATOM      8  C   UNL     1      10.402  -1.999  -4.303  0.00  0.00    +0.000 C 
ATOM      9  H   UNL     1       9.823  -1.764  -5.205  0.00  0.00    +0.000 HD
ATOM     10  H   UNL     1      10.645  -3.068  -4.347  0.00  0.00    +0.000 HD
BRANCH   8  11
ATOM     11  C   UNL     1      11.693  -1.196  -4.326  0.00  0.00    +0.000 C 
ATOM     12  H   UNL     1      12.353  -1.515  -3.513  0.00  0.00    +0.000 HD
ATOM     13  H   UNL     1      12.228  -1.338  -5.271  0.00  0.00    +0.000 HD
ATOM     14  H   UNL     1      11.493  -0.127  -4.200  0.00  0.00    +0.000 HD
ENDBRANCH   8  11
ENDBRANCH   5   8
ENDBRANCH   1   5
BRANCH   2  15
ATOM     15  C   UNL     1       7.693  -0.385  -1.113  0.00  0.00    +0.000 C 
ATOM     16  H   UNL     1       7.765  -1.448  -1.371  0.00  0.00    +0.000 HD
ATOM     17  H   UNL     1       7.770  -0.297  -0.026  0.00  0.00    +0.000 HD
BRANCH  15  18
ATOM     18  O   UNL     1       6.425   0.107  -1.522  0.00  0.00    +0.000 OA
BRANCH  18  20
ATOM     19  O   UNL     1       5.572  -1.811  -2.486  0.00  0.00    +0.000 OA
ATOM     20  C   UNL     1       5.798  -0.609  -2.504  0.00  0.00    +0.000 C 
BRANCH  20  21
ATOM     21  C   UNL     1       5.414   0.301  -3.632  0.00  0.00    +0.000 C 
ATOM     22  H   UNL     1       4.326   0.388  -3.685  0.00  0.00    +0.000 HD
ATOM     23  H   UNL     1       5.817  -0.087  -4.572  0.00  0.00    +0.000 HD
ATOM     24  H   UNL     1       5.836   1.295  -3.456  0.00  0.00    +0.000 HD
ENDBRANCH  20  21
ENDBRANCH  18  20
ENDBRANCH  15  18
ENDBRANCH   2  15
TORSDOF 7
ENDMDL
MODEL 6
REMARK VINA RESULT:    -3.929      2.771      4.222
REMARK INTER + INTRA:          -5.557
REMARK INTER:                  -5.201
REMARK INTRA:                  -0.356
REMARK UNBOUND:                -0.250
REMARK  Name = 5363374
REMARK  7 active torsions:
REMARK  status: ('A' for Active; 'I' for Inactive)
REMARK    1  A    between atoms: O_1  and  C_8
REMARK    2  A    between atoms: O_1  and  C_9
REMARK    3  A    between atoms: C_3  and  C_4
REMARK    4  A    between atoms: C_3  and  C_5
REMARK    5  A    between atoms: C_4  and  C_6
REMARK    6  A    between atoms: C_7  and  C_8
REMARK    7  A    between atoms: C_9  and  C_10
REMARK                            x       y       z     vdW  Elec       q    Type
REMARK                         _______ _______ _______ _____ _____    ______ ____
ROOT
ATOM      1  C   UNL     1       8.430  -1.375  -1.441  0.00  0.00    +0.000 C 
ATOM      2  C   UNL     1       7.873  -1.749  -2.602  0.00  0.00    +0.000 C 
ATOM      3  H   UNL     1       8.497  -2.100  -0.634  0.00  0.00    +0.000 HD
ATOM      4  H   UNL     1       7.493  -2.763  -2.697  0.00  0.00    +0.000 HD
ENDROOT
BRANCH   1   5
ATOM      5  C   UNL     1       8.996  -0.008  -1.188  0.00  0.00    +0.000 C 
ATOM      6  H   UNL     1       9.225   0.443  -2.162  0.00  0.00    +0.000 HD
ATOM      7  H   UNL     1       9.956  -0.045  -0.663  0.00  0.00    +0.000 HD
BRANCH   5   8
ATOM      8  C   UNL     1       7.994   0.878  -0.447  0.00  0.00    +0.000 C 
ATOM      9  H   UNL     1       7.635   0.373   0.458  0.00  0.00    +0.000 HD
ATOM     10  H   UNL     1       7.118   1.066  -1.079  0.00  0.00    +0.000 HD
BRANCH   8  11
ATOM     11  C   UNL     1       8.616   2.209  -0.052  0.00  0.00    +0.000 C 
ATOM     12  H   UNL     1       8.076   2.643   0.796  0.00  0.00    +0.000 HD
ATOM     13  H   UNL     1       9.662   2.080   0.244  0.00  0.00    +0.000 HD
ATOM     14  H   UNL     1       8.576   2.922  -0.881  0.00  0.00    +0.000 HD
ENDBRANCH   8  11
ENDBRANCH   5   8
ENDBRANCH   1   5
BRANCH   2  15
ATOM     15  C   UNL     1       7.746  -0.850  -3.789  0.00  0.00    +0.000 C 
ATOM     16  H   UNL     1       7.808   0.188  -3.441  0.00  0.00    +0.000 HD
ATOM     17  H   UNL     1       8.521  -0.999  -4.545  0.00  0.00    +0.000 HD
BRANCH  15  18
ATOM     18  O   UNL     1       6.476  -1.063  -4.388  0.00  0.00    +0.000 OA
BRANCH  18  20
ATOM     19  O   UNL     1       5.377   0.355  -5.843  0.00  0.00    +0.000 OA
ATOM     20  C   UNL     1       5.780   0.065  -4.725  0.00  0.00    +0.000 C 
BRANCH  20  21
ATOM     21  C   UNL     1       5.573   0.919  -3.511  0.00  0.00    +0.000 C 
ATOM     22  H   UNL     1       4.795   1.660  -3.707  0.00  0.00    +0.000 HD
ATOM     23  H   UNL     1       6.513   1.407  -3.238  0.00  0.00    +0.000 HD
ATOM     24  H   UNL     1       5.253   0.289  -2.675  0.00  0.00    +0.000 HD
ENDBRANCH  20  21
ENDBRANCH  18  20
ENDBRANCH  15  18
ENDBRANCH   2  15
TORSDOF 7
ENDMDL
MODEL 7
REMARK VINA RESULT:    -3.838      3.586      5.628
REMARK INTER + INTRA:          -5.434
REMARK INTER:                  -5.113
REMARK INTRA:                  -0.321
REMARK UNBOUND:                -0.250
REMARK  Name = 5363374
REMARK  7 active torsions:
REMARK  status: ('A' for Active; 'I' for Inactive)
REMARK    1  A    between atoms: O_1  and  C_8
REMARK    2  A    between atoms: O_1  and  C_9
REMARK    3  A    between atoms: C_3  and  C_4
REMARK    4  A    between atoms: C_3  and  C_5
REMARK    5  A    between atoms: C_4  and  C_6
REMARK    6  A    between atoms: C_7  and  C_8
REMARK    7  A    between atoms: C_9  and  C_10
REMARK                            x       y       z     vdW  Elec       q    Type
REMARK                         _______ _______ _______ _____ _____    ______ ____
ROOT
ATOM      1  C   UNL     1       9.415   0.418   0.428  0.00  0.00    +0.000 C 
ATOM      2  C   UNL     1       8.743   1.461  -0.082  0.00  0.00    +0.000 C 
ATOM      3  H   UNL     1      10.419   0.578   0.811  0.00  0.00    +0.000 HD
ATOM      4  H   UNL     1       9.229   2.433  -0.108  0.00  0.00    +0.000 HD
ENDROOT
BRANCH   1   5
ATOM      5  C   UNL     1       8.853  -0.971   0.525  0.00  0.00    +0.000 C 
ATOM      6  H   UNL     1       9.046  -1.475  -0.430  0.00  0.00    +0.000 HD
ATOM      7  H   UNL     1       7.763  -0.972   0.628  0.00  0.00    +0.000 HD
BRANCH   5   8
ATOM      8  C   UNL     1       9.517  -1.759   1.655  0.00  0.00    +0.000 C 
ATOM      9  H   UNL     1      10.105  -2.589   1.245  0.00  0.00    +0.000 HD
ATOM     10  H   UNL     1       8.753  -2.198   2.308  0.00  0.00    +0.000 HD
BRANCH   8  11
ATOM     11  C   UNL     1      10.432  -0.874   2.487  0.00  0.00    +0.000 C 
ATOM     12  H   UNL     1      10.297  -1.085   3.553  0.00  0.00    +0.000 HD
ATOM     13  H   UNL     1      11.483  -1.051   2.237  0.00  0.00    +0.000 HD
ATOM     14  H   UNL     1      10.211   0.185   2.320  0.00  0.00    +0.000 HD
ENDBRANCH   8  11
ENDBRANCH   5   8
ENDBRANCH   1   5
BRANCH   2  15
ATOM     15  C   UNL     1       7.351   1.370  -0.617  0.00  0.00    +0.000 C 
ATOM     16  H   UNL     1       6.825   0.576  -0.071  0.00  0.00    +0.000 HD
ATOM     17  H   UNL     1       6.773   2.291  -0.513  0.00  0.00    +0.000 HD
BRANCH  15  18
ATOM     18  O   UNL     1       7.414   1.023  -1.993  0.00  0.00    +0.000 OA
BRANCH  18  20
ATOM     19  O   UNL     1       5.537   1.420  -3.281  0.00  0.00    +0.000 OA
ATOM     20  C   UNL     1       6.223   0.690  -2.578  0.00  0.00    +0.000 C 
BRANCH  20  21
ATOM     21  C   UNL     1       5.862  -0.723  -2.233  0.00  0.00    +0.000 C 
ATOM     22  H   UNL     1       6.770  -1.301  -2.043  0.00  0.00    +0.000 HD
ATOM     23  H   UNL     1       5.284  -1.167  -3.048  0.00  0.00    +0.000 HD
ATOM     24  H   UNL     1       5.249  -0.730  -1.327  0.00  0.00    +0.000 HD
ENDBRANCH  20  21
ENDBRANCH  18  20
ENDBRANCH  15  18
ENDBRANCH   2  15
TORSDOF 7
ENDMDL
MODEL 8
REMARK VINA RESULT:    -3.740     37.374     38.804
REMARK INTER + INTRA:          -5.302
REMARK INTER:                  -4.941
REMARK INTRA:                  -0.361
REMARK UNBOUND:                -0.250
REMARK  Name = 5363374
REMARK  7 active torsions:
REMARK  status: ('A' for Active; 'I' for Inactive)
REMARK    1  A    between atoms: O_1  and  C_8
REMARK    2  A    between atoms: O_1  and  C_9
REMARK    3  A    between atoms: C_3  and  C_4
REMARK    4  A    between atoms: C_3  and  C_5
REMARK    5  A    between atoms: C_4  and  C_6
REMARK    6  A    between atoms: C_7  and  C_8
REMARK    7  A    between atoms: C_9  and  C_10
REMARK                            x       y       z     vdW  Elec       q    Type
REMARK                         _______ _______ _______ _____ _____    ______ ____
ROOT
ATOM      1  C   UNL     1     -28.692  -5.928  12.048  0.00  0.00    +0.000 C 
ATOM      2  C   UNL     1     -28.184  -4.984  11.242  0.00  0.00    +0.000 C 
ATOM      3  H   UNL     1     -29.272  -6.735  11.610  0.00  0.00    +0.000 HD
ATOM      4  H   UNL     1     -28.379  -5.048  10.175  0.00  0.00    +0.000 HD
ENDROOT
BRANCH   1   5
ATOM      5  C   UNL     1     -28.490  -5.954  13.536  0.00  0.00    +0.000 C 
ATOM      6  H   UNL     1     -29.049  -5.112  13.962  0.00  0.00    +0.000 HD
ATOM      7  H   UNL     1     -27.448  -5.771  13.817  0.00  0.00    +0.000 HD
BRANCH   5   8
ATOM      8  C   UNL     1     -29.006  -7.259  14.142  0.00  0.00    +0.000 C 
ATOM      9  H   UNL     1     -30.049  -7.144  14.463  0.00  0.00    +0.000 HD
ATOM     10  H   UNL     1     -28.423  -7.517  15.035  0.00  0.00    +0.000 HD
BRANCH   8  11
ATOM     11  C   UNL     1     -28.923  -8.406  13.147  0.00  0.00    +0.000 C 
ATOM     12  H   UNL     1     -28.440  -8.071  12.222  0.00  0.00    +0.000 HD
ATOM     13  H   UNL     1     -28.336  -9.236  13.553  0.00  0.00    +0.000 HD
ATOM     14  H   UNL     1     -29.920  -8.779  12.893  0.00  0.00    +0.000 HD
ENDBRANCH   8  11
ENDBRANCH   5   8
ENDBRANCH   1   5
BRANCH   2  15
ATOM     15  C   UNL     1     -27.354  -3.841  11.725  0.00  0.00    +0.000 C 
ATOM     16  H   UNL     1     -27.547  -2.978  11.076  0.00  0.00    +0.000 HD
ATOM     17  H   UNL     1     -27.563  -3.541  12.754  0.00  0.00    +0.000 HD
BRANCH  15  18
ATOM     18  O   UNL     1     -25.982  -4.198  11.624  0.00  0.00    +0.000 OA
BRANCH  18  20
ATOM     19  O   UNL     1     -24.420  -2.552  12.055  0.00  0.00    +0.000 OA
ATOM     20  C   UNL     1     -25.122  -3.487  12.415  0.00  0.00    +0.000 C 
BRANCH  20  21
ATOM     21  C   UNL     1     -25.156  -4.020  13.815  0.00  0.00    +0.000 C 
ATOM     22  H   UNL     1     -25.849  -3.430  14.420  0.00  0.00    +0.000 HD
ATOM     23  H   UNL     1     -24.151  -3.996  14.244  0.00  0.00    +0.000 HD
ATOM     24  H   UNL     1     -25.503  -5.058  13.799  0.00  0.00    +0.000 HD
ENDBRANCH  20  21
ENDBRANCH  18  20
ENDBRANCH  15  18
ENDBRANCH   2  15
TORSDOF 7
ENDMDL
MODEL 9
REMARK VINA RESULT:    -3.723     37.005     38.148
REMARK INTER + INTRA:          -5.279
REMARK INTER:                  -5.029
REMARK INTRA:                  -0.250
REMARK UNBOUND:                -0.250
REMARK  Name = 5363374
REMARK  7 active torsions:
REMARK  status: ('A' for Active; 'I' for Inactive)
REMARK    1  A    between atoms: O_1  and  C_8
REMARK    2  A    between atoms: O_1  and  C_9
REMARK    3  A    between atoms: C_3  and  C_4
REMARK    4  A    between atoms: C_3  and  C_5
REMARK    5  A    between atoms: C_4  and  C_6
REMARK    6  A    between atoms: C_7  and  C_8
REMARK    7  A    between atoms: C_9  and  C_10
REMARK                            x       y       z     vdW  Elec       q    Type
REMARK                         _______ _______ _______ _____ _____    ______ ____
ROOT
ATOM      1  C   UNL     1     -27.075  -4.017  11.388  0.00  0.00    +0.000 C 
ATOM      2  C   UNL     1     -25.821  -3.664  11.705  0.00  0.00    +0.000 C 
ATOM      3  H   UNL     1     -27.421  -3.864  10.369  0.00  0.00    +0.000 HD
ATOM      4  H   UNL     1     -25.191  -3.222  10.936  0.00  0.00    +0.000 HD
ENDROOT
BRANCH   1   5
ATOM      5  C   UNL     1     -28.038  -4.640  12.356  0.00  0.00    +0.000 C 
ATOM      6  H   UNL     1     -28.768  -3.871  12.640  0.00  0.00    +0.000 HD
ATOM      7  H   UNL     1     -27.555  -4.929  13.295  0.00  0.00    +0.000 HD
BRANCH   5   8
ATOM      8  C   UNL     1     -28.772  -5.823  11.724  0.00  0.00    +0.000 C 
ATOM      9  H   UNL     1     -28.200  -6.216  10.875  0.00  0.00    +0.000 HD
ATOM     10  H   UNL     1     -29.744  -5.498  11.333  0.00  0.00    +0.000 HD
BRANCH   8  11
ATOM     11  C   UNL     1     -28.991  -6.942  12.729  0.00  0.00    +0.000 C 
ATOM     12  H   UNL     1     -29.808  -6.686  13.412  0.00  0.00    +0.000 HD
ATOM     13  H   UNL     1     -29.254  -7.877  12.224  0.00  0.00    +0.000 HD
ATOM     14  H   UNL     1     -28.090  -7.115  13.327  0.00  0.00    +0.000 HD
ENDBRANCH   8  11
ENDBRANCH   5   8
ENDBRANCH   1   5
BRANCH   2  15
ATOM     15  C   UNL     1     -25.226  -3.846  13.063  0.00  0.00    +0.000 C 
ATOM     16  H   UNL     1     -26.036  -4.085  13.763  0.00  0.00    +0.000 HD
ATOM     17  H   UNL     1     -24.484  -4.646  13.121  0.00  0.00    +0.000 HD
BRANCH  15  18
ATOM     18  O   UNL     1     -24.615  -2.627  13.461  0.00  0.00    +0.000 OA
BRANCH  18  20
ATOM     19  O   UNL     1     -23.902  -1.512  15.355  0.00  0.00    +0.000 OA
ATOM     20  C   UNL     1     -24.497  -2.432  14.809  0.00  0.00    +0.000 C 
BRANCH  20  21
ATOM     21  C   UNL     1     -25.211  -3.524  15.547  0.00  0.00    +0.000 C 
ATOM     22  H   UNL     1     -26.276  -3.499  15.305  0.00  0.00    +0.000 HD
ATOM     23  H   UNL     1     -25.057  -3.405  16.623  0.00  0.00    +0.000 HD
ATOM     24  H   UNL     1     -24.806  -4.493  15.242  0.00  0.00    +0.000 HD
ENDBRANCH  20  21
ENDBRANCH  18  20
ENDBRANCH  15  18
ENDBRANCH   2  15
TORSDOF 7
ENDMDL
MODEL 10
REMARK VINA RESULT:    -3.621     20.368     21.780
REMARK INTER + INTRA:          -5.141
REMARK INTER:                  -4.912
REMARK INTRA:                  -0.229
REMARK UNBOUND:                -0.250
REMARK  Name = 5363374
REMARK  7 active torsions:
REMARK  status: ('A' for Active; 'I' for Inactive)
REMARK    1  A    between atoms: O_1  and  C_8
REMARK    2  A    between atoms: O_1  and  C_9
REMARK    3  A    between atoms: C_3  and  C_4
REMARK    4  A    between atoms: C_3  and  C_5
REMARK    5  A    between atoms: C_4  and  C_6
REMARK    6  A    between atoms: C_7  and  C_8
REMARK    7  A    between atoms: C_9  and  C_10
REMARK                            x       y       z     vdW  Elec       q    Type
REMARK                         _______ _______ _______ _____ _____    ______ ____
ROOT
ATOM      1  C   UNL     1       3.268  -3.618  15.599  0.00  0.00    +0.000 C 
ATOM      2  C   UNL     1       2.610  -3.944  16.720  0.00  0.00    +0.000 C 
ATOM      3  H   UNL     1       2.829  -2.886  14.927  0.00  0.00    +0.000 HD
ATOM      4  H   UNL     1       1.648  -3.476  16.917  0.00  0.00    +0.000 HD
ENDROOT
BRANCH   1   5
ATOM      5  C   UNL     1       4.603  -4.190  15.218  0.00  0.00    +0.000 C 
ATOM      6  H   UNL     1       4.427  -4.985  14.482  0.00  0.00    +0.000 HD
ATOM      7  H   UNL     1       5.098  -4.689  16.058  0.00  0.00    +0.000 HD
BRANCH   5   8
ATOM      8  C   UNL     1       5.507  -3.123  14.598  0.00  0.00    +0.000 C 
ATOM      9  H   UNL     1       6.246  -3.588  13.935  0.00  0.00    +0.000 HD
ATOM     10  H   UNL     1       6.065  -2.599  15.384  0.00  0.00    +0.000 HD
BRANCH   8  11
ATOM     11  C   UNL     1       4.702  -2.109  13.801  0.00  0.00    +0.000 C 
ATOM     12  H   UNL     1       3.854  -2.598  13.310  0.00  0.00    +0.000 HD
ATOM     13  H   UNL     1       4.307  -1.322  14.453  0.00  0.00    +0.000 HD
ATOM     14  H   UNL     1       5.318  -1.639  13.027  0.00  0.00    +0.000 HD
ENDBRANCH   8  11
ENDBRANCH   5   8
ENDBRANCH   1   5
BRANCH   2  15
ATOM     15  C   UNL     1       3.122  -4.919  17.730  0.00  0.00    +0.000 C 
ATOM     16  H   UNL     1       2.479  -5.807  17.707  0.00  0.00    +0.000 HD
ATOM     17  H   UNL     1       4.150  -5.243  17.554  0.00  0.00    +0.000 HD
BRANCH  15  18
ATOM     18  O   UNL     1       3.044  -4.324  19.018  0.00  0.00    +0.000 OA
BRANCH  18  20
ATOM     19  O   UNL     1       2.931  -4.977  21.231  0.00  0.00    +0.000 OA
ATOM     20  C   UNL     1       2.708  -5.165  20.042  0.00  0.00    +0.000 C 
BRANCH  20  21
ATOM     21  C   UNL     1       2.012  -6.377  19.500  0.00  0.00    +0.000 C 
ATOM     22  H   UNL     1       1.754  -7.053  20.319  0.00  0.00    +0.000 HD
ATOM     23  H   UNL     1       2.656  -6.879  18.773  0.00  0.00    +0.000 HD
ATOM     24  H   UNL     1       1.090  -6.071  18.997  0.00  0.00    +0.000 HD
ENDBRANCH  20  21
ENDBRANCH  18  20
ENDBRANCH  15  18
ENDBRANCH   2  15
TORSDOF 7
ENDMDL
