MODEL 1
REMARK VINA RESULT:    -4.170      0.000      0.000
REMARK INTER + INTRA:          -5.517
REMARK INTER:                  -5.194
REMARK INTRA:                  -0.323
REMARK UNBOUND:                -0.128
REMARK  Name = 7762
REMARK  6 active torsions:
REMARK  status: ('A' for Active; 'I' for Inactive)
REMARK    1  A    between atoms: O_1  and  C_6
REMARK    2  A    between atoms: O_1  and  C_7
REMARK    3  A    between atoms: C_3  and  C_4
REMARK    4  A    between atoms: C_3  and  C_5
REMARK    5  A    between atoms: C_4  and  C_6
REMARK    6  A    between atoms: C_7  and  C_8
REMARK                            x       y       z     vdW  Elec       q    Type
REMARK                         _______ _______ _______ _____ _____    ______ ____
ROOT
ATOM      1  C   UNL     1       5.882   1.336  -2.964  0.00  0.00    +0.000 C 
ATOM      2  H   UNL     1       5.323   1.828  -2.158  0.00  0.00    +0.000 HD
ATOM      3  H   UNL     1       6.373   2.101  -3.576  0.00  0.00    +0.000 HD
ENDROOT
BRANCH   1   4
ATOM      4  C   UNL     1       4.925   0.522  -3.832  0.00  0.00    +0.000 C 
ATOM      5  H   UNL     1       4.662  -0.412  -3.323  0.00  0.00    +0.000 HD
ATOM      6  H   UNL     1       3.989   1.076  -3.977  0.00  0.00    +0.000 HD
BRANCH   4   7
ATOM      7  C   UNL     1       5.532   0.205  -5.187  0.00  0.00    +0.000 C 
ATOM      8  H   UNL     1       5.606  -0.878  -5.326  0.00  0.00    +0.000 HD
ATOM      9  H   UNL     1       4.918   0.610  -5.998  0.00  0.00    +0.000 HD
ATOM     10  H   UNL     1       6.538   0.629  -5.274  0.00  0.00    +0.000 HD
ENDBRANCH   4   7
ENDBRANCH   1   4
BRANCH   1  12
ATOM     11  O   UNL     1       8.155   0.667  -2.420  0.00  0.00    +0.000 OA
ATOM     12  C   UNL     1       6.950   0.472  -2.334  0.00  0.00    +0.000 C 
BRANCH  12  13
ATOM     13  O   UNL     1       6.349  -0.552  -1.658  0.00  0.00    +0.000 OA
BRANCH  13  14
ATOM     14  C   UNL     1       6.995  -1.825  -1.769  0.00  0.00    +0.000 C 
ATOM     15  H   UNL     1       7.962  -1.702  -2.267  0.00  0.00    +0.000 HD
ATOM     16  H   UNL     1       7.151  -2.244  -0.769  0.00  0.00    +0.000 HD
BRANCH  14  17
ATOM     17  C   UNL     1       6.115  -2.753  -2.580  0.00  0.00    +0.000 C 
ATOM     18  H   UNL     1       6.719  -3.439  -3.179  0.00  0.00    +0.000 HD
ATOM     19  H   UNL     1       5.463  -3.337  -1.923  0.00  0.00    +0.000 HD
ATOM     20  H   UNL     1       5.463  -2.180  -3.248  0.00  0.00    +0.000 HD
ENDBRANCH  14  17
ENDBRANCH  13  14
ENDBRANCH  12  13
ENDBRANCH   1  12
TORSDOF 6
ENDMDL
MODEL 2
REMARK VINA RESULT:    -3.757      1.795      2.973
REMARK INTER + INTRA:          -4.983
REMARK INTER:                  -4.874
REMARK INTRA:                  -0.109
REMARK UNBOUND:                -0.128
REMARK  Name = 7762
REMARK  6 active torsions:
REMARK  status: ('A' for Active; 'I' for Inactive)
REMARK    1  A    between atoms: O_1  and  C_6
REMARK    2  A    between atoms: O_1  and  C_7
REMARK    3  A    between atoms: C_3  and  C_4
REMARK    4  A    between atoms: C_3  and  C_5
REMARK    5  A    between atoms: C_4  and  C_6
REMARK    6  A    between atoms: C_7  and  C_8
REMARK                            x       y       z     vdW  Elec       q    Type
REMARK                         _______ _______ _______ _____ _____    ______ ____
ROOT
ATOM      1  C   UNL     1       5.847   0.998  -3.192  0.00  0.00    +0.000 C 
ATOM      2  H   UNL     1       4.897   0.979  -2.646  0.00  0.00    +0.000 HD
ATOM      3  H   UNL     1       5.933   1.952  -3.726  0.00  0.00    +0.000 HD
ENDROOT
BRANCH   1   4
ATOM      4  C   UNL     1       5.891  -0.155  -4.193  0.00  0.00    +0.000 C 
ATOM      5  H   UNL     1       6.919  -0.520  -4.296  0.00  0.00    +0.000 HD
ATOM      6  H   UNL     1       5.293  -0.995  -3.820  0.00  0.00    +0.000 HD
BRANCH   4   7
ATOM      7  C   UNL     1       5.365   0.267  -5.554  0.00  0.00    +0.000 C 
ATOM      8  H   UNL     1       5.369   1.358  -5.641  0.00  0.00    +0.000 HD
ATOM      9  H   UNL     1       5.987  -0.140  -6.359  0.00  0.00    +0.000 HD
ATOM     10  H   UNL     1       4.338  -0.083  -5.703  0.00  0.00    +0.000 HD
ENDBRANCH   4   7
ENDBRANCH   1   4
BRANCH   1  12
ATOM     11  O   UNL     1       8.121   0.590  -2.436  0.00  0.00    +0.000 OA
ATOM     12  C   UNL     1       6.970   0.917  -2.184  0.00  0.00    +0.000 C 
BRANCH  12  13
ATOM     13  O   UNL     1       6.487   1.270  -0.955  0.00  0.00    +0.000 OA
BRANCH  13  14
ATOM     14  C   UNL     1       7.156   2.366  -0.322  0.00  0.00    +0.000 C 
ATOM     15  H   UNL     1       7.480   2.067   0.680  0.00  0.00    +0.000 HD
ATOM     16  H   UNL     1       8.031   2.651  -0.917  0.00  0.00    +0.000 HD
BRANCH  14  17
ATOM     17  C   UNL     1       6.201   3.536  -0.224  0.00  0.00    +0.000 C 
ATOM     18  H   UNL     1       6.386   4.117   0.683  0.00  0.00    +0.000 HD
ATOM     19  H   UNL     1       6.307   4.194  -1.093  0.00  0.00    +0.000 HD
ATOM     20  H   UNL     1       5.163   3.186  -0.216  0.00  0.00    +0.000 HD
ENDBRANCH  14  17
ENDBRANCH  13  14
ENDBRANCH  12  13
ENDBRANCH   1  12
TORSDOF 6
ENDMDL
MODEL 3
REMARK VINA RESULT:    -3.751      1.536      2.614
REMARK INTER + INTRA:          -4.976
REMARK INTER:                  -4.676
REMARK INTRA:                  -0.300
REMARK UNBOUND:                -0.128
REMARK  Name = 7762
REMARK  6 active torsions:
REMARK  status: ('A' for Active; 'I' for Inactive)
REMARK    1  A    between atoms: O_1  and  C_6
REMARK    2  A    between atoms: O_1  and  C_7
REMARK    3  A    between atoms: C_3  and  C_4
REMARK    4  A    between atoms: C_3  and  C_5
REMARK    5  A    between atoms: C_4  and  C_6
REMARK    6  A    between atoms: C_7  and  C_8
REMARK                            x       y       z     vdW  Elec       q    Type
REMARK                         _______ _______ _______ _____ _____    ______ ____
ROOT
ATOM      1  C   UNL     1       7.158  -0.802  -4.157  0.00  0.00    +0.000 C 
ATOM      2  H   UNL     1       7.818   0.031  -3.887  0.00  0.00    +0.000 HD
ATOM      3  H   UNL     1       7.712  -1.504  -4.792  0.00  0.00    +0.000 HD
ENDROOT
BRANCH   1   4
ATOM      4  C   UNL     1       5.944  -0.272  -4.918  0.00  0.00    +0.000 C 
ATOM      5  H   UNL     1       6.268   0.205  -5.851  0.00  0.00    +0.000 HD
ATOM      6  H   UNL     1       5.287  -1.103  -5.200  0.00  0.00    +0.000 HD
BRANCH   4   7
ATOM      7  C   UNL     1       5.157   0.727  -4.088  0.00  0.00    +0.000 C 
ATOM      8  H   UNL     1       4.218   0.981  -4.589  0.00  0.00    +0.000 HD
ATOM      9  H   UNL     1       4.915   0.315  -3.102  0.00  0.00    +0.000 HD
ATOM     10  H   UNL     1       5.727   1.651  -3.943  0.00  0.00    +0.000 HD
ENDBRANCH   4   7
ENDBRANCH   1   4
BRANCH   1  12
ATOM     11  O   UNL     1       5.970  -2.449  -2.821  0.00  0.00    +0.000 OA
ATOM     12  C   UNL     1       6.762  -1.520  -2.888  0.00  0.00    +0.000 C 
BRANCH  12  13
ATOM     13  O   UNL     1       7.435  -0.962  -1.837  0.00  0.00    +0.000 OA
BRANCH  13  14
ATOM     14  C   UNL     1       6.616  -0.323  -0.852  0.00  0.00    +0.000 C 
ATOM     15  H   UNL     1       5.560  -0.474  -1.100  0.00  0.00    +0.000 HD
ATOM     16  H   UNL     1       6.824  -0.757   0.133  0.00  0.00    +0.000 HD
BRANCH  14  17
ATOM     17  C   UNL     1       6.931   1.158  -0.834  0.00  0.00    +0.000 C 
ATOM     18  H   UNL     1       6.336   1.692  -1.579  0.00  0.00    +0.000 HD
ATOM     19  H   UNL     1       6.728   1.583   0.154  0.00  0.00    +0.000 HD
ATOM     20  H   UNL     1       7.993   1.328  -1.041  0.00  0.00    +0.000 HD
ENDBRANCH  14  17
ENDBRANCH  13  14
ENDBRANCH  12  13
ENDBRANCH   1  12
TORSDOF 6
ENDMDL
MODEL 4
REMARK VINA RESULT:    -3.361     19.458     20.468
REMARK INTER + INTRA:          -4.471
REMARK INTER:                  -4.331
REMARK INTRA:                  -0.140
REMARK UNBOUND:                -0.128
REMARK  Name = 7762
REMARK  6 active torsions:
REMARK  status: ('A' for Active; 'I' for Inactive)
REMARK    1  A    between atoms: O_1  and  C_6
REMARK    2  A    between atoms: O_1  and  C_7
REMARK    3  A    between atoms: C_3  and  C_4
REMARK    4  A    between atoms: C_3  and  C_5
REMARK    5  A    between atoms: C_4  and  C_6
REMARK    6  A    between atoms: C_7  and  C_8
REMARK                            x       y       z     vdW  Elec       q    Type
REMARK                         _______ _______ _______ _____ _____    ______ ____
ROOT
ATOM      1  C   UNL     1      -2.641   7.685  13.486  0.00  0.00    +0.000 C 
ATOM      2  H   UNL     1      -3.343   6.869  13.277  0.00  0.00    +0.000 HD
ATOM      3  H   UNL     1      -1.756   7.275  13.987  0.00  0.00    +0.000 HD
ENDROOT
BRANCH   1   4
ATOM      4  C   UNL     1      -3.308   8.720  14.390  0.00  0.00    +0.000 C 
ATOM      5  H   UNL     1      -3.494   9.642  13.827  0.00  0.00    +0.000 HD
ATOM      6  H   UNL     1      -4.286   8.351  14.722  0.00  0.00    +0.000 HD
BRANCH   4   7
ATOM      7  C   UNL     1      -2.453   9.034  15.606  0.00  0.00    +0.000 C 
ATOM      8  H   UNL     1      -1.499   9.472  15.296  0.00  0.00    +0.000 HD
ATOM      9  H   UNL     1      -2.957   9.748  16.266  0.00  0.00    +0.000 HD
ATOM     10  H   UNL     1      -2.241   8.126  16.180  0.00  0.00    +0.000 HD
ENDBRANCH   4   7
ENDBRANCH   1   4
BRANCH   1  12
ATOM     11  O   UNL     1      -1.582   7.687  11.298  0.00  0.00    +0.000 OA
ATOM     12  C   UNL     1      -2.207   8.280  12.166  0.00  0.00    +0.000 C 
BRANCH  12  13
ATOM     13  O   UNL     1      -2.629   9.578  12.107  0.00  0.00    +0.000 OA
BRANCH  13  14
ATOM     14  C   UNL     1      -2.623  10.168  10.802  0.00  0.00    +0.000 C 
ATOM     15  H   UNL     1      -1.617  10.099  10.375  0.00  0.00    +0.000 HD
ATOM     16  H   UNL     1      -3.329   9.634  10.157  0.00  0.00    +0.000 HD
BRANCH  14  17
ATOM     17  C   UNL     1      -3.033  11.621  10.917  0.00  0.00    +0.000 C 
ATOM     18  H   UNL     1      -3.739  11.763  11.738  0.00  0.00    +0.000 HD
ATOM     19  H   UNL     1      -2.157  12.255  11.088  0.00  0.00    +0.000 HD
ATOM     20  H   UNL     1      -3.497  11.965   9.986  0.00  0.00    +0.000 HD
ENDBRANCH  14  17
ENDBRANCH  13  14
ENDBRANCH  12  13
ENDBRANCH   1  12
TORSDOF 6
ENDMDL
MODEL 5
REMARK VINA RESULT:    -3.342      2.202      3.606
REMARK INTER + INTRA:          -4.447
REMARK INTER:                  -4.249
REMARK INTRA:                  -0.198
REMARK UNBOUND:                -0.128
REMARK  Name = 7762
REMARK  6 active torsions:
REMARK  status: ('A' for Active; 'I' for Inactive)
REMARK    1  A    between atoms: O_1  and  C_6
REMARK    2  A    between atoms: O_1  and  C_7
REMARK    3  A    between atoms: C_3  and  C_4
REMARK    4  A    between atoms: C_3  and  C_5
REMARK    5  A    between atoms: C_4  and  C_6
REMARK    6  A    between atoms: C_7  and  C_8
REMARK                            x       y       z     vdW  Elec       q    Type
REMARK                         _______ _______ _______ _____ _____    ______ ____
ROOT
ATOM      1  C   UNL     1       8.381   0.028  -0.285  0.00  0.00    +0.000 C 
ATOM      2  H   UNL     1       8.600  -0.095   0.783  0.00  0.00    +0.000 HD
ATOM      3  H   UNL     1       8.775  -0.837  -0.831  0.00  0.00    +0.000 HD
ENDROOT
BRANCH   1   4
ATOM      4  C   UNL     1       9.040   1.305  -0.802  0.00  0.00    +0.000 C 
ATOM      5  H   UNL     1      10.131   1.208  -0.751  0.00  0.00    +0.000 HD
ATOM      6  H   UNL     1       8.786   1.455  -1.858  0.00  0.00    +0.000 HD
BRANCH   4   7
ATOM      7  C   UNL     1       8.604   2.522  -0.005  0.00  0.00    +0.000 C 
ATOM      8  H   UNL     1       8.464   3.380  -0.669  0.00  0.00    +0.000 HD
ATOM      9  H   UNL     1       7.656   2.334   0.511  0.00  0.00    +0.000 HD
ATOM     10  H   UNL     1       9.356   2.790   0.744  0.00  0.00    +0.000 HD
ENDBRANCH   4   7
ENDBRANCH   1   4
BRANCH   1  12
ATOM     11  O   UNL     1       6.067   0.128   0.456  0.00  0.00    +0.000 OA
ATOM     12  C   UNL     1       6.880   0.055  -0.456  0.00  0.00    +0.000 C 
BRANCH  12  13
ATOM     13  O   UNL     1       6.586  -0.012  -1.789  0.00  0.00    +0.000 OA
BRANCH  13  14
ATOM     14  C   UNL     1       5.506  -0.885  -2.138  0.00  0.00    +0.000 C 
ATOM     15  H   UNL     1       4.819  -0.973  -1.289  0.00  0.00    +0.000 HD
ATOM     16  H   UNL     1       4.969  -0.473  -3.000  0.00  0.00    +0.000 HD
BRANCH  14  17
ATOM     17  C   UNL     1       6.067  -2.247  -2.486  0.00  0.00    +0.000 C 
ATOM     18  H   UNL     1       6.882  -2.518  -1.811  0.00  0.00    +0.000 HD
ATOM     19  H   UNL     1       5.286  -3.012  -2.424  0.00  0.00    +0.000 HD
ATOM     20  H   UNL     1       6.441  -2.257  -3.516  0.00  0.00    +0.000 HD
ENDBRANCH  14  17
ENDBRANCH  13  14
ENDBRANCH  12  13
ENDBRANCH   1  12
TORSDOF 6
ENDMDL
MODEL 6
REMARK VINA RESULT:    -3.248     24.193     25.444
REMARK INTER + INTRA:          -4.325
REMARK INTER:                  -4.176
REMARK INTRA:                  -0.150
REMARK UNBOUND:                -0.128
REMARK  Name = 7762
REMARK  6 active torsions:
REMARK  status: ('A' for Active; 'I' for Inactive)
REMARK    1  A    between atoms: O_1  and  C_6
REMARK    2  A    between atoms: O_1  and  C_7
REMARK    3  A    between atoms: C_3  and  C_4
REMARK    4  A    between atoms: C_3  and  C_5
REMARK    5  A    between atoms: C_4  and  C_6
REMARK    6  A    between atoms: C_7  and  C_8
REMARK                            x       y       z     vdW  Elec       q    Type
REMARK                         _______ _______ _______ _____ _____    ______ ____
ROOT
ATOM      1  C   UNL     1      -0.650  -7.818  20.938  0.00  0.00    +0.000 C 
ATOM      2  H   UNL     1      -0.938  -8.609  20.236  0.00  0.00    +0.000 HD
ATOM      3  H   UNL     1      -0.807  -8.176  21.962  0.00  0.00    +0.000 HD
ENDROOT
BRANCH   1   4
ATOM      4  C   UNL     1      -1.503  -6.575  20.693  0.00  0.00    +0.000 C 
ATOM      5  H   UNL     1      -0.908  -5.673  20.874  0.00  0.00    +0.000 HD
ATOM      6  H   UNL     1      -1.820  -6.540  19.643  0.00  0.00    +0.000 HD
BRANCH   4   7
ATOM      7  C   UNL     1      -2.732  -6.557  21.585  0.00  0.00    +0.000 C 
ATOM      8  H   UNL     1      -2.482  -6.142  22.567  0.00  0.00    +0.000 HD
ATOM      9  H   UNL     1      -3.526  -5.940  21.149  0.00  0.00    +0.000 HD
ATOM     10  H   UNL     1      -3.125  -7.568  21.732  0.00  0.00    +0.000 HD
ENDBRANCH   4   7
ENDBRANCH   1   4
BRANCH   1  12
ATOM     11  O   UNL     1       1.684  -8.390  20.570  0.00  0.00    +0.000 OA
ATOM     12  C   UNL     1       0.824  -7.540  20.753  0.00  0.00    +0.000 C 
BRANCH  12  13
ATOM     13  O   UNL     1       1.031  -6.191  20.820  0.00  0.00    +0.000 OA
BRANCH  13  14
ATOM     14  C   UNL     1       2.319  -5.789  21.299  0.00  0.00    +0.000 C 
ATOM     15  H   UNL     1       2.202  -5.210  22.221  0.00  0.00    +0.000 HD
ATOM     16  H   UNL     1       2.926  -6.678  21.501  0.00  0.00    +0.000 HD
BRANCH  14  17
ATOM     17  C   UNL     1       2.994  -4.939  20.243  0.00  0.00    +0.000 C 
ATOM     18  H   UNL     1       3.510  -5.564  19.510  0.00  0.00    +0.000 HD
ATOM     19  H   UNL     1       2.258  -4.317  19.722  0.00  0.00    +0.000 HD
ATOM     20  H   UNL     1       3.719  -4.258  20.701  0.00  0.00    +0.000 HD
ENDBRANCH  14  17
ENDBRANCH  13  14
ENDBRANCH  12  13
ENDBRANCH   1  12
TORSDOF 6
ENDMDL
MODEL 7
REMARK VINA RESULT:    -3.211     21.615     22.771
REMARK INTER + INTRA:          -4.278
REMARK INTER:                  -4.150
REMARK INTRA:                  -0.127
REMARK UNBOUND:                -0.128
REMARK  Name = 7762
REMARK  6 active torsions:
REMARK  status: ('A' for Active; 'I' for Inactive)
REMARK    1  A    between atoms: O_1  and  C_6
REMARK    2  A    between atoms: O_1  and  C_7
REMARK    3  A    between atoms: C_3  and  C_4
REMARK    4  A    between atoms: C_3  and  C_5
REMARK    5  A    between atoms: C_4  and  C_6
REMARK    6  A    between atoms: C_7  and  C_8
REMARK                            x       y       z     vdW  Elec       q    Type
REMARK                         _______ _______ _______ _____ _____    ______ ____
ROOT
ATOM      1  C   UNL     1       2.981  -5.174  17.885  0.00  0.00    +0.000 C 
ATOM      2  H   UNL     1       3.998  -5.468  17.599  0.00  0.00    +0.000 HD
ATOM      3  H   UNL     1       2.289  -5.986  17.629  0.00  0.00    +0.000 HD
ENDROOT
BRANCH   1   4
ATOM      4  C   UNL     1       2.581  -3.905  17.135  0.00  0.00    +0.000 C 
ATOM      5  H   UNL     1       1.504  -3.914  16.934  0.00  0.00    +0.000 HD
ATOM      6  H   UNL     1       2.779  -3.025  17.759  0.00  0.00    +0.000 HD
BRANCH   4   7
ATOM      7  C   UNL     1       3.339  -3.768  15.825  0.00  0.00    +0.000 C 
ATOM      8  H   UNL     1       3.919  -4.674  15.626  0.00  0.00    +0.000 HD
ATOM      9  H   UNL     1       2.650  -3.614  14.988  0.00  0.00    +0.000 HD
ATOM     10  H   UNL     1       4.032  -2.921  15.860  0.00  0.00    +0.000 HD
ENDBRANCH   4   7
ENDBRANCH   1   4
BRANCH   1  12
ATOM     11  O   UNL     1       3.120  -3.915  19.960  0.00  0.00    +0.000 OA
ATOM     12  C   UNL     1       2.952  -4.981  19.383  0.00  0.00    +0.000 C 
BRANCH  12  13
ATOM     13  O   UNL     1       2.706  -6.185  19.980  0.00  0.00    +0.000 OA
BRANCH  13  14
ATOM     14  C   UNL     1       1.824  -6.145  21.106  0.00  0.00    +0.000 C 
ATOM     15  H   UNL     1       2.248  -6.737  21.924  0.00  0.00    +0.000 HD
ATOM     16  H   UNL     1       1.699  -5.108  21.435  0.00  0.00    +0.000 HD
BRANCH  14  17
ATOM     17  C   UNL     1       0.482  -6.719  20.702  0.00  0.00    +0.000 C 
ATOM     18  H   UNL     1      -0.025  -6.062  19.991  0.00  0.00    +0.000 HD
ATOM     19  H   UNL     1       0.608  -7.706  20.244  0.00  0.00    +0.000 HD
ATOM     20  H   UNL     1      -0.159  -6.855  21.579  0.00  0.00    +0.000 HD
ENDBRANCH  14  17
ENDBRANCH  13  14
ENDBRANCH  12  13
ENDBRANCH   1  12
TORSDOF 6
ENDMDL
MODEL 8
REMARK VINA RESULT:    -3.197     19.246     20.125
REMARK INTER + INTRA:          -4.260
REMARK INTER:                  -4.140
REMARK INTRA:                  -0.120
REMARK UNBOUND:                -0.128
REMARK  Name = 7762
REMARK  6 active torsions:
REMARK  status: ('A' for Active; 'I' for Inactive)
REMARK    1  A    between atoms: O_1  and  C_6
REMARK    2  A    between atoms: O_1  and  C_7
REMARK    3  A    between atoms: C_3  and  C_4
REMARK    4  A    between atoms: C_3  and  C_5
REMARK    5  A    between atoms: C_4  and  C_6
REMARK    6  A    between atoms: C_7  and  C_8
REMARK                            x       y       z     vdW  Elec       q    Type
REMARK                         _______ _______ _______ _____ _____    ______ ____
ROOT
ATOM      1  C   UNL     1      -2.815   8.229  13.403  0.00  0.00    +0.000 C 
ATOM      2  H   UNL     1      -3.516   7.489  12.997  0.00  0.00    +0.000 HD
ATOM      3  H   UNL     1      -1.859   7.736  13.614  0.00  0.00    +0.000 HD
ENDROOT
BRANCH   1   4
ATOM      4  C   UNL     1      -3.381   8.824  14.690  0.00  0.00    +0.000 C 
ATOM      5  H   UNL     1      -3.934   9.743  14.465  0.00  0.00    +0.000 HD
ATOM      6  H   UNL     1      -4.099   8.126  15.141  0.00  0.00    +0.000 HD
BRANCH   4   7
ATOM      7  C   UNL     1      -2.283   9.128  15.695  0.00  0.00    +0.000 C 
ATOM      8  H   UNL     1      -2.431  10.121  16.129  0.00  0.00    +0.000 HD
ATOM      9  H   UNL     1      -2.284   8.397  16.511  0.00  0.00    +0.000 HD
ATOM     10  H   UNL     1      -1.298   9.108  15.217  0.00  0.00    +0.000 HD
ENDBRANCH   4   7
ENDBRANCH   1   4
BRANCH   1  12
ATOM     11  O   UNL     1      -3.369  10.173  12.051  0.00  0.00    +0.000 OA
ATOM     12  C   UNL     1      -2.583   9.284  12.345  0.00  0.00    +0.000 C 
BRANCH  12  13
ATOM     13  O   UNL     1      -1.355   9.079  11.781  0.00  0.00    +0.000 OA
BRANCH  13  14
ATOM     14  C   UNL     1      -1.226   7.882  11.006  0.00  0.00    +0.000 C 
ATOM     15  H   UNL     1      -1.484   7.017  11.625  0.00  0.00    +0.000 HD
ATOM     16  H   UNL     1      -1.902   7.930  10.145  0.00  0.00    +0.000 HD
BRANCH  14  17
ATOM     17  C   UNL     1       0.205   7.759  10.525  0.00  0.00    +0.000 C 
ATOM     18  H   UNL     1       0.402   8.454   9.705  0.00  0.00    +0.000 HD
ATOM     19  H   UNL     1       0.904   7.968  11.342  0.00  0.00    +0.000 HD
ATOM     20  H   UNL     1       0.410   6.739  10.184  0.00  0.00    +0.000 HD
ENDBRANCH  14  17
ENDBRANCH  13  14
ENDBRANCH  12  13
ENDBRANCH   1  12
TORSDOF 6
ENDMDL
MODEL 9
REMARK VINA RESULT:    -3.157     35.599     36.351
REMARK INTER + INTRA:          -4.208
REMARK INTER:                  -4.103
REMARK INTRA:                  -0.105
REMARK UNBOUND:                -0.128
REMARK  Name = 7762
REMARK  6 active torsions:
REMARK  status: ('A' for Active; 'I' for Inactive)
REMARK    1  A    between atoms: O_1  and  C_6
REMARK    2  A    between atoms: O_1  and  C_7
REMARK    3  A    between atoms: C_3  and  C_4
REMARK    4  A    between atoms: C_3  and  C_5
REMARK    5  A    between atoms: C_4  and  C_6
REMARK    6  A    between atoms: C_7  and  C_8
REMARK                            x       y       z     vdW  Elec       q    Type
REMARK                         _______ _______ _______ _____ _____    ______ ____
ROOT
ATOM      1  C   UNL     1     -26.095  -3.803  13.567  0.00  0.00    +0.000 C 
ATOM      2  H   UNL     1     -26.783  -2.996  13.845  0.00  0.00    +0.000 HD
ATOM      3  H   UNL     1     -26.626  -4.760  13.625  0.00  0.00    +0.000 HD
ENDROOT
BRANCH   1   4
ATOM      4  C   UNL     1     -24.904  -3.818  14.522  0.00  0.00    +0.000 C 
ATOM      5  H   UNL     1     -25.001  -4.653  15.225  0.00  0.00    +0.000 HD
ATOM      6  H   UNL     1     -23.977  -3.983  13.961  0.00  0.00    +0.000 HD
BRANCH   4   7
ATOM      7  C   UNL     1     -24.794  -2.516  15.297  0.00  0.00    +0.000 C 
ATOM      8  H   UNL     1     -23.795  -2.085  15.174  0.00  0.00    +0.000 HD
ATOM      9  H   UNL     1     -25.526  -1.783  14.942  0.00  0.00    +0.000 HD
ATOM     10  H   UNL     1     -24.964  -2.681  16.366  0.00  0.00    +0.000 HD
ENDBRANCH   4   7
ENDBRANCH   1   4
BRANCH   1  12
ATOM     11  O   UNL     1     -24.737  -2.878  11.775  0.00  0.00    +0.000 OA
ATOM     12  C   UNL     1     -25.670  -3.583  12.133  0.00  0.00    +0.000 C 
BRANCH  12  13
ATOM     13  O   UNL     1     -26.494  -4.300  11.313  0.00  0.00    +0.000 OA
BRANCH  13  14
ATOM     14  C   UNL     1     -27.897  -4.114  11.534  0.00  0.00    +0.000 C 
ATOM     15  H   UNL     1     -28.051  -3.601  12.489  0.00  0.00    +0.000 HD
ATOM     16  H   UNL     1     -28.317  -3.508  10.724  0.00  0.00    +0.000 HD
BRANCH  14  17
ATOM     17  C   UNL     1     -28.574  -5.468  11.565  0.00  0.00    +0.000 C 
ATOM     18  H   UNL     1     -28.858  -5.739  12.584  0.00  0.00    +0.000 HD
ATOM     19  H   UNL     1     -29.470  -5.464  10.936  0.00  0.00    +0.000 HD
ATOM     20  H   UNL     1     -27.908  -6.240  11.164  0.00  0.00    +0.000 HD
ENDBRANCH  14  17
ENDBRANCH  13  14
ENDBRANCH  12  13
ENDBRANCH   1  12
TORSDOF 6
ENDMDL
MODEL 10
REMARK VINA RESULT:    -3.101     24.301     25.297
REMARK INTER + INTRA:          -4.135
REMARK INTER:                  -4.007
REMARK INTRA:                  -0.128
REMARK UNBOUND:                -0.128
REMARK  Name = 7762
REMARK  6 active torsions:
REMARK  status: ('A' for Active; 'I' for Inactive)
REMARK    1  A    between atoms: O_1  and  C_6
REMARK    2  A    between atoms: O_1  and  C_7
REMARK    3  A    between atoms: C_3  and  C_4
REMARK    4  A    between atoms: C_3  and  C_5
REMARK    5  A    between atoms: C_4  and  C_6
REMARK    6  A    between atoms: C_7  and  C_8
REMARK                            x       y       z     vdW  Elec       q    Type
REMARK                         _______ _______ _______ _____ _____    ______ ____
ROOT
ATOM      1  C   UNL     1     -15.772  -9.919   1.895  0.00  0.00    +0.000 C 
ATOM      2  H   UNL     1     -16.091 -10.896   2.275  0.00  0.00    +0.000 HD
ATOM      3  H   UNL     1     -14.778  -9.687   2.296  0.00  0.00    +0.000 HD
ENDROOT
BRANCH   1   4
ATOM      4  C   UNL     1     -16.765  -8.845   2.335  0.00  0.00    +0.000 C 
ATOM      5  H   UNL     1     -16.227  -7.995   2.770  0.00  0.00    +0.000 HD
ATOM      6  H   UNL     1     -17.311  -8.461   1.465  0.00  0.00    +0.000 HD
BRANCH   4   7
ATOM      7  C   UNL     1     -17.759  -9.386   3.349  0.00  0.00    +0.000 C 
ATOM      8  H   UNL     1     -17.792  -8.738   4.230  0.00  0.00    +0.000 HD
ATOM      9  H   UNL     1     -18.767  -9.433   2.924  0.00  0.00    +0.000 HD
ATOM     10  H   UNL     1     -17.477 -10.392   3.676  0.00  0.00    +0.000 HD
ENDBRANCH   4   7
ENDBRANCH   1   4
BRANCH   1  12
ATOM     11  O   UNL     1     -14.804 -10.629  -0.219  0.00  0.00    +0.000 OA
ATOM     12  C   UNL     1     -15.667 -10.012   0.390  0.00  0.00    +0.000 C 
BRANCH  12  13
ATOM     13  O   UNL     1     -16.690  -9.300  -0.169  0.00  0.00    +0.000 OA
BRANCH  13  14
ATOM     14  C   UNL     1     -17.583 -10.053  -0.997  0.00  0.00    +0.000 C 
ATOM     15  H   UNL     1     -17.056 -10.919  -1.410  0.00  0.00    +0.000 HD
ATOM     16  H   UNL     1     -18.434 -10.396  -0.398  0.00  0.00    +0.000 HD
BRANCH  14  17
ATOM     17  C   UNL     1     -18.075  -9.168  -2.123  0.00  0.00    +0.000 C 
ATOM     18  H   UNL     1     -18.932  -8.570  -1.804  0.00  0.00    +0.000 HD
ATOM     19  H   UNL     1     -17.279  -8.495  -2.459  0.00  0.00    +0.000 HD
ATOM     20  H   UNL     1     -18.366  -9.772  -2.988  0.00  0.00    +0.000 HD
ENDBRANCH  14  17
ENDBRANCH  13  14
ENDBRANCH  12  13
ENDBRANCH   1  12
TORSDOF 6
ENDMDL
