MODEL 1
REMARK VINA RESULT:    -4.541      0.000      0.000
REMARK INTER + INTRA:          -5.842
REMARK INTER:                  -5.674
REMARK INTRA:                  -0.168
REMARK UNBOUND:                -0.239
REMARK  Name = 8467
REMARK  5 active torsions:
REMARK  status: ('A' for Active; 'I' for Inactive)
REMARK    1  A    between atoms: O_1  and  C_4
REMARK    2  A    between atoms: O_1  and  C_8
REMARK    3  A    between atoms: O_2  and  C_6
REMARK    4  A    between atoms: C_7  and  C_12
REMARK    5  A    between atoms: C_8  and  C_11
REMARK                            x       y       z     vdW  Elec       q    Type
REMARK                         _______ _______ _______ _____ _____    ______ ____
ROOT
ATOM      1  C   UNL     1       5.690 -11.894 -25.470  0.00  0.00    +0.000 A 
ATOM      2  C   UNL     1       4.509 -11.478 -24.854  0.00  0.00    +0.000 A 
ATOM      3  C   UNL     1       6.767 -11.015 -25.578  0.00  0.00    +0.000 A 
ATOM      4  C   UNL     1       4.407 -10.183 -24.345  0.00  0.00    +0.000 A 
ATOM      5  C   UNL     1       6.665  -9.720 -25.069  0.00  0.00    +0.000 A 
ATOM      6  C   UNL     1       5.486  -9.304 -24.453  0.00  0.00    +0.000 A 
ATOM      7  H   UNL     1       3.670 -12.166 -24.783  0.00  0.00    +0.000 HD
ATOM      8  H   UNL     1       7.498  -9.026 -25.145  0.00  0.00    +0.000 HD
ATOM      9  H   UNL     1       5.421  -8.292 -24.061  0.00  0.00    +0.000 HD
ENDROOT
BRANCH   4  11
ATOM     10  O   UNL     1       2.730 -10.275 -22.678  0.00  0.00    +0.000 OA
ATOM     11  C   UNL     1       3.178  -9.750 -23.702  0.00  0.00    +0.000 C 
ATOM     12  H   UNL     1       2.642  -8.908 -24.174  0.00  0.00    +0.000 HD
ENDBRANCH   4  11
BRANCH   3  13
ATOM     13  O   UNL     1       7.925 -11.410 -26.177  0.00  0.00    +0.000 OA
ATOM     14  H   UNL     1       7.836 -12.337 -26.460  0.00  0.00    +0.000 HD
ENDBRANCH   3  13
BRANCH   1  15
ATOM     15  O   UNL     1       5.778 -13.161 -25.963  0.00  0.00    +0.000 OA
BRANCH  15  16
ATOM     16  C   UNL     1       4.900 -14.136 -25.406  0.00  0.00    +0.000 C 
ATOM     17  H   UNL     1       5.451 -14.850 -24.782  0.00  0.00    +0.000 HD
ATOM     18  H   UNL     1       4.151 -13.629 -24.786  0.00  0.00    +0.000 HD
BRANCH  16  19
ATOM     19  C   UNL     1       4.216 -14.884 -26.530  0.00  0.00    +0.000 C 
ATOM     20  H   UNL     1       4.696 -14.673 -27.490  0.00  0.00    +0.000 HD
ATOM     21  H   UNL     1       4.248 -15.964 -26.350  0.00  0.00    +0.000 HD
ATOM     22  H   UNL     1       3.160 -14.603 -26.593  0.00  0.00    +0.000 HD
ENDBRANCH  16  19
ENDBRANCH  15  16
ENDBRANCH   1  15
TORSDOF 5
ENDMDL
MODEL 2
REMARK VINA RESULT:    -4.332      2.065      4.571
REMARK INTER + INTRA:          -5.584
REMARK INTER:                  -5.461
REMARK INTRA:                  -0.122
REMARK UNBOUND:                -0.239
REMARK  Name = 8467
REMARK  5 active torsions:
REMARK  status: ('A' for Active; 'I' for Inactive)
REMARK    1  A    between atoms: O_1  and  C_4
REMARK    2  A    between atoms: O_1  and  C_8
REMARK    3  A    between atoms: O_2  and  C_6
REMARK    4  A    between atoms: C_7  and  C_12
REMARK    5  A    between atoms: C_8  and  C_11
REMARK                            x       y       z     vdW  Elec       q    Type
REMARK                         _______ _______ _______ _____ _____    ______ ____
ROOT
ATOM      1  C   UNL     1       6.432 -11.256 -25.198  0.00  0.00    +0.000 A 
ATOM      2  C   UNL     1       7.098 -10.462 -26.133  0.00  0.00    +0.000 A 
ATOM      3  C   UNL     1       6.721 -12.617 -25.107  0.00  0.00    +0.000 A 
ATOM      4  C   UNL     1       8.053 -11.030 -26.975  0.00  0.00    +0.000 A 
ATOM      5  C   UNL     1       7.676 -13.185 -25.949  0.00  0.00    +0.000 A 
ATOM      6  C   UNL     1       8.342 -12.393 -26.884  0.00  0.00    +0.000 A 
ATOM      7  H   UNL     1       6.860  -9.404 -26.205  0.00  0.00    +0.000 HD
ATOM      8  H   UNL     1       7.912 -14.245 -25.888  0.00  0.00    +0.000 HD
ATOM      9  H   UNL     1       9.085 -12.850 -27.533  0.00  0.00    +0.000 HD
ENDROOT
BRANCH   4  11
ATOM     10  O   UNL     1       8.231  -9.224 -28.492  0.00  0.00    +0.000 OA
ATOM     11  C   UNL     1       8.748 -10.204 -27.948  0.00  0.00    +0.000 C 
ATOM     12  H   UNL     1       9.786 -10.491 -28.190  0.00  0.00    +0.000 HD
ENDBRANCH   4  11
BRANCH   3  13
ATOM     13  O   UNL     1       6.077 -13.401 -24.198  0.00  0.00    +0.000 OA
ATOM     14  H   UNL     1       5.578 -12.833 -23.586  0.00  0.00    +0.000 HD
ENDBRANCH   3  13
BRANCH   1  15
ATOM     15  O   UNL     1       5.500 -10.690 -24.381  0.00  0.00    +0.000 OA
BRANCH  15  16
ATOM     16  C   UNL     1       4.160 -10.635 -24.865  0.00  0.00    +0.000 C 
ATOM     17  H   UNL     1       4.092 -10.008 -25.763  0.00  0.00    +0.000 HD
ATOM     18  H   UNL     1       3.830 -11.649 -25.116  0.00  0.00    +0.000 HD
BRANCH  16  19
ATOM     19  C   UNL     1       3.269 -10.056 -23.787  0.00  0.00    +0.000 C 
ATOM     20  H   UNL     1       2.816 -10.850 -23.186  0.00  0.00    +0.000 HD
ATOM     21  H   UNL     1       3.843  -9.397 -23.126  0.00  0.00    +0.000 HD
ATOM     22  H   UNL     1       2.474  -9.449 -24.229  0.00  0.00    +0.000 HD
ENDBRANCH  16  19
ENDBRANCH  15  16
ENDBRANCH   1  15
TORSDOF 5
ENDMDL
MODEL 3
REMARK VINA RESULT:    -4.223     42.569     44.360
REMARK INTER + INTRA:          -5.449
REMARK INTER:                  -5.291
REMARK INTRA:                  -0.159
REMARK UNBOUND:                -0.239
REMARK  Name = 8467
REMARK  5 active torsions:
REMARK  status: ('A' for Active; 'I' for Inactive)
REMARK    1  A    between atoms: O_1  and  C_4
REMARK    2  A    between atoms: O_1  and  C_8
REMARK    3  A    between atoms: O_2  and  C_6
REMARK    4  A    between atoms: C_7  and  C_12
REMARK    5  A    between atoms: C_8  and  C_11
REMARK                            x       y       z     vdW  Elec       q    Type
REMARK                         _______ _______ _______ _____ _____    ______ ____
ROOT
ATOM      1  C   UNL     1      -2.288   9.543  12.338  0.00  0.00    +0.000 A 
ATOM      2  C   UNL     1      -2.591  10.260  13.496  0.00  0.00    +0.000 A 
ATOM      3  C   UNL     1      -2.285   8.149  12.361  0.00  0.00    +0.000 A 
ATOM      4  C   UNL     1      -2.892   9.581  14.677  0.00  0.00    +0.000 A 
ATOM      5  C   UNL     1      -2.586   7.470  13.542  0.00  0.00    +0.000 A 
ATOM      6  C   UNL     1      -2.889   8.186  14.700  0.00  0.00    +0.000 A 
ATOM      7  H   UNL     1      -2.582  11.347  13.472  0.00  0.00    +0.000 HD
ATOM      8  H   UNL     1      -2.588   6.383  13.573  0.00  0.00    +0.000 HD
ATOM      9  H   UNL     1      -3.121   7.643  15.612  0.00  0.00    +0.000 HD
ENDROOT
BRANCH   4  11
ATOM     10  O   UNL     1      -2.557  10.228  16.928  0.00  0.00    +0.000 OA
ATOM     11  C   UNL     1      -3.208  10.327  15.883  0.00  0.00    +0.000 C 
ATOM     12  H   UNL     1      -4.076  11.007  15.832  0.00  0.00    +0.000 HD
ENDBRANCH   4  11
BRANCH   3  13
ATOM     13  O   UNL     1      -1.991   7.439  11.236  0.00  0.00    +0.000 OA
ATOM     14  H   UNL     1      -1.115   7.029  11.340  0.00  0.00    +0.000 HD
ENDBRANCH   3  13
BRANCH   1  15
ATOM     15  O   UNL     1      -1.996  10.217  11.190  0.00  0.00    +0.000 OA
BRANCH  15  16
ATOM     16  C   UNL     1      -3.049  10.975  10.597  0.00  0.00    +0.000 C 
ATOM     17  H   UNL     1      -3.230  10.655   9.563  0.00  0.00    +0.000 HD
ATOM     18  H   UNL     1      -3.967  10.825  11.178  0.00  0.00    +0.000 HD
BRANCH  16  19
ATOM     19  C   UNL     1      -2.668  12.439  10.605  0.00  0.00    +0.000 C 
ATOM     20  H   UNL     1      -2.182  12.723   9.667  0.00  0.00    +0.000 HD
ATOM     21  H   UNL     1      -3.554  13.067  10.747  0.00  0.00    +0.000 HD
ATOM     22  H   UNL     1      -1.988  12.655  11.435  0.00  0.00    +0.000 HD
ENDBRANCH  16  19
ENDBRANCH  15  16
ENDBRANCH   1  15
TORSDOF 5
ENDMDL
MODEL 4
REMARK VINA RESULT:    -4.020     26.236     28.496
REMARK INTER + INTRA:          -5.199
REMARK INTER:                  -4.958
REMARK INTRA:                  -0.240
REMARK UNBOUND:                -0.239
REMARK  Name = 8467
REMARK  5 active torsions:
REMARK  status: ('A' for Active; 'I' for Inactive)
REMARK    1  A    between atoms: O_1  and  C_4
REMARK    2  A    between atoms: O_1  and  C_8
REMARK    3  A    between atoms: O_2  and  C_6
REMARK    4  A    between atoms: C_7  and  C_12
REMARK    5  A    between atoms: C_8  and  C_11
REMARK                            x       y       z     vdW  Elec       q    Type
REMARK                         _______ _______ _______ _____ _____    ______ ____
ROOT
ATOM      1  C   UNL     1       2.994  12.242 -11.175  0.00  0.00    +0.000 A 
ATOM      2  C   UNL     1       3.756  13.100 -10.381  0.00  0.00    +0.000 A 
ATOM      3  C   UNL     1       1.605  12.226 -11.050  0.00  0.00    +0.000 A 
ATOM      4  C   UNL     1       3.128  13.942  -9.463  0.00  0.00    +0.000 A 
ATOM      5  C   UNL     1       0.977  13.068 -10.133  0.00  0.00    +0.000 A 
ATOM      6  C   UNL     1       1.738  13.926  -9.339  0.00  0.00    +0.000 A 
ATOM      7  H   UNL     1       4.839  13.100 -10.477  0.00  0.00    +0.000 HD
ATOM      8  H   UNL     1      -0.105  13.066 -10.026  0.00  0.00    +0.000 HD
ATOM      9  H   UNL     1       1.234  14.576  -8.629  0.00  0.00    +0.000 HD
ENDROOT
BRANCH   4  11
ATOM     10  O   UNL     1       3.531  15.274  -7.550  0.00  0.00    +0.000 OA
ATOM     11  C   UNL     1       3.921  14.837  -8.637  0.00  0.00    +0.000 C 
ATOM     12  H   UNL     1       4.915  15.120  -9.025  0.00  0.00    +0.000 HD
ENDBRANCH   4  11
BRANCH   3  13
ATOM     13  O   UNL     1       0.851  11.393 -11.820  0.00  0.00    +0.000 OA
ATOM     14  H   UNL     1       0.231  10.907 -11.248  0.00  0.00    +0.000 HD
ENDBRANCH   3  13
BRANCH   1  15
ATOM     15  O   UNL     1       3.618  11.424 -12.068  0.00  0.00    +0.000 OA
BRANCH  15  16
ATOM     16  C   UNL     1       4.238  12.045 -13.193  0.00  0.00    +0.000 C 
ATOM     17  H   UNL     1       4.458  13.100 -12.988  0.00  0.00    +0.000 HD
ATOM     18  H   UNL     1       5.177  11.525 -13.415  0.00  0.00    +0.000 HD
BRANCH  16  19
ATOM     19  C   UNL     1       3.305  11.954 -14.382  0.00  0.00    +0.000 C 
ATOM     20  H   UNL     1       2.820  10.975 -14.424  0.00  0.00    +0.000 HD
ATOM     21  H   UNL     1       2.533  12.729 -14.326  0.00  0.00    +0.000 HD
ATOM     22  H   UNL     1       3.854  12.118 -15.314  0.00  0.00    +0.000 HD
ENDBRANCH  16  19
ENDBRANCH  15  16
ENDBRANCH   1  15
TORSDOF 5
ENDMDL
MODEL 5
REMARK VINA RESULT:    -4.000     48.781     50.437
REMARK INTER + INTRA:          -5.174
REMARK INTER:                  -4.953
REMARK INTRA:                  -0.221
REMARK UNBOUND:                -0.239
REMARK  Name = 8467
REMARK  5 active torsions:
REMARK  status: ('A' for Active; 'I' for Inactive)
REMARK    1  A    between atoms: O_1  and  C_4
REMARK    2  A    between atoms: O_1  and  C_8
REMARK    3  A    between atoms: O_2  and  C_6
REMARK    4  A    between atoms: C_7  and  C_12
REMARK    5  A    between atoms: C_8  and  C_11
REMARK                            x       y       z     vdW  Elec       q    Type
REMARK                         _______ _______ _______ _____ _____    ______ ____
ROOT
ATOM      1  C   UNL     1     -25.772  -3.964  13.541  0.00  0.00    +0.000 A 
ATOM      2  C   UNL     1     -26.954  -4.536  14.011  0.00  0.00    +0.000 A 
ATOM      3  C   UNL     1     -25.659  -3.595  12.201  0.00  0.00    +0.000 A 
ATOM      4  C   UNL     1     -28.024  -4.740  13.139  0.00  0.00    +0.000 A 
ATOM      5  C   UNL     1     -26.729  -3.798  11.330  0.00  0.00    +0.000 A 
ATOM      6  C   UNL     1     -27.911  -4.371  11.798  0.00  0.00    +0.000 A 
ATOM      7  H   UNL     1     -27.030  -4.830  15.055  0.00  0.00    +0.000 HD
ATOM      8  H   UNL     1     -26.655  -3.515  10.283  0.00  0.00    +0.000 HD
ATOM      9  H   UNL     1     -28.737  -4.523  11.107  0.00  0.00    +0.000 HD
ENDROOT
BRANCH   4  11
ATOM     10  O   UNL     1     -29.749  -6.359  13.144  0.00  0.00    +0.000 OA
ATOM     11  C   UNL     1     -29.256  -5.336  13.628  0.00  0.00    +0.000 C 
ATOM     12  H   UNL     1     -29.751  -4.828  14.474  0.00  0.00    +0.000 HD
ENDBRANCH   4  11
BRANCH   3  13
ATOM     13  O   UNL     1     -24.510  -3.035  11.732  0.00  0.00    +0.000 OA
ATOM     14  H   UNL     1     -24.731  -2.231  11.229  0.00  0.00    +0.000 HD
ENDBRANCH   3  13
BRANCH   1  15
ATOM     15  O   UNL     1     -24.733  -3.769  14.402  0.00  0.00    +0.000 OA
BRANCH  15  16
ATOM     16  C   UNL     1     -24.966  -2.909  15.515  0.00  0.00    +0.000 C 
ATOM     17  H   UNL     1     -26.037  -2.714  15.644  0.00  0.00    +0.000 HD
ATOM     18  H   UNL     1     -24.582  -3.390  16.423  0.00  0.00    +0.000 HD
BRANCH  16  19
ATOM     19  C   UNL     1     -24.246  -1.598  15.284  0.00  0.00    +0.000 C 
ATOM     20  H   UNL     1     -23.361  -1.742  14.657  0.00  0.00    +0.000 HD
ATOM     21  H   UNL     1     -24.910  -0.875  14.797  0.00  0.00    +0.000 HD
ATOM     22  H   UNL     1     -23.938  -1.155  16.236  0.00  0.00    +0.000 HD
ENDBRANCH  16  19
ENDBRANCH  15  16
ENDBRANCH   1  15
TORSDOF 5
ENDMDL
MODEL 6
REMARK VINA RESULT:    -3.994     32.725     34.911
REMARK INTER + INTRA:          -5.167
REMARK INTER:                  -4.970
REMARK INTRA:                  -0.196
REMARK UNBOUND:                -0.239
REMARK  Name = 8467
REMARK  5 active torsions:
REMARK  status: ('A' for Active; 'I' for Inactive)
REMARK    1  A    between atoms: O_1  and  C_4
REMARK    2  A    between atoms: O_1  and  C_8
REMARK    3  A    between atoms: O_2  and  C_6
REMARK    4  A    between atoms: C_7  and  C_12
REMARK    5  A    between atoms: C_8  and  C_11
REMARK                            x       y       z     vdW  Elec       q    Type
REMARK                         _______ _______ _______ _____ _____    ______ ____
ROOT
ATOM      1  C   UNL     1     -17.155 -11.005   1.909  0.00  0.00    +0.000 A 
ATOM      2  C   UNL     1     -17.470 -10.962   0.550  0.00  0.00    +0.000 A 
ATOM      3  C   UNL     1     -16.512  -9.923   2.510  0.00  0.00    +0.000 A 
ATOM      4  C   UNL     1     -17.142  -9.837  -0.206  0.00  0.00    +0.000 A 
ATOM      5  C   UNL     1     -16.185  -8.798   1.753  0.00  0.00    +0.000 A 
ATOM      6  C   UNL     1     -16.499  -8.755   0.395  0.00  0.00    +0.000 A 
ATOM      7  H   UNL     1     -17.962 -11.814   0.087  0.00  0.00    +0.000 HD
ATOM      8  H   UNL     1     -15.685  -7.947   2.210  0.00  0.00    +0.000 HD
ATOM      9  H   UNL     1     -16.238  -7.871  -0.181  0.00  0.00    +0.000 HD
ENDROOT
BRANCH   4  11
ATOM     10  O   UNL     1     -18.015  -8.822  -2.157  0.00  0.00    +0.000 OA
ATOM     11  C   UNL     1     -17.470  -9.792  -1.622  0.00  0.00    +0.000 C 
ATOM     12  H   UNL     1     -17.206 -10.681  -2.220  0.00  0.00    +0.000 HD
ENDBRANCH   4  11
BRANCH   3  13
ATOM     13  O   UNL     1     -16.200  -9.953   3.836  0.00  0.00    +0.000 OA
ATOM     14  H   UNL     1     -15.576  -9.233   4.031  0.00  0.00    +0.000 HD
ENDBRANCH   3  13
BRANCH   1  15
ATOM     15  O   UNL     1     -17.480 -12.109   2.638  0.00  0.00    +0.000 OA
BRANCH  15  16
ATOM     16  C   UNL     1     -18.809 -12.179   3.150  0.00  0.00    +0.000 C 
ATOM     17  H   UNL     1     -19.399 -11.311   2.833  0.00  0.00    +0.000 HD
ATOM     18  H   UNL     1     -19.289 -13.090   2.773  0.00  0.00    +0.000 HD
BRANCH  16  19
ATOM     19  C   UNL     1     -18.753 -12.216   4.662  0.00  0.00    +0.000 C 
ATOM     20  H   UNL     1     -18.409 -13.192   5.018  0.00  0.00    +0.000 HD
ATOM     21  H   UNL     1     -18.076 -11.443   5.042  0.00  0.00    +0.000 HD
ATOM     22  H   UNL     1     -19.740 -12.012   5.089  0.00  0.00    +0.000 HD
ENDBRANCH  16  19
ENDBRANCH  15  16
ENDBRANCH   1  15
TORSDOF 5
ENDMDL
MODEL 7
REMARK VINA RESULT:    -3.984     48.740     50.400
REMARK INTER + INTRA:          -5.155
REMARK INTER:                  -4.900
REMARK INTRA:                  -0.255
REMARK UNBOUND:                -0.239
REMARK  Name = 8467
REMARK  5 active torsions:
REMARK  status: ('A' for Active; 'I' for Inactive)
REMARK    1  A    between atoms: O_1  and  C_4
REMARK    2  A    between atoms: O_1  and  C_8
REMARK    3  A    between atoms: O_2  and  C_6
REMARK    4  A    between atoms: C_7  and  C_12
REMARK    5  A    between atoms: C_8  and  C_11
REMARK                            x       y       z     vdW  Elec       q    Type
REMARK                         _______ _______ _______ _____ _____    ______ ____
ROOT
ATOM      1  C   UNL     1     -27.677  -4.344  12.805  0.00  0.00    +0.000 A 
ATOM      2  C   UNL     1     -27.054  -4.279  14.051  0.00  0.00    +0.000 A 
ATOM      3  C   UNL     1     -26.972  -3.994  11.654  0.00  0.00    +0.000 A 
ATOM      4  C   UNL     1     -25.726  -3.865  14.146  0.00  0.00    +0.000 A 
ATOM      5  C   UNL     1     -25.644  -3.579  11.749  0.00  0.00    +0.000 A 
ATOM      6  C   UNL     1     -25.021  -3.513  12.994  0.00  0.00    +0.000 A 
ATOM      7  H   UNL     1     -27.614  -4.545  14.945  0.00  0.00    +0.000 HD
ATOM      8  H   UNL     1     -25.083  -3.303  10.859  0.00  0.00    +0.000 HD
ATOM      9  H   UNL     1     -23.985  -3.189  13.052  0.00  0.00    +0.000 HD
ENDROOT
BRANCH   4  11
ATOM     10  O   UNL     1     -24.568  -2.765  15.892  0.00  0.00    +0.000 OA
ATOM     11  C   UNL     1     -25.076  -3.797  15.445  0.00  0.00    +0.000 C 
ATOM     12  H   UNL     1     -25.053  -4.729  16.036  0.00  0.00    +0.000 HD
ENDBRANCH   4  11
BRANCH   3  13
ATOM     13  O   UNL     1     -27.570  -4.053  10.431  0.00  0.00    +0.000 OA
ATOM     14  H   UNL     1     -28.423  -4.513  10.518  0.00  0.00    +0.000 HD
ENDBRANCH   3  13
BRANCH   1  15
ATOM     15  O   UNL     1     -28.975  -4.751  12.724  0.00  0.00    +0.000 OA
BRANCH  15  16
ATOM     16  C   UNL     1     -29.284  -6.041  13.249  0.00  0.00    +0.000 C 
ATOM     17  H   UNL     1     -28.667  -6.266  14.127  0.00  0.00    +0.000 HD
ATOM     18  H   UNL     1     -30.339  -6.062  13.544  0.00  0.00    +0.000 HD
BRANCH  16  19
ATOM     19  C   UNL     1     -29.027  -7.082  12.181  0.00  0.00    +0.000 C 
ATOM     20  H   UNL     1     -29.036  -8.090  12.606  0.00  0.00    +0.000 HD
ATOM     21  H   UNL     1     -29.787  -7.024  11.395  0.00  0.00    +0.000 HD
ATOM     22  H   UNL     1     -28.059  -6.910  11.701  0.00  0.00    +0.000 HD
ENDBRANCH  16  19
ENDBRANCH  15  16
ENDBRANCH   1  15
TORSDOF 5
ENDMDL
MODEL 8
REMARK VINA RESULT:    -3.851     26.125     28.018
REMARK INTER + INTRA:          -4.991
REMARK INTER:                  -4.880
REMARK INTRA:                  -0.111
REMARK UNBOUND:                -0.239
REMARK  Name = 8467
REMARK  5 active torsions:
REMARK  status: ('A' for Active; 'I' for Inactive)
REMARK    1  A    between atoms: O_1  and  C_4
REMARK    2  A    between atoms: O_1  and  C_8
REMARK    3  A    between atoms: O_2  and  C_6
REMARK    4  A    between atoms: C_7  and  C_12
REMARK    5  A    between atoms: C_8  and  C_11
REMARK                            x       y       z     vdW  Elec       q    Type
REMARK                         _______ _______ _______ _____ _____    ______ ____
ROOT
ATOM      1  C   UNL     1       4.478  13.464 -12.844  0.00  0.00    +0.000 A 
ATOM      2  C   UNL     1       4.532  14.258 -11.698  0.00  0.00    +0.000 A 
ATOM      3  C   UNL     1       3.916  12.189 -12.783  0.00  0.00    +0.000 A 
ATOM      4  C   UNL     1       4.023  13.777 -10.492  0.00  0.00    +0.000 A 
ATOM      5  C   UNL     1       3.407  11.708 -11.577  0.00  0.00    +0.000 A 
ATOM      6  C   UNL     1       3.460  12.501 -10.431  0.00  0.00    +0.000 A 
ATOM      7  H   UNL     1       4.981  15.247 -11.751  0.00  0.00    +0.000 HD
ATOM      8  H   UNL     1       2.965  10.716 -11.516  0.00  0.00    +0.000 HD
ATOM      9  H   UNL     1       3.059  12.113  -9.499  0.00  0.00    +0.000 HD
ENDROOT
BRANCH   4  11
ATOM     10  O   UNL     1       4.818  14.359  -8.341  0.00  0.00    +0.000 OA
ATOM     11  C   UNL     1       4.078  14.604  -9.298  0.00  0.00    +0.000 C 
ATOM     12  H   UNL     1       3.416  15.487  -9.276  0.00  0.00    +0.000 HD
ENDBRANCH   4  11
BRANCH   3  13
ATOM     13  O   UNL     1       3.858  11.405 -13.895  0.00  0.00    +0.000 OA
ATOM     14  H   UNL     1       4.738  11.376 -14.309  0.00  0.00    +0.000 HD
ENDBRANCH   3  13
BRANCH   1  15
ATOM     15  O   UNL     1       4.978  13.945 -14.016  0.00  0.00    +0.000 OA
BRANCH  15  16
ATOM     16  C   UNL     1       6.315  13.575 -14.351  0.00  0.00    +0.000 C 
ATOM     17  H   UNL     1       6.990  14.437 -14.281  0.00  0.00    +0.000 HD
ATOM     18  H   UNL     1       6.656  12.802 -13.653  0.00  0.00    +0.000 HD
BRANCH  16  19
ATOM     19  C   UNL     1       6.339  13.039 -15.766  0.00  0.00    +0.000 C 
ATOM     20  H   UNL     1       5.906  13.760 -16.466  0.00  0.00    +0.000 HD
ATOM     21  H   UNL     1       7.366  12.818 -16.077  0.00  0.00    +0.000 HD
ATOM     22  H   UNL     1       5.778  12.102 -15.832  0.00  0.00    +0.000 HD
ENDBRANCH  16  19
ENDBRANCH  15  16
ENDBRANCH   1  15
TORSDOF 5
ENDMDL
MODEL 9
REMARK VINA RESULT:    -3.848     36.976     38.878
REMARK INTER + INTRA:          -4.987
REMARK INTER:                  -4.748
REMARK INTRA:                  -0.239
REMARK UNBOUND:                -0.239
REMARK  Name = 8467
REMARK  5 active torsions:
REMARK  status: ('A' for Active; 'I' for Inactive)
REMARK    1  A    between atoms: O_1  and  C_4
REMARK    2  A    between atoms: O_1  and  C_8
REMARK    3  A    between atoms: O_2  and  C_6
REMARK    4  A    between atoms: C_7  and  C_12
REMARK    5  A    between atoms: C_8  and  C_11
REMARK                            x       y       z     vdW  Elec       q    Type
REMARK                         _______ _______ _______ _____ _____    ______ ____
ROOT
ATOM      1  C   UNL     1      12.995  14.265   3.139  0.00  0.00    +0.000 A 
ATOM      2  C   UNL     1      12.025  15.243   3.358  0.00  0.00    +0.000 A 
ATOM      3  C   UNL     1      12.670  13.104   2.439  0.00  0.00    +0.000 A 
ATOM      4  C   UNL     1      10.729  15.061   2.875  0.00  0.00    +0.000 A 
ATOM      5  C   UNL     1      11.374  12.921   1.956  0.00  0.00    +0.000 A 
ATOM      6  C   UNL     1      10.403  13.898   2.174  0.00  0.00    +0.000 A 
ATOM      7  H   UNL     1      12.284  16.142   3.914  0.00  0.00    +0.000 HD
ATOM      8  H   UNL     1      11.107  12.021   1.407  0.00  0.00    +0.000 HD
ATOM      9  H   UNL     1       9.398  13.742   1.792  0.00  0.00    +0.000 HD
ENDROOT
BRANCH   4  11
ATOM     10  O   UNL     1       8.611  16.065   2.556  0.00  0.00    +0.000 OA
ATOM     11  C   UNL     1       9.718  16.080   3.102  0.00  0.00    +0.000 C 
ATOM     12  H   UNL     1       9.980  16.891   3.803  0.00  0.00    +0.000 HD
ENDBRANCH   4  11
BRANCH   3  13
ATOM     13  O   UNL     1      13.609  12.143   2.219  0.00  0.00    +0.000 OA
ATOM     14  H   UNL     1      14.196  12.090   2.993  0.00  0.00    +0.000 HD
ENDBRANCH   3  13
BRANCH   1  15
ATOM     15  O   UNL     1      14.258  14.455   3.615  0.00  0.00    +0.000 OA
BRANCH  15  16
ATOM     16  C   UNL     1      14.410  14.550   5.030  0.00  0.00    +0.000 C 
ATOM     17  H   UNL     1      15.377  14.996   5.292  0.00  0.00    +0.000 HD
ATOM     18  H   UNL     1      13.609  15.182   5.433  0.00  0.00    +0.000 HD
BRANCH  16  19
ATOM     19  C   UNL     1      14.322  13.163   5.630  0.00  0.00    +0.000 C 
ATOM     20  H   UNL     1      14.680  13.160   6.663  0.00  0.00    +0.000 HD
ATOM     21  H   UNL     1      13.288  12.801   5.613  0.00  0.00    +0.000 HD
ATOM     22  H   UNL     1      14.917  12.454   5.047  0.00  0.00    +0.000 HD
ENDBRANCH  16  19
ENDBRANCH  15  16
ENDBRANCH   1  15
TORSDOF 5
ENDMDL
MODEL 10
REMARK VINA RESULT:    -3.840     41.541     43.381
REMARK INTER + INTRA:          -4.977
REMARK INTER:                  -4.745
REMARK INTRA:                  -0.232
REMARK UNBOUND:                -0.239
REMARK  Name = 8467
REMARK  5 active torsions:
REMARK  status: ('A' for Active; 'I' for Inactive)
REMARK    1  A    between atoms: O_1  and  C_4
REMARK    2  A    between atoms: O_1  and  C_8
REMARK    3  A    between atoms: O_2  and  C_6
REMARK    4  A    between atoms: C_7  and  C_12
REMARK    5  A    between atoms: C_8  and  C_11
REMARK                            x       y       z     vdW  Elec       q    Type
REMARK                         _______ _______ _______ _____ _____    ______ ____
ROOT
ATOM      1  C   UNL     1      -1.154  10.362  11.948  0.00  0.00    +0.000 A 
ATOM      2  C   UNL     1      -2.084   9.944  12.899  0.00  0.00    +0.000 A 
ATOM      3  C   UNL     1      -0.640   9.450  11.026  0.00  0.00    +0.000 A 
ATOM      4  C   UNL     1      -2.501   8.613  12.929  0.00  0.00    +0.000 A 
ATOM      5  C   UNL     1      -1.057   8.120  11.055  0.00  0.00    +0.000 A 
ATOM      6  C   UNL     1      -1.986   7.700  12.006  0.00  0.00    +0.000 A 
ATOM      7  H   UNL     1      -2.472  10.659  13.621  0.00  0.00    +0.000 HD
ATOM      8  H   UNL     1      -0.665   7.399  10.342  0.00  0.00    +0.000 HD
ATOM      9  H   UNL     1      -2.301   6.660  12.016  0.00  0.00    +0.000 HD
ENDROOT
BRANCH   4  11
ATOM     10  O   UNL     1      -4.513   8.792  14.160  0.00  0.00    +0.000 OA
ATOM     11  C   UNL     1      -3.470   8.176  13.919  0.00  0.00    +0.000 C 
ATOM     12  H   UNL     1      -3.236   7.246  14.465  0.00  0.00    +0.000 HD
ENDBRANCH   4  11
BRANCH   3  13
ATOM     13  O   UNL     1       0.269   9.848  10.092  0.00  0.00    +0.000 OA
ATOM     14  H   UNL     1       1.046  10.219  10.544  0.00  0.00    +0.000 HD
ENDBRANCH   3  13
BRANCH   1  15
ATOM     15  O   UNL     1      -0.754  11.665  11.928  0.00  0.00    +0.000 OA
BRANCH  15  16
ATOM     16  C   UNL     1      -1.713  12.631  11.504  0.00  0.00    +0.000 C 
ATOM     17  H   UNL     1      -2.725  12.209  11.508  0.00  0.00    +0.000 HD
ATOM     18  H   UNL     1      -1.685  13.486  12.189  0.00  0.00    +0.000 HD
BRANCH  16  19
ATOM     19  C   UNL     1      -1.370  13.084  10.101  0.00  0.00    +0.000 C 
ATOM     20  H   UNL     1      -1.616  14.140   9.959  0.00  0.00    +0.000 HD
ATOM     21  H   UNL     1      -0.302  12.941   9.901  0.00  0.00    +0.000 HD
ATOM     22  H   UNL     1      -1.915  12.490   9.361  0.00  0.00    +0.000 HD
ENDBRANCH  16  19
ENDBRANCH  15  16
ENDBRANCH   1  15
TORSDOF 5
ENDMDL
