MODEL 1
REMARK VINA RESULT:    -5.048      0.000      0.000
REMARK INTER + INTRA:          -9.060
REMARK INTER:                  -8.053
REMARK INTRA:                  -1.007
REMARK UNBOUND:                -0.766
REMARK  Name = 8048
REMARK  12 active torsions:
REMARK  status: ('A' for Active; 'I' for Inactive)
REMARK    1  A    between atoms: O_1  and  C_12
REMARK    2  A    between atoms: O_1  and  C_13
REMARK    3  A    between atoms: C_3  and  C_4
REMARK    4  A    between atoms: C_3  and  C_5
REMARK    5  A    between atoms: C_4  and  C_6
REMARK    6  A    between atoms: C_5  and  C_7
REMARK    7  A    between atoms: C_6  and  C_8
REMARK    8  A    between atoms: C_7  and  C_9
REMARK    9  A    between atoms: C_8  and  C_10
REMARK   10  A    between atoms: C_9  and  C_11
REMARK   11  A    between atoms: C_10  and  C_12
REMARK   12  A    between atoms: C_13  and  C_14
REMARK                            x       y       z     vdW  Elec       q    Type
REMARK                         _______ _______ _______ _____ _____    ______ ____
ROOT
ATOM      1  C   UNL     1       9.255  -1.673  -3.226  0.00  0.00    +0.000 C 
ATOM      2  H   UNL     1      10.334  -1.702  -3.424  0.00  0.00    +0.000 HD
ATOM      3  H   UNL     1       8.895  -2.709  -3.242  0.00  0.00    +0.000 HD
ENDROOT
BRANCH   1   4
ATOM      4  C   UNL     1       8.553  -0.869  -4.322  0.00  0.00    +0.000 C 
ATOM      5  H   UNL     1       8.578   0.198  -4.072  0.00  0.00    +0.000 HD
ATOM      6  H   UNL     1       9.091  -0.992  -5.270  0.00  0.00    +0.000 HD
BRANCH   4   7
ATOM      7  C   UNL     1       7.103  -1.322  -4.498  0.00  0.00    +0.000 C 
ATOM      8  H   UNL     1       6.792  -1.894  -3.615  0.00  0.00    +0.000 HD
ATOM      9  H   UNL     1       7.038  -2.004  -5.356  0.00  0.00    +0.000 HD
BRANCH   7  10
ATOM     10  C   UNL     1       6.125  -0.163  -4.715  0.00  0.00    +0.000 C 
ATOM     11  H   UNL     1       5.344  -0.477  -5.418  0.00  0.00    +0.000 HD
ATOM     12  H   UNL     1       6.662   0.669  -5.190  0.00  0.00    +0.000 HD
BRANCH  10  13
ATOM     13  C   UNL     1       5.472   0.331  -3.423  0.00  0.00    +0.000 C 
ATOM     14  H   UNL     1       4.477   0.735  -3.642  0.00  0.00    +0.000 HD
ATOM     15  H   UNL     1       6.066   1.146  -2.994  0.00  0.00    +0.000 HD
BRANCH  13  16
ATOM     16  C   UNL     1       5.341  -0.791  -2.404  0.00  0.00    +0.000 C 
ATOM     17  H   UNL     1       4.625  -1.547  -2.742  0.00  0.00    +0.000 HD
ATOM     18  H   UNL     1       4.990  -0.394  -1.447  0.00  0.00    +0.000 HD
ATOM     19  H   UNL     1       6.305  -1.281  -2.235  0.00  0.00    +0.000 HD
ENDBRANCH  13  16
ENDBRANCH  10  13
ENDBRANCH   7  10
ENDBRANCH   4   7
ENDBRANCH   1   4
BRANCH   1  20
ATOM     20  C   UNL     1       9.008  -1.065  -1.844  0.00  0.00    +0.000 C 
ATOM     21  H   UNL     1       8.048  -1.422  -1.450  0.00  0.00    +0.000 HD
ATOM     22  H   UNL     1       9.787  -1.404  -1.151  0.00  0.00    +0.000 HD
BRANCH  20  23
ATOM     23  C   UNL     1       8.999   0.462  -1.902  0.00  0.00    +0.000 C 
ATOM     24  H   UNL     1       8.097   0.806  -2.423  0.00  0.00    +0.000 HD
ATOM     25  H   UNL     1       9.857   0.809  -2.493  0.00  0.00    +0.000 HD
BRANCH  23  26
ATOM     26  C   UNL     1       9.054   1.071  -0.505  0.00  0.00    +0.000 C 
ATOM     27  H   UNL     1       9.023   0.277   0.249  0.00  0.00    +0.000 HD
ATOM     28  H   UNL     1       9.977   1.650  -0.383  0.00  0.00    +0.000 HD
BRANCH  26  30
ATOM     29  O   UNL     1       6.717   1.624  -0.273  0.00  0.00    +0.000 OA
ATOM     30  C   UNL     1       7.884   1.994  -0.280  0.00  0.00    +0.000 C 
BRANCH  30  31
ATOM     31  O   UNL     1       8.328   3.266  -0.068  0.00  0.00    +0.000 OA
BRANCH  31  32
ATOM     32  C   UNL     1       7.364   4.173   0.472  0.00  0.00    +0.000 C 
ATOM     33  H   UNL     1       6.552   3.606   0.941  0.00  0.00    +0.000 HD
ATOM     34  H   UNL     1       6.956   4.795  -0.333  0.00  0.00    +0.000 HD
BRANCH  32  35
ATOM     35  C   UNL     1       8.037   5.052   1.505  0.00  0.00    +0.000 C 
ATOM     36  H   UNL     1       7.771   6.103   1.349  0.00  0.00    +0.000 HD
ATOM     37  H   UNL     1       7.702   4.786   2.514  0.00  0.00    +0.000 HD
ATOM     38  H   UNL     1       9.124   4.951   1.457  0.00  0.00    +0.000 HD
ENDBRANCH  32  35
ENDBRANCH  31  32
ENDBRANCH  30  31
ENDBRANCH  26  30
ENDBRANCH  23  26
ENDBRANCH  20  23
ENDBRANCH   1  20
TORSDOF 12
ENDMDL
MODEL 2
REMARK VINA RESULT:    -4.916      2.288      2.969
REMARK INTER + INTRA:          -8.844
REMARK INTER:                  -7.774
REMARK INTRA:                  -1.070
REMARK UNBOUND:                -0.766
REMARK  Name = 8048
REMARK  12 active torsions:
REMARK  status: ('A' for Active; 'I' for Inactive)
REMARK    1  A    between atoms: O_1  and  C_12
REMARK    2  A    between atoms: O_1  and  C_13
REMARK    3  A    between atoms: C_3  and  C_4
REMARK    4  A    between atoms: C_3  and  C_5
REMARK    5  A    between atoms: C_4  and  C_6
REMARK    6  A    between atoms: C_5  and  C_7
REMARK    7  A    between atoms: C_6  and  C_8
REMARK    8  A    between atoms: C_7  and  C_9
REMARK    9  A    between atoms: C_8  and  C_10
REMARK   10  A    between atoms: C_9  and  C_11
REMARK   11  A    between atoms: C_10  and  C_12
REMARK   12  A    between atoms: C_13  and  C_14
REMARK                            x       y       z     vdW  Elec       q    Type
REMARK                         _______ _______ _______ _____ _____    ______ ____
ROOT
ATOM      1  C   UNL     1       8.945  -0.875  -2.853  0.00  0.00    +0.000 C 
ATOM      2  H   UNL     1       9.233  -1.780  -2.304  0.00  0.00    +0.000 HD
ATOM      3  H   UNL     1       7.865  -0.744  -2.718  0.00  0.00    +0.000 HD
ENDROOT
BRANCH   1   4
ATOM      4  C   UNL     1       9.258  -1.059  -4.340  0.00  0.00    +0.000 C 
ATOM      5  H   UNL     1      10.121  -0.441  -4.616  0.00  0.00    +0.000 HD
ATOM      6  H   UNL     1       9.533  -2.103  -4.532  0.00  0.00    +0.000 HD
BRANCH   4   7
ATOM      7  C   UNL     1       8.057  -0.680  -5.209  0.00  0.00    +0.000 C 
ATOM      8  H   UNL     1       8.093  -1.253  -6.145  0.00  0.00    +0.000 HD
ATOM      9  H   UNL     1       8.130   0.380  -5.484  0.00  0.00    +0.000 HD
BRANCH   7  10
ATOM     10  C   UNL     1       6.709  -0.923  -4.524  0.00  0.00    +0.000 C 
ATOM     11  H   UNL     1       6.854  -0.927  -3.436  0.00  0.00    +0.000 HD
ATOM     12  H   UNL     1       6.348  -1.922  -4.798  0.00  0.00    +0.000 HD
BRANCH  10  13
ATOM     13  C   UNL     1       5.647   0.116  -4.886  0.00  0.00    +0.000 C 
ATOM     14  H   UNL     1       4.752  -0.387  -5.269  0.00  0.00    +0.000 HD
ATOM     15  H   UNL     1       6.022   0.766  -5.685  0.00  0.00    +0.000 HD
BRANCH  13  16
ATOM     16  C   UNL     1       5.267   0.963  -3.681  0.00  0.00    +0.000 C 
ATOM     17  H   UNL     1       6.056   0.944  -2.923  0.00  0.00    +0.000 HD
ATOM     18  H   UNL     1       4.349   0.580  -3.224  0.00  0.00    +0.000 HD
ATOM     19  H   UNL     1       5.092   2.003  -3.972  0.00  0.00    +0.000 HD
ENDBRANCH  13  16
ENDBRANCH  10  13
ENDBRANCH   7  10
ENDBRANCH   4   7
ENDBRANCH   1   4
BRANCH   1  20
ATOM     20  C   UNL     1       9.686   0.330  -2.273  0.00  0.00    +0.000 C 
ATOM     21  H   UNL     1      10.677   0.018  -1.916  0.00  0.00    +0.000 HD
ATOM     22  H   UNL     1       9.847   1.075  -3.061  0.00  0.00    +0.000 HD
BRANCH  20  23
ATOM     23  C   UNL     1       8.906   0.961  -1.120  0.00  0.00    +0.000 C 
ATOM     24  H   UNL     1       8.742   2.027  -1.325  0.00  0.00    +0.000 HD
ATOM     25  H   UNL     1       9.504   0.904  -0.201  0.00  0.00    +0.000 HD
BRANCH  23  26
ATOM     26  C   UNL     1       7.567   0.264  -0.908  0.00  0.00    +0.000 C 
ATOM     27  H   UNL     1       6.752   0.992  -0.980  0.00  0.00    +0.000 HD
ATOM     28  H   UNL     1       7.424  -0.515  -1.667  0.00  0.00    +0.000 HD
BRANCH  26  30
ATOM     29  O   UNL     1       6.682  -0.108   1.305  0.00  0.00    +0.000 OA
ATOM     30  C   UNL     1       7.514  -0.386   0.451  0.00  0.00    +0.000 C 
BRANCH  30  31
ATOM     31  O   UNL     1       8.500  -1.321   0.560  0.00  0.00    +0.000 OA
BRANCH  31  32
ATOM     32  C   UNL     1       9.052  -1.483   1.869  0.00  0.00    +0.000 C 
ATOM     33  H   UNL     1       9.431  -2.506   1.981  0.00  0.00    +0.000 HD
ATOM     34  H   UNL     1       8.276  -1.298   2.619  0.00  0.00    +0.000 HD
BRANCH  32  35
ATOM     35  C   UNL     1      10.186  -0.497   2.052  0.00  0.00    +0.000 C 
ATOM     36  H   UNL     1       9.834   0.529   1.895  0.00  0.00    +0.000 HD
ATOM     37  H   UNL     1      10.577  -0.544   3.074  0.00  0.00    +0.000 HD
ATOM     38  H   UNL     1      11.001  -0.702   1.353  0.00  0.00    +0.000 HD
ENDBRANCH  32  35
ENDBRANCH  31  32
ENDBRANCH  30  31
ENDBRANCH  26  30
ENDBRANCH  23  26
ENDBRANCH  20  23
ENDBRANCH   1  20
TORSDOF 12
ENDMDL
MODEL 3
REMARK VINA RESULT:    -4.880      4.256      6.647
REMARK INTER + INTRA:          -8.784
REMARK INTER:                  -8.250
REMARK INTRA:                  -0.534
REMARK UNBOUND:                -0.766
REMARK  Name = 8048
REMARK  12 active torsions:
REMARK  status: ('A' for Active; 'I' for Inactive)
REMARK    1  A    between atoms: O_1  and  C_12
REMARK    2  A    between atoms: O_1  and  C_13
REMARK    3  A    between atoms: C_3  and  C_4
REMARK    4  A    between atoms: C_3  and  C_5
REMARK    5  A    between atoms: C_4  and  C_6
REMARK    6  A    between atoms: C_5  and  C_7
REMARK    7  A    between atoms: C_6  and  C_8
REMARK    8  A    between atoms: C_7  and  C_9
REMARK    9  A    between atoms: C_8  and  C_10
REMARK   10  A    between atoms: C_9  and  C_11
REMARK   11  A    between atoms: C_10  and  C_12
REMARK   12  A    between atoms: C_13  and  C_14
REMARK                            x       y       z     vdW  Elec       q    Type
REMARK                         _______ _______ _______ _____ _____    ______ ____
ROOT
ATOM      1  C   UNL     1      13.459  -0.988  -4.081  0.00  0.00    +0.000 C 
ATOM      2  H   UNL     1      13.366  -1.844  -3.400  0.00  0.00    +0.000 HD
ATOM      3  H   UNL     1      14.106  -1.302  -4.908  0.00  0.00    +0.000 HD
ENDROOT
BRANCH   1   4
ATOM      4  C   UNL     1      14.104   0.186  -3.341  0.00  0.00    +0.000 C 
ATOM      5  H   UNL     1      14.307  -0.098  -2.302  0.00  0.00    +0.000 HD
ATOM      6  H   UNL     1      15.068   0.428  -3.805  0.00  0.00    +0.000 HD
BRANCH   4   7
ATOM      7  C   UNL     1      13.202   1.421  -3.369  0.00  0.00    +0.000 C 
ATOM      8  H   UNL     1      12.665   1.499  -2.415  0.00  0.00    +0.000 HD
ATOM      9  H   UNL     1      12.441   1.295  -4.151  0.00  0.00    +0.000 HD
BRANCH   7  10
ATOM     10  C   UNL     1      13.962   2.725  -3.625  0.00  0.00    +0.000 C 
ATOM     11  H   UNL     1      15.028   2.501  -3.758  0.00  0.00    +0.000 HD
ATOM     12  H   UNL     1      13.882   3.362  -2.735  0.00  0.00    +0.000 HD
BRANCH  10  13
ATOM     13  C   UNL     1      13.455   3.495  -4.845  0.00  0.00    +0.000 C 
ATOM     14  H   UNL     1      12.663   4.189  -4.543  0.00  0.00    +0.000 HD
ATOM     15  H   UNL     1      13.018   2.798  -5.569  0.00  0.00    +0.000 HD
BRANCH  13  16
ATOM     16  C   UNL     1      14.576   4.279  -5.511  0.00  0.00    +0.000 C 
ATOM     17  H   UNL     1      14.300   4.570  -6.529  0.00  0.00    +0.000 HD
ATOM     18  H   UNL     1      15.483   3.669  -5.566  0.00  0.00    +0.000 HD
ATOM     19  H   UNL     1      14.811   5.186  -4.944  0.00  0.00    +0.000 HD
ENDBRANCH  13  16
ENDBRANCH  10  13
ENDBRANCH   7  10
ENDBRANCH   4   7
ENDBRANCH   1   4
BRANCH   1  20
ATOM     20  C   UNL     1      12.078  -0.615  -4.621  0.00  0.00    +0.000 C 
ATOM     21  H   UNL     1      11.746   0.327  -4.166  0.00  0.00    +0.000 HD
ATOM     22  H   UNL     1      12.142  -0.446  -5.703  0.00  0.00    +0.000 HD
BRANCH  20  23
ATOM     23  C   UNL     1      11.052  -1.711  -4.332  0.00  0.00    +0.000 C 
ATOM     24  H   UNL     1      11.202  -2.097  -3.316  0.00  0.00    +0.000 HD
ATOM     25  H   UNL     1      11.215  -2.552  -5.018  0.00  0.00    +0.000 HD
BRANCH  23  26
ATOM     26  C   UNL     1       9.627  -1.190  -4.482  0.00  0.00    +0.000 C 
ATOM     27  H   UNL     1       9.642  -0.110  -4.661  0.00  0.00    +0.000 HD
ATOM     28  H   UNL     1       9.130  -1.689  -5.322  0.00  0.00    +0.000 HD
BRANCH  26  30
ATOM     29  O   UNL     1       9.253  -2.092  -2.276  0.00  0.00    +0.000 OA
ATOM     30  C   UNL     1       8.827  -1.459  -3.233  0.00  0.00    +0.000 C 
BRANCH  30  31
ATOM     31  O   UNL     1       7.597  -0.880  -3.335  0.00  0.00    +0.000 OA
BRANCH  31  32
ATOM     32  C   UNL     1       6.838  -1.245  -4.490  0.00  0.00    +0.000 C 
ATOM     33  H   UNL     1       6.205  -2.108  -4.254  0.00  0.00    +0.000 HD
ATOM     34  H   UNL     1       7.518  -1.507  -5.308  0.00  0.00    +0.000 HD
BRANCH  32  35
ATOM     35  C   UNL     1       5.971  -0.074  -4.902  0.00  0.00    +0.000 C 
ATOM     36  H   UNL     1       6.156   0.193  -5.948  0.00  0.00    +0.000 HD
ATOM     37  H   UNL     1       4.910  -0.334  -4.824  0.00  0.00    +0.000 HD
ATOM     38  H   UNL     1       6.168   0.799  -4.275  0.00  0.00    +0.000 HD
ENDBRANCH  32  35
ENDBRANCH  31  32
ENDBRANCH  30  31
ENDBRANCH  26  30
ENDBRANCH  23  26
ENDBRANCH  20  23
ENDBRANCH   1  20
TORSDOF 12
ENDMDL
MODEL 4
REMARK VINA RESULT:    -4.708      2.180      5.391
REMARK INTER + INTRA:          -8.503
REMARK INTER:                  -7.752
REMARK INTRA:                  -0.751
REMARK UNBOUND:                -0.766
REMARK  Name = 8048
REMARK  12 active torsions:
REMARK  status: ('A' for Active; 'I' for Inactive)
REMARK    1  A    between atoms: O_1  and  C_12
REMARK    2  A    between atoms: O_1  and  C_13
REMARK    3  A    between atoms: C_3  and  C_4
REMARK    4  A    between atoms: C_3  and  C_5
REMARK    5  A    between atoms: C_4  and  C_6
REMARK    6  A    between atoms: C_5  and  C_7
REMARK    7  A    between atoms: C_6  and  C_8
REMARK    8  A    between atoms: C_7  and  C_9
REMARK    9  A    between atoms: C_8  and  C_10
REMARK   10  A    between atoms: C_9  and  C_11
REMARK   11  A    between atoms: C_10  and  C_12
REMARK   12  A    between atoms: C_13  and  C_14
REMARK                            x       y       z     vdW  Elec       q    Type
REMARK                         _______ _______ _______ _____ _____    ______ ____
ROOT
ATOM      1  C   UNL     1       8.299   0.370   0.041  0.00  0.00    +0.000 C 
ATOM      2  H   UNL     1       7.694   0.151   0.930  0.00  0.00    +0.000 HD
ATOM      3  H   UNL     1       9.268   0.745   0.394  0.00  0.00    +0.000 HD
ENDROOT
BRANCH   1   4
ATOM      4  C   UNL     1       7.607   1.446  -0.798  0.00  0.00    +0.000 C 
ATOM      5  H   UNL     1       8.338   2.205  -1.103  0.00  0.00    +0.000 HD
ATOM      6  H   UNL     1       7.205   0.997  -1.714  0.00  0.00    +0.000 HD
BRANCH   4   7
ATOM      7  C   UNL     1       6.472   2.112  -0.017  0.00  0.00    +0.000 C 
ATOM      8  H   UNL     1       6.426   1.682   0.992  0.00  0.00    +0.000 HD
ATOM      9  H   UNL     1       5.515   1.881  -0.503  0.00  0.00    +0.000 HD
BRANCH   7  10
ATOM     10  C   UNL     1       6.618   3.632   0.092  0.00  0.00    +0.000 C 
ATOM     11  H   UNL     1       5.936   4.006   0.866  0.00  0.00    +0.000 HD
ATOM     12  H   UNL     1       6.299   4.087  -0.855  0.00  0.00    +0.000 HD
BRANCH  10  13
ATOM     13  C   UNL     1       8.042   4.085   0.416  0.00  0.00    +0.000 C 
ATOM     14  H   UNL     1       8.501   4.531  -0.474  0.00  0.00    +0.000 HD
ATOM     15  H   UNL     1       8.652   3.219   0.696  0.00  0.00    +0.000 HD
BRANCH  13  16
ATOM     16  C   UNL     1       8.056   5.102   1.547  0.00  0.00    +0.000 C 
ATOM     17  H   UNL     1       7.044   5.287   1.921  0.00  0.00    +0.000 HD
ATOM     18  H   UNL     1       8.468   6.054   1.196  0.00  0.00    +0.000 HD
ATOM     19  H   UNL     1       8.674   4.753   2.381  0.00  0.00    +0.000 HD
ENDBRANCH  13  16
ENDBRANCH  10  13
ENDBRANCH   7  10
ENDBRANCH   4   7
ENDBRANCH   1   4
BRANCH   1  20
ATOM     20  C   UNL     1       8.507  -0.915  -0.762  0.00  0.00    +0.000 C 
ATOM     21  H   UNL     1       9.099  -1.627  -0.173  0.00  0.00    +0.000 HD
ATOM     22  H   UNL     1       7.536  -1.385  -0.956  0.00  0.00    +0.000 HD
BRANCH  20  23
ATOM     23  C   UNL     1       9.217  -0.635  -2.086  0.00  0.00    +0.000 C 
ATOM     24  H   UNL     1      10.303  -0.635  -1.929  0.00  0.00    +0.000 HD
ATOM     25  H   UNL     1       8.949   0.370  -2.438  0.00  0.00    +0.000 HD
BRANCH  23  26
ATOM     26  C   UNL     1       8.847  -1.668  -3.144  0.00  0.00    +0.000 C 
ATOM     27  H   UNL     1       9.756  -2.108  -3.569  0.00  0.00    +0.000 HD
ATOM     28  H   UNL     1       8.236  -2.461  -2.698  0.00  0.00    +0.000 HD
BRANCH  26  30
ATOM     29  O   UNL     1       8.553  -0.622  -5.298  0.00  0.00    +0.000 OA
ATOM     30  C   UNL     1       8.055  -1.031  -4.257  0.00  0.00    +0.000 C 
BRANCH  30  31
ATOM     31  O   UNL     1       6.731  -1.007  -3.932  0.00  0.00    +0.000 OA
BRANCH  31  32
ATOM     32  C   UNL     1       5.938  -0.060  -4.653  0.00  0.00    +0.000 C 
ATOM     33  H   UNL     1       5.153  -0.587  -5.206  0.00  0.00    +0.000 HD
ATOM     34  H   UNL     1       6.572   0.490  -5.356  0.00  0.00    +0.000 HD
BRANCH  32  35
ATOM     35  C   UNL     1       5.309   0.906  -3.670  0.00  0.00    +0.000 C 
ATOM     36  H   UNL     1       4.655   0.373  -2.972  0.00  0.00    +0.000 HD
ATOM     37  H   UNL     1       6.079   1.401  -3.069  0.00  0.00    +0.000 HD
ATOM     38  H   UNL     1       4.724   1.668  -4.191  0.00  0.00    +0.000 HD
ENDBRANCH  32  35
ENDBRANCH  31  32
ENDBRANCH  30  31
ENDBRANCH  26  30
ENDBRANCH  23  26
ENDBRANCH  20  23
ENDBRANCH   1  20
TORSDOF 12
ENDMDL
MODEL 5
REMARK VINA RESULT:    -4.294     17.090     19.536
REMARK INTER + INTRA:          -7.821
REMARK INTER:                  -7.239
REMARK INTRA:                  -0.582
REMARK UNBOUND:                -0.766
REMARK  Name = 8048
REMARK  12 active torsions:
REMARK  status: ('A' for Active; 'I' for Inactive)
REMARK    1  A    between atoms: O_1  and  C_12
REMARK    2  A    between atoms: O_1  and  C_13
REMARK    3  A    between atoms: C_3  and  C_4
REMARK    4  A    between atoms: C_3  and  C_5
REMARK    5  A    between atoms: C_4  and  C_6
REMARK    6  A    between atoms: C_5  and  C_7
REMARK    7  A    between atoms: C_6  and  C_8
REMARK    8  A    between atoms: C_7  and  C_9
REMARK    9  A    between atoms: C_8  and  C_10
REMARK   10  A    between atoms: C_9  and  C_11
REMARK   11  A    between atoms: C_10  and  C_12
REMARK   12  A    between atoms: C_13  and  C_14
REMARK                            x       y       z     vdW  Elec       q    Type
REMARK                         _______ _______ _______ _____ _____    ______ ____
ROOT
ATOM      1  C   UNL     1       0.167 -13.549 -12.388  0.00  0.00    +0.000 C 
ATOM      2  H   UNL     1       0.362 -13.007 -13.322  0.00  0.00    +0.000 HD
ATOM      3  H   UNL     1       0.907 -14.355 -12.320  0.00  0.00    +0.000 HD
ENDROOT
BRANCH   1   4
ATOM      4  C   UNL     1      -1.241 -14.146 -12.427  0.00  0.00    +0.000 C 
ATOM      5  H   UNL     1      -1.754 -13.947 -11.478  0.00  0.00    +0.000 HD
ATOM      6  H   UNL     1      -1.825 -13.660 -13.218  0.00  0.00    +0.000 HD
BRANCH   4   7
ATOM      7  C   UNL     1      -1.197 -15.654 -12.680  0.00  0.00    +0.000 C 
ATOM      8  H   UNL     1      -0.280 -15.901 -13.231  0.00  0.00    +0.000 HD
ATOM      9  H   UNL     1      -2.039 -15.937 -13.324  0.00  0.00    +0.000 HD
BRANCH   7  10
ATOM     10  C   UNL     1      -1.252 -16.489 -11.398  0.00  0.00    +0.000 C 
ATOM     11  H   UNL     1      -1.844 -15.954 -10.645  0.00  0.00    +0.000 HD
ATOM     12  H   UNL     1      -0.236 -16.582 -10.993  0.00  0.00    +0.000 HD
BRANCH  10  13
ATOM     13  C   UNL     1      -1.844 -17.883 -11.605  0.00  0.00    +0.000 C 
ATOM     14  H   UNL     1      -1.061 -18.573 -11.940  0.00  0.00    +0.000 HD
ATOM     15  H   UNL     1      -2.606 -17.850 -12.392  0.00  0.00    +0.000 HD
BRANCH  13  16
ATOM     16  C   UNL     1      -2.464 -18.418 -10.323  0.00  0.00    +0.000 C 
ATOM     17  H   UNL     1      -2.369 -17.692  -9.509  0.00  0.00    +0.000 HD
ATOM     18  H   UNL     1      -1.962 -19.341 -10.016  0.00  0.00    +0.000 HD
ATOM     19  H   UNL     1      -3.526 -18.641 -10.465  0.00  0.00    +0.000 HD
ENDBRANCH  13  16
ENDBRANCH  10  13
ENDBRANCH   7  10
ENDBRANCH   4   7
ENDBRANCH   1   4
BRANCH   1  20
ATOM     20  C   UNL     1       0.336 -12.597 -11.202  0.00  0.00    +0.000 C 
ATOM     21  H   UNL     1       1.377 -12.620 -10.855  0.00  0.00    +0.000 HD
ATOM     22  H   UNL     1       0.127 -11.570 -11.526  0.00  0.00    +0.000 HD
BRANCH  20  23
ATOM     23  C   UNL     1      -0.594 -12.973 -10.049  0.00  0.00    +0.000 C 
ATOM     24  H   UNL     1      -0.352 -13.983  -9.695  0.00  0.00    +0.000 HD
ATOM     25  H   UNL     1      -1.630 -13.004 -10.412  0.00  0.00    +0.000 HD
BRANCH  23  26
ATOM     26  C   UNL     1      -0.480 -11.980  -8.898  0.00  0.00    +0.000 C 
ATOM     27  H   UNL     1       0.551 -11.618  -8.818  0.00  0.00    +0.000 HD
ATOM     28  H   UNL     1      -1.150 -11.129  -9.066  0.00  0.00    +0.000 HD
BRANCH  26  30
ATOM     29  O   UNL     1      -0.480 -12.238  -6.499  0.00  0.00    +0.000 OA
ATOM     30  C   UNL     1      -0.862 -12.631  -7.593  0.00  0.00    +0.000 C 
BRANCH  30  31
ATOM     31  O   UNL     1      -1.697 -13.684  -7.825  0.00  0.00    +0.000 OA
BRANCH  31  32
ATOM     32  C   UNL     1      -1.872 -14.585  -6.728  0.00  0.00    +0.000 C 
ATOM     33  H   UNL     1      -1.232 -14.274  -5.895  0.00  0.00    +0.000 HD
ATOM     34  H   UNL     1      -1.597 -15.599  -7.040  0.00  0.00    +0.000 HD
BRANCH  32  35
ATOM     35  C   UNL     1      -3.322 -14.560  -6.295  0.00  0.00    +0.000 C 
ATOM     36  H   UNL     1      -3.977 -14.374  -7.153  0.00  0.00    +0.000 HD
ATOM     37  H   UNL     1      -3.616 -15.528  -5.875  0.00  0.00    +0.000 HD
ATOM     38  H   UNL     1      -3.494 -13.784  -5.545  0.00  0.00    +0.000 HD
ENDBRANCH  32  35
ENDBRANCH  31  32
ENDBRANCH  30  31
ENDBRANCH  26  30
ENDBRANCH  23  26
ENDBRANCH  20  23
ENDBRANCH   1  20
TORSDOF 12
ENDMDL
MODEL 6
REMARK VINA RESULT:    -4.287     17.119     19.145
REMARK INTER + INTRA:          -7.810
REMARK INTER:                  -6.999
REMARK INTRA:                  -0.811
REMARK UNBOUND:                -0.766
REMARK  Name = 8048
REMARK  12 active torsions:
REMARK  status: ('A' for Active; 'I' for Inactive)
REMARK    1  A    between atoms: O_1  and  C_12
REMARK    2  A    between atoms: O_1  and  C_13
REMARK    3  A    between atoms: C_3  and  C_4
REMARK    4  A    between atoms: C_3  and  C_5
REMARK    5  A    between atoms: C_4  and  C_6
REMARK    6  A    between atoms: C_5  and  C_7
REMARK    7  A    between atoms: C_6  and  C_8
REMARK    8  A    between atoms: C_7  and  C_9
REMARK    9  A    between atoms: C_8  and  C_10
REMARK   10  A    between atoms: C_9  and  C_11
REMARK   11  A    between atoms: C_10  and  C_12
REMARK   12  A    between atoms: C_13  and  C_14
REMARK                            x       y       z     vdW  Elec       q    Type
REMARK                         _______ _______ _______ _____ _____    ______ ____
ROOT
ATOM      1  C   UNL     1      -0.393 -12.515  -9.696  0.00  0.00    +0.000 C 
ATOM      2  H   UNL     1      -0.518 -11.613 -10.308  0.00  0.00    +0.000 HD
ATOM      3  H   UNL     1       0.574 -12.957  -9.965  0.00  0.00    +0.000 HD
ENDROOT
BRANCH   1   4
ATOM      4  C   UNL     1      -1.516 -13.506 -10.009  0.00  0.00    +0.000 C 
ATOM      5  H   UNL     1      -1.830 -14.012  -9.088  0.00  0.00    +0.000 HD
ATOM      6  H   UNL     1      -2.389 -12.964 -10.393  0.00  0.00    +0.000 HD
BRANCH   4   7
ATOM      7  C   UNL     1      -1.067 -14.544 -11.039  0.00  0.00    +0.000 C 
ATOM      8  H   UNL     1      -1.590 -15.490 -10.851  0.00  0.00    +0.000 HD
ATOM      9  H   UNL     1       0.004 -14.743 -10.908  0.00  0.00    +0.000 HD
BRANCH   7  10
ATOM     10  C   UNL     1      -1.316 -14.112 -12.487  0.00  0.00    +0.000 C 
ATOM     11  H   UNL     1      -2.216 -13.485 -12.526  0.00  0.00    +0.000 HD
ATOM     12  H   UNL     1      -1.527 -15.004 -13.091  0.00  0.00    +0.000 HD
BRANCH  10  13
ATOM     13  C   UNL     1      -0.144 -13.349 -13.104  0.00  0.00    +0.000 C 
ATOM     14  H   UNL     1      -0.139 -12.317 -12.736  0.00  0.00    +0.000 HD
ATOM     15  H   UNL     1      -0.262 -13.305 -14.193  0.00  0.00    +0.000 HD
BRANCH  13  16
ATOM     16  C   UNL     1       1.185 -14.006 -12.764  0.00  0.00    +0.000 C 
ATOM     17  H   UNL     1       1.807 -14.120 -13.658  0.00  0.00    +0.000 HD
ATOM     18  H   UNL     1       1.018 -15.000 -12.338  0.00  0.00    +0.000 HD
ATOM     19  H   UNL     1       1.740 -13.412 -12.031  0.00  0.00    +0.000 HD
ENDBRANCH  13  16
ENDBRANCH  10  13
ENDBRANCH   7  10
ENDBRANCH   4   7
ENDBRANCH   1   4
BRANCH   1  20
ATOM     20  C   UNL     1      -0.386 -12.129  -8.216  0.00  0.00    +0.000 C 
ATOM     21  H   UNL     1       0.597 -12.350  -7.780  0.00  0.00    +0.000 HD
ATOM     22  H   UNL     1      -0.546 -11.048  -8.119  0.00  0.00    +0.000 HD
BRANCH  20  23
ATOM     23  C   UNL     1      -1.468 -12.881  -7.440  0.00  0.00    +0.000 C 
ATOM     24  H   UNL     1      -1.718 -13.812  -7.964  0.00  0.00    +0.000 HD
ATOM     25  H   UNL     1      -2.384 -12.276  -7.414  0.00  0.00    +0.000 HD
BRANCH  23  26
ATOM     26  C   UNL     1      -1.015 -13.193  -6.018  0.00  0.00    +0.000 C 
ATOM     27  H   UNL     1       0.074 -13.104  -5.945  0.00  0.00    +0.000 HD
ATOM     28  H   UNL     1      -1.482 -12.496  -5.312  0.00  0.00    +0.000 HD
BRANCH  26  30
ATOM     29  O   UNL     1      -1.376 -15.017  -4.480  0.00  0.00    +0.000 OA
ATOM     30  C   UNL     1      -1.410 -14.595  -5.629  0.00  0.00    +0.000 C 
BRANCH  30  31
ATOM     31  O   UNL     1      -1.818 -15.286  -6.730  0.00  0.00    +0.000 OA
BRANCH  31  32
ATOM     32  C   UNL     1      -1.199 -16.561  -6.922  0.00  0.00    +0.000 C 
ATOM     33  H   UNL     1      -1.619 -17.282  -6.211  0.00  0.00    +0.000 HD
ATOM     34  H   UNL     1      -0.120 -16.472  -6.755  0.00  0.00    +0.000 HD
BRANCH  32  35
ATOM     35  C   UNL     1      -1.460 -17.029  -8.338  0.00  0.00    +0.000 C 
ATOM     36  H   UNL     1      -2.001 -17.981  -8.335  0.00  0.00    +0.000 HD
ATOM     37  H   UNL     1      -2.088 -16.308  -8.873  0.00  0.00    +0.000 HD
ATOM     38  H   UNL     1      -0.524 -17.156  -8.888  0.00  0.00    +0.000 HD
ENDBRANCH  32  35
ENDBRANCH  31  32
ENDBRANCH  30  31
ENDBRANCH  26  30
ENDBRANCH  23  26
ENDBRANCH  20  23
ENDBRANCH   1  20
TORSDOF 12
ENDMDL
MODEL 7
REMARK VINA RESULT:    -4.260     19.711     21.107
REMARK INTER + INTRA:          -7.766
REMARK INTER:                  -7.395
REMARK INTRA:                  -0.371
REMARK UNBOUND:                -0.766
REMARK  Name = 8048
REMARK  12 active torsions:
REMARK  status: ('A' for Active; 'I' for Inactive)
REMARK    1  A    between atoms: O_1  and  C_12
REMARK    2  A    between atoms: O_1  and  C_13
REMARK    3  A    between atoms: C_3  and  C_4
REMARK    4  A    between atoms: C_3  and  C_5
REMARK    5  A    between atoms: C_4  and  C_6
REMARK    6  A    between atoms: C_5  and  C_7
REMARK    7  A    between atoms: C_6  and  C_8
REMARK    8  A    between atoms: C_7  and  C_9
REMARK    9  A    between atoms: C_8  and  C_10
REMARK   10  A    between atoms: C_9  and  C_11
REMARK   11  A    between atoms: C_10  and  C_12
REMARK   12  A    between atoms: C_13  and  C_14
REMARK                            x       y       z     vdW  Elec       q    Type
REMARK                         _______ _______ _______ _____ _____    ______ ____
ROOT
ATOM      1  C   UNL     1       2.540  -5.700  18.121  0.00  0.00    +0.000 C 
ATOM      2  H   UNL     1       1.697  -5.965  17.471  0.00  0.00    +0.000 HD
ATOM      3  H   UNL     1       3.384  -6.338  17.834  0.00  0.00    +0.000 HD
ENDROOT
BRANCH   1   4
ATOM      4  C   UNL     1       2.166  -5.969  19.581  0.00  0.00    +0.000 C 
ATOM      5  H   UNL     1       3.042  -6.340  20.125  0.00  0.00    +0.000 HD
ATOM      6  H   UNL     1       1.858  -5.033  20.061  0.00  0.00    +0.000 HD
BRANCH   4   7
ATOM      7  C   UNL     1       1.030  -6.990  19.681  0.00  0.00    +0.000 C 
ATOM      8  H   UNL     1       1.456  -7.999  19.752  0.00  0.00    +0.000 HD
ATOM      9  H   UNL     1       0.436  -6.962  18.758  0.00  0.00    +0.000 HD
BRANCH   7  10
ATOM     10  C   UNL     1       0.101  -6.751  20.875  0.00  0.00    +0.000 C 
ATOM     11  H   UNL     1       0.037  -5.674  21.071  0.00  0.00    +0.000 HD
ATOM     12  H   UNL     1       0.548  -7.209  21.767  0.00  0.00    +0.000 HD
BRANCH  10  13
ATOM     13  C   UNL     1      -1.307  -7.311  20.671  0.00  0.00    +0.000 C 
ATOM     14  H   UNL     1      -1.389  -8.293  21.149  0.00  0.00    +0.000 HD
ATOM     15  H   UNL     1      -1.498  -7.454  19.601  0.00  0.00    +0.000 HD
BRANCH  13  16
ATOM     16  C   UNL     1      -2.362  -6.383  21.254  0.00  0.00    +0.000 C 
ATOM     17  H   UNL     1      -3.039  -6.928  21.920  0.00  0.00    +0.000 HD
ATOM     18  H   UNL     1      -2.959  -5.937  20.453  0.00  0.00    +0.000 HD
ATOM     19  H   UNL     1      -1.898  -5.571  21.823  0.00  0.00    +0.000 HD
ENDBRANCH  13  16
ENDBRANCH  10  13
ENDBRANCH   7  10
ENDBRANCH   4   7
ENDBRANCH   1   4
BRANCH   1  20
ATOM     20  C   UNL     1       2.908  -4.231  17.903  0.00  0.00    +0.000 C 
ATOM     21  H   UNL     1       2.302  -3.597  18.563  0.00  0.00    +0.000 HD
ATOM     22  H   UNL     1       3.958  -4.073  18.178  0.00  0.00    +0.000 HD
BRANCH  20  23
ATOM     23  C   UNL     1       2.688  -3.812  16.450  0.00  0.00    +0.000 C 
ATOM     24  H   UNL     1       3.140  -2.827  16.278  0.00  0.00    +0.000 HD
ATOM     25  H   UNL     1       1.612  -3.704  16.261  0.00  0.00    +0.000 HD
BRANCH  23  26
ATOM     26  C   UNL     1       3.282  -4.829  15.483  0.00  0.00    +0.000 C 
ATOM     27  H   UNL     1       3.862  -5.576  16.036  0.00  0.00    +0.000 HD
ATOM     28  H   UNL     1       2.483  -5.332  14.926  0.00  0.00    +0.000 HD
BRANCH  26  30
ATOM     29  O   UNL     1       4.648  -4.705  13.497  0.00  0.00    +0.000 OA
ATOM     30  C   UNL     1       4.194  -4.153  14.491  0.00  0.00    +0.000 C 
BRANCH  30  31
ATOM     31  O   UNL     1       4.405  -2.857  14.861  0.00  0.00    +0.000 OA
BRANCH  31  32
ATOM     32  C   UNL     1       4.737  -1.960  13.798  0.00  0.00    +0.000 C 
ATOM     33  H   UNL     1       4.130  -1.051  13.885  0.00  0.00    +0.000 HD
ATOM     34  H   UNL     1       4.535  -2.442  12.835  0.00  0.00    +0.000 HD
BRANCH  32  35
ATOM     35  C   UNL     1       6.206  -1.604  13.893  0.00  0.00    +0.000 C 
ATOM     36  H   UNL     1       6.702  -2.217  14.653  0.00  0.00    +0.000 HD
ATOM     37  H   UNL     1       6.713  -1.803  12.943  0.00  0.00    +0.000 HD
ATOM     38  H   UNL     1       6.338  -0.550  14.149  0.00  0.00    +0.000 HD
ENDBRANCH  32  35
ENDBRANCH  31  32
ENDBRANCH  30  31
ENDBRANCH  26  30
ENDBRANCH  23  26
ENDBRANCH  20  23
ENDBRANCH   1  20
TORSDOF 12
ENDMDL
MODEL 8
REMARK VINA RESULT:    -4.223     20.727     22.194
REMARK INTER + INTRA:          -7.704
REMARK INTER:                  -7.231
REMARK INTRA:                  -0.473
REMARK UNBOUND:                -0.766
REMARK  Name = 8048
REMARK  12 active torsions:
REMARK  status: ('A' for Active; 'I' for Inactive)
REMARK    1  A    between atoms: O_1  and  C_12
REMARK    2  A    between atoms: O_1  and  C_13
REMARK    3  A    between atoms: C_3  and  C_4
REMARK    4  A    between atoms: C_3  and  C_5
REMARK    5  A    between atoms: C_4  and  C_6
REMARK    6  A    between atoms: C_5  and  C_7
REMARK    7  A    between atoms: C_6  and  C_8
REMARK    8  A    between atoms: C_7  and  C_9
REMARK    9  A    between atoms: C_8  and  C_10
REMARK   10  A    between atoms: C_9  and  C_11
REMARK   11  A    between atoms: C_10  and  C_12
REMARK   12  A    between atoms: C_13  and  C_14
REMARK                            x       y       z     vdW  Elec       q    Type
REMARK                         _______ _______ _______ _____ _____    ______ ____
ROOT
ATOM      1  C   UNL     1       3.046  -5.836  20.104  0.00  0.00    +0.000 C 
ATOM      2  H   UNL     1       3.309  -6.716  19.504  0.00  0.00    +0.000 HD
ATOM      3  H   UNL     1       3.839  -5.705  20.850  0.00  0.00    +0.000 HD
ENDROOT
BRANCH   1   4
ATOM      4  C   UNL     1       1.711  -6.079  20.812  0.00  0.00    +0.000 C 
ATOM      5  H   UNL     1       1.831  -5.926  21.891  0.00  0.00    +0.000 HD
ATOM      6  H   UNL     1       0.971  -5.350  20.462  0.00  0.00    +0.000 HD
BRANCH   4   7
ATOM      7  C   UNL     1       1.195  -7.495  20.549  0.00  0.00    +0.000 C 
ATOM      8  H   UNL     1       1.818  -8.215  21.095  0.00  0.00    +0.000 HD
ATOM      9  H   UNL     1       1.306  -7.728  19.482  0.00  0.00    +0.000 HD
BRANCH   7  10
ATOM     10  C   UNL     1      -0.269  -7.694  20.949  0.00  0.00    +0.000 C 
ATOM     11  H   UNL     1      -0.333  -7.809  22.038  0.00  0.00    +0.000 HD
ATOM     12  H   UNL     1      -0.632  -8.633  20.511  0.00  0.00    +0.000 HD
BRANCH  10  13
ATOM     13  C   UNL     1      -1.181  -6.547  20.511  0.00  0.00    +0.000 C 
ATOM     14  H   UNL     1      -1.451  -6.670  19.456  0.00  0.00    +0.000 HD
ATOM     15  H   UNL     1      -0.646  -5.594  20.600  0.00  0.00    +0.000 HD
BRANCH  13  16
ATOM     16  C   UNL     1      -2.450  -6.496  21.348  0.00  0.00    +0.000 C 
ATOM     17  H   UNL     1      -2.779  -5.463  21.500  0.00  0.00    +0.000 HD
ATOM     18  H   UNL     1      -2.273  -6.944  22.331  0.00  0.00    +0.000 HD
ATOM     19  H   UNL     1      -3.261  -7.050  20.864  0.00  0.00    +0.000 HD
ENDBRANCH  13  16
ENDBRANCH  10  13
ENDBRANCH   7  10
ENDBRANCH   4   7
ENDBRANCH   1   4
BRANCH   1  20
ATOM     20  C   UNL     1       2.981  -4.604  19.201  0.00  0.00    +0.000 C 
ATOM     21  H   UNL     1       2.179  -3.937  19.542  0.00  0.00    +0.000 HD
ATOM     22  H   UNL     1       3.921  -4.044  19.278  0.00  0.00    +0.000 HD
BRANCH  20  23
ATOM     23  C   UNL     1       2.733  -4.994  17.744  0.00  0.00    +0.000 C 
ATOM     24  H   UNL     1       1.851  -5.643  17.681  0.00  0.00    +0.000 HD
ATOM     25  H   UNL     1       3.585  -5.580  17.374  0.00  0.00    +0.000 HD
BRANCH  23  26
ATOM     26  C   UNL     1       2.533  -3.764  16.866  0.00  0.00    +0.000 C 
ATOM     27  H   UNL     1       1.476  -3.665  16.598  0.00  0.00    +0.000 HD
ATOM     28  H   UNL     1       2.856  -2.863  17.400  0.00  0.00    +0.000 HD
BRANCH  26  30
ATOM     29  O   UNL     1       4.274  -3.133  15.318  0.00  0.00    +0.000 OA
ATOM     30  C   UNL     1       3.342  -3.876  15.599  0.00  0.00    +0.000 C 
BRANCH  30  31
ATOM     31  O   UNL     1       2.892  -4.924  14.851  0.00  0.00    +0.000 OA
BRANCH  31  32
ATOM     32  C   UNL     1       3.908  -5.731  14.248  0.00  0.00    +0.000 C 
ATOM     33  H   UNL     1       4.442  -6.288  15.026  0.00  0.00    +0.000 HD
ATOM     34  H   UNL     1       4.615  -5.089  13.711  0.00  0.00    +0.000 HD
BRANCH  32  35
ATOM     35  C   UNL     1       3.260  -6.698  13.280  0.00  0.00    +0.000 C 
ATOM     36  H   UNL     1       3.449  -7.733  13.585  0.00  0.00    +0.000 HD
ATOM     37  H   UNL     1       2.173  -6.564  13.270  0.00  0.00    +0.000 HD
ATOM     38  H   UNL     1       3.642  -6.553  12.266  0.00  0.00    +0.000 HD
ENDBRANCH  32  35
ENDBRANCH  31  32
ENDBRANCH  30  31
ENDBRANCH  26  30
ENDBRANCH  23  26
ENDBRANCH  20  23
ENDBRANCH   1  20
TORSDOF 12
ENDMDL
MODEL 9
REMARK VINA RESULT:    -4.185      2.466      4.882
REMARK INTER + INTRA:          -7.643
REMARK INTER:                  -6.697
REMARK INTRA:                  -0.946
REMARK UNBOUND:                -0.766
REMARK  Name = 8048
REMARK  12 active torsions:
REMARK  status: ('A' for Active; 'I' for Inactive)
REMARK    1  A    between atoms: O_1  and  C_12
REMARK    2  A    between atoms: O_1  and  C_13
REMARK    3  A    between atoms: C_3  and  C_4
REMARK    4  A    between atoms: C_3  and  C_5
REMARK    5  A    between atoms: C_4  and  C_6
REMARK    6  A    between atoms: C_5  and  C_7
REMARK    7  A    between atoms: C_6  and  C_8
REMARK    8  A    between atoms: C_7  and  C_9
REMARK    9  A    between atoms: C_8  and  C_10
REMARK   10  A    between atoms: C_9  and  C_11
REMARK   11  A    between atoms: C_10  and  C_12
REMARK   12  A    between atoms: C_13  and  C_14
REMARK                            x       y       z     vdW  Elec       q    Type
REMARK                         _______ _______ _______ _____ _____    ______ ____
ROOT
ATOM      1  C   UNL     1       9.202   0.965   0.379  0.00  0.00    +0.000 C 
ATOM      2  H   UNL     1       8.583   1.650   0.972  0.00  0.00    +0.000 HD
ATOM      3  H   UNL     1      10.193   0.936   0.849  0.00  0.00    +0.000 HD
ENDROOT
BRANCH   1   4
ATOM      4  C   UNL     1       9.327   1.495  -1.051  0.00  0.00    +0.000 C 
ATOM      5  H   UNL     1       8.367   1.392  -1.569  0.00  0.00    +0.000 HD
ATOM      6  H   UNL     1       9.569   2.564  -1.027  0.00  0.00    +0.000 HD
BRANCH   4   7
ATOM      7  C   UNL     1      10.412   0.745  -1.826  0.00  0.00    +0.000 C 
ATOM      8  H   UNL     1      10.867  -0.011  -1.173  0.00  0.00    +0.000 HD
ATOM      9  H   UNL     1      11.210   1.447  -2.101  0.00  0.00    +0.000 HD
BRANCH   7  10
ATOM     10  C   UNL     1       9.893   0.064  -3.096  0.00  0.00    +0.000 C 
ATOM     11  H   UNL     1      10.450   0.443  -3.962  0.00  0.00    +0.000 HD
ATOM     12  H   UNL     1       8.844   0.350  -3.246  0.00  0.00    +0.000 HD
BRANCH  10  13
ATOM     13  C   UNL     1      10.001  -1.461  -3.056  0.00  0.00    +0.000 C 
ATOM     14  H   UNL     1       9.043  -1.892  -2.746  0.00  0.00    +0.000 HD
ATOM     15  H   UNL     1      10.748  -1.760  -2.312  0.00  0.00    +0.000 HD
BRANCH  13  16
ATOM     16  C   UNL     1      10.386  -2.024  -4.416  0.00  0.00    +0.000 C 
ATOM     17  H   UNL     1       9.497  -2.248  -5.013  0.00  0.00    +0.000 HD
ATOM     18  H   UNL     1      10.956  -2.950  -4.294  0.00  0.00    +0.000 HD
ATOM     19  H   UNL     1      11.006  -1.315  -4.973  0.00  0.00    +0.000 HD
ENDBRANCH  13  16
ENDBRANCH  10  13
ENDBRANCH   7  10
ENDBRANCH   4   7
ENDBRANCH   1   4
BRANCH   1  20
ATOM     20  C   UNL     1       8.582  -0.433   0.403  0.00  0.00    +0.000 C 
ATOM     21  H   UNL     1       9.182  -1.114  -0.214  0.00  0.00    +0.000 HD
ATOM     22  H   UNL     1       8.600  -0.824   1.427  0.00  0.00    +0.000 HD
BRANCH  20  23
ATOM     23  C   UNL     1       7.144  -0.412  -0.114  0.00  0.00    +0.000 C 
ATOM     24  H   UNL     1       6.856   0.617  -0.364  0.00  0.00    +0.000 HD
ATOM     25  H   UNL     1       6.466  -0.745   0.683  0.00  0.00    +0.000 HD
BRANCH  23  26
ATOM     26  C   UNL     1       6.981  -1.307  -1.337  0.00  0.00    +0.000 C 
ATOM     27  H   UNL     1       7.932  -1.381  -1.875  0.00  0.00    +0.000 HD
ATOM     28  H   UNL     1       6.660  -2.309  -1.031  0.00  0.00    +0.000 HD
BRANCH  26  30
ATOM     29  O   UNL     1       4.739  -0.931  -2.147  0.00  0.00    +0.000 OA
ATOM     30  C   UNL     1       5.942  -0.745  -2.274  0.00  0.00    +0.000 C 
BRANCH  30  31
ATOM     31  O   UNL     1       6.545   0.001  -3.244  0.00  0.00    +0.000 OA
BRANCH  31  32
ATOM     32  C   UNL     1       6.507  -0.556  -4.561  0.00  0.00    +0.000 C 
ATOM     33  H   UNL     1       6.214  -1.611  -4.503  0.00  0.00    +0.000 HD
ATOM     34  H   UNL     1       7.499  -0.478  -5.020  0.00  0.00    +0.000 HD
BRANCH  32  35
ATOM     35  C   UNL     1       5.498   0.209  -5.392  0.00  0.00    +0.000 C 
ATOM     36  H   UNL     1       5.588  -0.059  -6.450  0.00  0.00    +0.000 HD
ATOM     37  H   UNL     1       4.477  -0.043  -5.086  0.00  0.00    +0.000 HD
ATOM     38  H   UNL     1       5.642   1.287  -5.287  0.00  0.00    +0.000 HD
ENDBRANCH  32  35
ENDBRANCH  31  32
ENDBRANCH  30  31
ENDBRANCH  26  30
ENDBRANCH  23  26
ENDBRANCH  20  23
ENDBRANCH   1  20
TORSDOF 12
ENDMDL
MODEL 10
REMARK VINA RESULT:    -4.103     17.585     19.913
REMARK INTER + INTRA:          -7.509
REMARK INTER:                  -6.742
REMARK INTRA:                  -0.766
REMARK UNBOUND:                -0.766
REMARK  Name = 8048
REMARK  12 active torsions:
REMARK  status: ('A' for Active; 'I' for Inactive)
REMARK    1  A    between atoms: O_1  and  C_12
REMARK    2  A    between atoms: O_1  and  C_13
REMARK    3  A    between atoms: C_3  and  C_4
REMARK    4  A    between atoms: C_3  and  C_5
REMARK    5  A    between atoms: C_4  and  C_6
REMARK    6  A    between atoms: C_5  and  C_7
REMARK    7  A    between atoms: C_6  and  C_8
REMARK    8  A    between atoms: C_7  and  C_9
REMARK    9  A    between atoms: C_8  and  C_10
REMARK   10  A    between atoms: C_9  and  C_11
REMARK   11  A    between atoms: C_10  and  C_12
REMARK   12  A    between atoms: C_13  and  C_14
REMARK                            x       y       z     vdW  Elec       q    Type
REMARK                         _______ _______ _______ _____ _____    ______ ____
ROOT
ATOM      1  C   UNL     1      -0.247 -12.912 -10.555  0.00  0.00    +0.000 C 
ATOM      2  H   UNL     1      -0.064 -12.174 -11.345  0.00  0.00    +0.000 HD
ATOM      3  H   UNL     1       0.601 -13.606 -10.558  0.00  0.00    +0.000 HD
ENDROOT
BRANCH   1   4
ATOM      4  C   UNL     1      -1.538 -13.677 -10.859  0.00  0.00    +0.000 C 
ATOM      5  H   UNL     1      -1.676 -14.477 -10.122  0.00  0.00    +0.000 HD
ATOM      6  H   UNL     1      -2.397 -13.002 -10.767  0.00  0.00    +0.000 HD
BRANCH   4   7
ATOM      7  C   UNL     1      -1.508 -14.276 -12.266  0.00  0.00    +0.000 C 
ATOM      8  H   UNL     1      -1.100 -13.536 -12.965  0.00  0.00    +0.000 HD
ATOM      9  H   UNL     1      -2.535 -14.485 -12.592  0.00  0.00    +0.000 HD
BRANCH   7  10
ATOM     10  C   UNL     1      -0.687 -15.564 -12.363  0.00  0.00    +0.000 C 
ATOM     11  H   UNL     1      -0.251 -15.789 -11.381  0.00  0.00    +0.000 HD
ATOM     12  H   UNL     1       0.153 -15.398 -13.050  0.00  0.00    +0.000 HD
BRANCH  10  13
ATOM     13  C   UNL     1      -1.499 -16.769 -12.840  0.00  0.00    +0.000 C 
ATOM     14  H   UNL     1      -1.074 -17.157 -13.772  0.00  0.00    +0.000 HD
ATOM     15  H   UNL     1      -2.528 -16.461 -13.056  0.00  0.00    +0.000 HD
BRANCH  13  16
ATOM     16  C   UNL     1      -1.510 -17.877 -11.798  0.00  0.00    +0.000 C 
ATOM     17  H   UNL     1      -1.905 -18.808 -12.219  0.00  0.00    +0.000 HD
ATOM     18  H   UNL     1      -2.141 -17.593 -10.950  0.00  0.00    +0.000 HD
ATOM     19  H   UNL     1      -0.501 -18.071 -11.420  0.00  0.00    +0.000 HD
ENDBRANCH  13  16
ENDBRANCH  10  13
ENDBRANCH   7  10
ENDBRANCH   4   7
ENDBRANCH   1   4
BRANCH   1  20
ATOM     20  C   UNL     1      -0.326 -12.202  -9.203  0.00  0.00    +0.000 C 
ATOM     21  H   UNL     1       0.581 -12.413  -8.622  0.00  0.00    +0.000 HD
ATOM     22  H   UNL     1      -0.363 -11.118  -9.361  0.00  0.00    +0.000 HD
BRANCH  20  23
ATOM     23  C   UNL     1      -1.554 -12.649  -8.409  0.00  0.00    +0.000 C 
ATOM     24  H   UNL     1      -2.118 -13.390  -8.990  0.00  0.00    +0.000 HD
ATOM     25  H   UNL     1      -2.221 -11.791  -8.257  0.00  0.00    +0.000 HD
BRANCH  23  26
ATOM     26  C   UNL     1      -1.158 -13.241  -7.061  0.00  0.00    +0.000 C 
ATOM     27  H   UNL     1      -0.134 -13.626  -7.109  0.00  0.00    +0.000 HD
ATOM     28  H   UNL     1      -1.220 -12.474  -6.281  0.00  0.00    +0.000 HD
BRANCH  26  30
ATOM     29  O   UNL     1      -3.253 -14.219  -6.370  0.00  0.00    +0.000 OA
ATOM     30  C   UNL     1      -2.080 -14.373  -6.685  0.00  0.00    +0.000 C 
BRANCH  30  31
ATOM     31  O   UNL     1      -1.417 -15.561  -6.772  0.00  0.00    +0.000 OA
BRANCH  31  32
ATOM     32  C   UNL     1      -1.264 -16.085  -8.094  0.00  0.00    +0.000 C 
ATOM     33  H   UNL     1      -0.610 -16.964  -8.065  0.00  0.00    +0.000 HD
ATOM     34  H   UNL     1      -0.819 -15.322  -8.741  0.00  0.00    +0.000 HD
BRANCH  32  35
ATOM     35  C   UNL     1      -2.625 -16.479  -8.629  0.00  0.00    +0.000 C 
ATOM     36  H   UNL     1      -3.159 -15.599  -9.005  0.00  0.00    +0.000 HD
ATOM     37  H   UNL     1      -2.522 -17.171  -9.471  0.00  0.00    +0.000 HD
ATOM     38  H   UNL     1      -3.229 -16.954  -7.853  0.00  0.00    +0.000 HD
ENDBRANCH  32  35
ENDBRANCH  31  32
ENDBRANCH  30  31
ENDBRANCH  26  30
ENDBRANCH  23  26
ENDBRANCH  20  23
ENDBRANCH   1  20
TORSDOF 12
ENDMDL
