MODEL 1
REMARK VINA RESULT:    -4.262      0.000      0.000
REMARK INTER + INTRA:          -6.407
REMARK INTER:                  -6.217
REMARK INTRA:                  -0.189
REMARK UNBOUND:                -0.400
REMARK  Name = 31265
REMARK  8 active torsions:
REMARK  status: ('A' for Active; 'I' for Inactive)
REMARK    1  A    between atoms: O_1  and  C_8
REMARK    2  A    between atoms: O_1  and  C_9
REMARK    3  A    between atoms: C_3  and  C_4
REMARK    4  A    between atoms: C_3  and  C_5
REMARK    5  A    between atoms: C_4  and  C_6
REMARK    6  A    between atoms: C_5  and  C_7
REMARK    7  A    between atoms: C_6  and  C_8
REMARK    8  A    between atoms: C_9  and  C_10
REMARK                            x       y       z     vdW  Elec       q    Type
REMARK                         _______ _______ _______ _____ _____    ______ ____
ROOT
ATOM      1  C   UNL     1      10.902   6.712  -4.099  0.00  0.00    +0.000 C 
ATOM      2  H   UNL     1      10.220   5.983  -3.644  0.00  0.00    +0.000 HD
ATOM      3  H   UNL     1      11.121   6.344  -5.109  0.00  0.00    +0.000 HD
ENDROOT
BRANCH   1   4
ATOM      4  C   UNL     1      10.211   8.076  -4.192  0.00  0.00    +0.000 C 
ATOM      5  H   UNL     1      10.930   8.871  -3.961  0.00  0.00    +0.000 HD
ATOM      6  H   UNL     1       9.413   8.132  -3.442  0.00  0.00    +0.000 HD
BRANCH   4   7
ATOM      7  C   UNL     1       9.621   8.301  -5.584  0.00  0.00    +0.000 C 
ATOM      8  H   UNL     1       9.139   9.284  -5.630  0.00  0.00    +0.000 HD
ATOM      9  H   UNL     1      10.420   8.296  -6.335  0.00  0.00    +0.000 HD
BRANCH   7  10
ATOM     10  C   UNL     1       8.602   7.229  -5.938  0.00  0.00    +0.000 C 
ATOM     11  H   UNL     1       8.424   6.562  -5.088  0.00  0.00    +0.000 HD
ATOM     12  H   UNL     1       7.647   7.676  -6.230  0.00  0.00    +0.000 HD
ATOM     13  H   UNL     1       8.964   6.623  -6.774  0.00  0.00    +0.000 HD
ENDBRANCH   7  10
ENDBRANCH   4   7
ENDBRANCH   1   4
BRANCH   1  14
ATOM     14  C   UNL     1      12.196   6.767  -3.287  0.00  0.00    +0.000 C 
ATOM     15  H   UNL     1      12.114   7.544  -2.518  0.00  0.00    +0.000 HD
ATOM     16  H   UNL     1      12.356   5.800  -2.796  0.00  0.00    +0.000 HD
BRANCH  14  18
ATOM     17  O   UNL     1      13.782   8.193  -4.456  0.00  0.00    +0.000 OA
ATOM     18  C   UNL     1      13.415   7.073  -4.128  0.00  0.00    +0.000 C 
BRANCH  18  19
ATOM     19  O   UNL     1      14.015   5.899  -4.484  0.00  0.00    +0.000 OA
BRANCH  19  20
ATOM     20  C   UNL     1      14.920   5.979  -5.590  0.00  0.00    +0.000 C 
ATOM     21  H   UNL     1      14.353   5.953  -6.528  0.00  0.00    +0.000 HD
ATOM     22  H   UNL     1      15.485   6.915  -5.533  0.00  0.00    +0.000 HD
BRANCH  20  23
ATOM     23  C   UNL     1      15.871   4.803  -5.536  0.00  0.00    +0.000 C 
ATOM     24  H   UNL     1      15.348   3.890  -5.237  0.00  0.00    +0.000 HD
ATOM     25  H   UNL     1      16.337   4.639  -6.513  0.00  0.00    +0.000 HD
ATOM     26  H   UNL     1      16.682   4.994  -4.825  0.00  0.00    +0.000 HD
ENDBRANCH  20  23
ENDBRANCH  19  20
ENDBRANCH  18  19
ENDBRANCH  14  18
ENDBRANCH   1  14
TORSDOF 8
ENDMDL
MODEL 2
REMARK VINA RESULT:    -4.200      8.825      9.396
REMARK INTER + INTRA:          -6.320
REMARK INTER:                  -5.962
REMARK INTRA:                  -0.357
REMARK UNBOUND:                -0.400
REMARK  Name = 31265
REMARK  8 active torsions:
REMARK  status: ('A' for Active; 'I' for Inactive)
REMARK    1  A    between atoms: O_1  and  C_8
REMARK    2  A    between atoms: O_1  and  C_9
REMARK    3  A    between atoms: C_3  and  C_4
REMARK    4  A    between atoms: C_3  and  C_5
REMARK    5  A    between atoms: C_4  and  C_6
REMARK    6  A    between atoms: C_5  and  C_7
REMARK    7  A    between atoms: C_6  and  C_8
REMARK    8  A    between atoms: C_9  and  C_10
REMARK                            x       y       z     vdW  Elec       q    Type
REMARK                         _______ _______ _______ _____ _____    ______ ____
ROOT
ATOM      1  C   UNL     1       6.649   0.987  -2.821  0.00  0.00    +0.000 C 
ATOM      2  H   UNL     1       7.111   0.002  -2.961  0.00  0.00    +0.000 HD
ATOM      3  H   UNL     1       7.345   1.720  -3.247  0.00  0.00    +0.000 HD
ENDROOT
BRANCH   1   4
ATOM      4  C   UNL     1       5.319   1.045  -3.578  0.00  0.00    +0.000 C 
ATOM      5  H   UNL     1       5.041   2.091  -3.757  0.00  0.00    +0.000 HD
ATOM      6  H   UNL     1       4.528   0.600  -2.961  0.00  0.00    +0.000 HD
BRANCH   4   7
ATOM      7  C   UNL     1       5.409   0.300  -4.909  0.00  0.00    +0.000 C 
ATOM      8  H   UNL     1       4.432  -0.125  -5.165  0.00  0.00    +0.000 HD
ATOM      9  H   UNL     1       5.681   0.996  -5.711  0.00  0.00    +0.000 HD
BRANCH   7  10
ATOM     10  C   UNL     1       6.440  -0.817  -4.854  0.00  0.00    +0.000 C 
ATOM     11  H   UNL     1       7.447  -0.431  -5.044  0.00  0.00    +0.000 HD
ATOM     12  H   UNL     1       6.438  -1.304  -3.874  0.00  0.00    +0.000 HD
ATOM     13  H   UNL     1       6.219  -1.575  -5.611  0.00  0.00    +0.000 HD
ENDBRANCH   7  10
ENDBRANCH   4   7
ENDBRANCH   1   4
BRANCH   1  14
ATOM     14  C   UNL     1       6.482   1.257  -1.325  0.00  0.00    +0.000 C 
ATOM     15  H   UNL     1       6.864   2.256  -1.087  0.00  0.00    +0.000 HD
ATOM     16  H   UNL     1       5.417   1.215  -1.067  0.00  0.00    +0.000 HD
BRANCH  14  18
ATOM     17  O   UNL     1       6.835  -0.129   0.641  0.00  0.00    +0.000 OA
ATOM     18  C   UNL     1       7.214   0.261  -0.454  0.00  0.00    +0.000 C 
BRANCH  18  19
ATOM     19  O   UNL     1       8.376  -0.102  -1.074  0.00  0.00    +0.000 OA
BRANCH  19  20
ATOM     20  C   UNL     1       8.669  -1.502  -1.065  0.00  0.00    +0.000 C 
ATOM     21  H   UNL     1       9.460  -1.706  -0.334  0.00  0.00    +0.000 HD
ATOM     22  H   UNL     1       7.769  -2.063  -0.792  0.00  0.00    +0.000 HD
BRANCH  20  23
ATOM     23  C   UNL     1       9.130  -1.919  -2.445  0.00  0.00    +0.000 C 
ATOM     24  H   UNL     1       8.297  -1.918  -3.153  0.00  0.00    +0.000 HD
ATOM     25  H   UNL     1       9.906  -1.239  -2.814  0.00  0.00    +0.000 HD
ATOM     26  H   UNL     1       9.572  -2.920  -2.419  0.00  0.00    +0.000 HD
ENDBRANCH  20  23
ENDBRANCH  19  20
ENDBRANCH  18  19
ENDBRANCH  14  18
ENDBRANCH   1  14
TORSDOF 8
ENDMDL
MODEL 3
REMARK VINA RESULT:    -4.178      1.351      1.990
REMARK INTER + INTRA:          -6.288
REMARK INTER:                  -5.930
REMARK INTRA:                  -0.357
REMARK UNBOUND:                -0.400
REMARK  Name = 31265
REMARK  8 active torsions:
REMARK  status: ('A' for Active; 'I' for Inactive)
REMARK    1  A    between atoms: O_1  and  C_8
REMARK    2  A    between atoms: O_1  and  C_9
REMARK    3  A    between atoms: C_3  and  C_4
REMARK    4  A    between atoms: C_3  and  C_5
REMARK    5  A    between atoms: C_4  and  C_6
REMARK    6  A    between atoms: C_5  and  C_7
REMARK    7  A    between atoms: C_6  and  C_8
REMARK    8  A    between atoms: C_9  and  C_10
REMARK                            x       y       z     vdW  Elec       q    Type
REMARK                         _______ _______ _______ _____ _____    ______ ____
ROOT
ATOM      1  C   UNL     1       9.792   7.924  -3.147  0.00  0.00    +0.000 C 
ATOM      2  H   UNL     1       9.016   8.281  -2.459  0.00  0.00    +0.000 HD
ATOM      3  H   UNL     1       9.574   6.867  -3.340  0.00  0.00    +0.000 HD
ENDROOT
BRANCH   1   4
ATOM      4  C   UNL     1       9.718   8.709  -4.460  0.00  0.00    +0.000 C 
ATOM      5  H   UNL     1      10.575   9.389  -4.533  0.00  0.00    +0.000 HD
ATOM      6  H   UNL     1       8.812   9.327  -4.465  0.00  0.00    +0.000 HD
BRANCH   4   7
ATOM      7  C   UNL     1       9.702   7.767  -5.665  0.00  0.00    +0.000 C 
ATOM      8  H   UNL     1      10.080   8.290  -6.551  0.00  0.00    +0.000 HD
ATOM      9  H   UNL     1      10.366   6.915  -5.482  0.00  0.00    +0.000 HD
BRANCH   7  10
ATOM     10  C   UNL     1       8.300   7.251  -5.949  0.00  0.00    +0.000 C 
ATOM     11  H   UNL     1       8.204   6.199  -5.662  0.00  0.00    +0.000 HD
ATOM     12  H   UNL     1       7.550   7.828  -5.398  0.00  0.00    +0.000 HD
ATOM     13  H   UNL     1       8.075   7.333  -7.017  0.00  0.00    +0.000 HD
ENDBRANCH   7  10
ENDBRANCH   4   7
ENDBRANCH   1   4
BRANCH   1  14
ATOM     14  C   UNL     1      11.158   8.045  -2.470  0.00  0.00    +0.000 C 
ATOM     15  H   UNL     1      11.603   9.017  -2.712  0.00  0.00    +0.000 HD
ATOM     16  H   UNL     1      11.030   7.975  -1.383  0.00  0.00    +0.000 HD
BRANCH  14  18
ATOM     17  O   UNL     1      11.934   5.766  -2.814  0.00  0.00    +0.000 OA
ATOM     18  C   UNL     1      12.132   6.970  -2.897  0.00  0.00    +0.000 C 
BRANCH  18  19
ATOM     19  O   UNL     1      13.274   7.562  -3.356  0.00  0.00    +0.000 OA
BRANCH  19  20
ATOM     20  C   UNL     1      13.376   7.689  -4.778  0.00  0.00    +0.000 C 
ATOM     21  H   UNL     1      12.388   7.541  -5.229  0.00  0.00    +0.000 HD
ATOM     22  H   UNL     1      13.745   8.688  -5.031  0.00  0.00    +0.000 HD
BRANCH  20  23
ATOM     23  C   UNL     1      14.336   6.642  -5.299  0.00  0.00    +0.000 C 
ATOM     24  H   UNL     1      15.308   6.721  -4.804  0.00  0.00    +0.000 HD
ATOM     25  H   UNL     1      13.937   5.635  -5.133  0.00  0.00    +0.000 HD
ATOM     26  H   UNL     1      14.479   6.752  -6.379  0.00  0.00    +0.000 HD
ENDBRANCH  20  23
ENDBRANCH  19  20
ENDBRANCH  18  19
ENDBRANCH  14  18
ENDBRANCH   1  14
TORSDOF 8
ENDMDL
MODEL 4
REMARK VINA RESULT:    -4.131      9.142      9.935
REMARK INTER + INTRA:          -6.222
REMARK INTER:                  -5.983
REMARK INTRA:                  -0.239
REMARK UNBOUND:                -0.400
REMARK  Name = 31265
REMARK  8 active torsions:
REMARK  status: ('A' for Active; 'I' for Inactive)
REMARK    1  A    between atoms: O_1  and  C_8
REMARK    2  A    between atoms: O_1  and  C_9
REMARK    3  A    between atoms: C_3  and  C_4
REMARK    4  A    between atoms: C_3  and  C_5
REMARK    5  A    between atoms: C_4  and  C_6
REMARK    6  A    between atoms: C_5  and  C_7
REMARK    7  A    between atoms: C_6  and  C_8
REMARK    8  A    between atoms: C_9  and  C_10
REMARK                            x       y       z     vdW  Elec       q    Type
REMARK                         _______ _______ _______ _____ _____    ______ ____
ROOT
ATOM      1  C   UNL     1       6.849   0.881  -2.211  0.00  0.00    +0.000 C 
ATOM      2  H   UNL     1       7.829   0.720  -2.675  0.00  0.00    +0.000 HD
ATOM      3  H   UNL     1       6.899   1.855  -1.708  0.00  0.00    +0.000 HD
ENDROOT
BRANCH   1   4
ATOM      4  C   UNL     1       5.766   0.921  -3.294  0.00  0.00    +0.000 C 
ATOM      5  H   UNL     1       5.644   1.950  -3.655  0.00  0.00    +0.000 HD
ATOM      6  H   UNL     1       4.806   0.613  -2.862  0.00  0.00    +0.000 HD
BRANCH   4   7
ATOM      7  C   UNL     1       6.121   0.002  -4.463  0.00  0.00    +0.000 C 
ATOM      8  H   UNL     1       7.171   0.144  -4.743  0.00  0.00    +0.000 HD
ATOM      9  H   UNL     1       6.003  -1.046  -4.163  0.00  0.00    +0.000 HD
BRANCH   7  10
ATOM     10  C   UNL     1       5.240   0.273  -5.672  0.00  0.00    +0.000 C 
ATOM     11  H   UNL     1       5.842   0.565  -6.539  0.00  0.00    +0.000 HD
ATOM     12  H   UNL     1       4.658  -0.615  -5.941  0.00  0.00    +0.000 HD
ATOM     13  H   UNL     1       4.540   1.086  -5.456  0.00  0.00    +0.000 HD
ENDBRANCH   7  10
ENDBRANCH   4   7
ENDBRANCH   1   4
BRANCH   1  14
ATOM     14  C   UNL     1       6.596  -0.213  -1.173  0.00  0.00    +0.000 C 
ATOM     15  H   UNL     1       6.821   0.172  -0.172  0.00  0.00    +0.000 HD
ATOM     16  H   UNL     1       5.540  -0.508  -1.209  0.00  0.00    +0.000 HD
BRANCH  14  18
ATOM     17  O   UNL     1       7.090  -2.430  -2.040  0.00  0.00    +0.000 OA
ATOM     18  C   UNL     1       7.436  -1.451  -1.394  0.00  0.00    +0.000 C 
BRANCH  18  19
ATOM     19  O   UNL     1       8.622  -1.307  -0.732  0.00  0.00    +0.000 OA
BRANCH  19  20
ATOM     20  C   UNL     1       8.519  -0.898   0.635  0.00  0.00    +0.000 C 
ATOM     21  H   UNL     1       8.799   0.158   0.722  0.00  0.00    +0.000 HD
ATOM     22  H   UNL     1       7.489  -1.031   0.981  0.00  0.00    +0.000 HD
BRANCH  20  23
ATOM     23  C   UNL     1       9.453  -1.743   1.475  0.00  0.00    +0.000 C 
ATOM     24  H   UNL     1       9.920  -1.146   2.262  0.00  0.00    +0.000 HD
ATOM     25  H   UNL     1       8.910  -2.574   1.937  0.00  0.00    +0.000 HD
ATOM     26  H   UNL     1      10.239  -2.185   0.853  0.00  0.00    +0.000 HD
ENDBRANCH  20  23
ENDBRANCH  19  20
ENDBRANCH  18  19
ENDBRANCH  14  18
ENDBRANCH   1  14
TORSDOF 8
ENDMDL
MODEL 5
REMARK VINA RESULT:    -4.129      8.368      9.359
REMARK INTER + INTRA:          -6.219
REMARK INTER:                  -6.079
REMARK INTRA:                  -0.140
REMARK UNBOUND:                -0.400
REMARK  Name = 31265
REMARK  8 active torsions:
REMARK  status: ('A' for Active; 'I' for Inactive)
REMARK    1  A    between atoms: O_1  and  C_8
REMARK    2  A    between atoms: O_1  and  C_9
REMARK    3  A    between atoms: C_3  and  C_4
REMARK    4  A    between atoms: C_3  and  C_5
REMARK    5  A    between atoms: C_4  and  C_6
REMARK    6  A    between atoms: C_5  and  C_7
REMARK    7  A    between atoms: C_6  and  C_8
REMARK    8  A    between atoms: C_9  and  C_10
REMARK                            x       y       z     vdW  Elec       q    Type
REMARK                         _______ _______ _______ _____ _____    ______ ____
ROOT
ATOM      1  C   UNL     1       7.316   1.501  -0.242  0.00  0.00    +0.000 C 
ATOM      2  H   UNL     1       7.643   0.645   0.360  0.00  0.00    +0.000 HD
ATOM      3  H   UNL     1       6.272   1.694   0.033  0.00  0.00    +0.000 HD
ENDROOT
BRANCH   1   4
ATOM      4  C   UNL     1       8.168   2.728   0.100  0.00  0.00    +0.000 C 
ATOM      5  H   UNL     1       8.814   2.977  -0.751  0.00  0.00    +0.000 HD
ATOM      6  H   UNL     1       8.824   2.491   0.947  0.00  0.00    +0.000 HD
BRANCH   4   7
ATOM      7  C   UNL     1       7.291   3.929   0.452  0.00  0.00    +0.000 C 
ATOM      8  H   UNL     1       6.975   4.440  -0.464  0.00  0.00    +0.000 HD
ATOM      9  H   UNL     1       6.384   3.591   0.966  0.00  0.00    +0.000 HD
BRANCH   7  10
ATOM     10  C   UNL     1       8.028   4.914   1.345  0.00  0.00    +0.000 C 
ATOM     11  H   UNL     1       8.102   5.897   0.867  0.00  0.00    +0.000 HD
ATOM     12  H   UNL     1       7.515   5.036   2.304  0.00  0.00    +0.000 HD
ATOM     13  H   UNL     1       9.044   4.558   1.545  0.00  0.00    +0.000 HD
ENDBRANCH   7  10
ENDBRANCH   4   7
ENDBRANCH   1   4
BRANCH   1  14
ATOM     14  C   UNL     1       7.391   1.133  -1.724  0.00  0.00    +0.000 C 
ATOM     15  H   UNL     1       7.580   2.035  -2.317  0.00  0.00    +0.000 HD
ATOM     16  H   UNL     1       8.216   0.428  -1.880  0.00  0.00    +0.000 HD
BRANCH  14  18
ATOM     17  O   UNL     1       5.650  -0.561  -1.842  0.00  0.00    +0.000 OA
ATOM     18  C   UNL     1       6.123   0.493  -2.244  0.00  0.00    +0.000 C 
BRANCH  18  19
ATOM     19  O   UNL     1       5.617   1.264  -3.252  0.00  0.00    +0.000 OA
BRANCH  19  20
ATOM     20  C   UNL     1       4.998   0.548  -4.325  0.00  0.00    +0.000 C 
ATOM     21  H   UNL     1       4.337  -0.225  -3.916  0.00  0.00    +0.000 HD
ATOM     22  H   UNL     1       4.412   1.241  -4.937  0.00  0.00    +0.000 HD
BRANCH  20  23
ATOM     23  C   UNL     1       6.074  -0.097  -5.172  0.00  0.00    +0.000 C 
ATOM     24  H   UNL     1       5.641  -0.810  -5.879  0.00  0.00    +0.000 HD
ATOM     25  H   UNL     1       6.630   0.661  -5.733  0.00  0.00    +0.000 HD
ATOM     26  H   UNL     1       6.800  -0.621  -4.541  0.00  0.00    +0.000 HD
ENDBRANCH  20  23
ENDBRANCH  19  20
ENDBRANCH  18  19
ENDBRANCH  14  18
ENDBRANCH   1  14
TORSDOF 8
ENDMDL
MODEL 6
REMARK VINA RESULT:    -3.926     23.589     25.024
REMARK INTER + INTRA:          -5.932
REMARK INTER:                  -5.617
REMARK INTRA:                  -0.316
REMARK UNBOUND:                -0.400
REMARK  Name = 31265
REMARK  8 active torsions:
REMARK  status: ('A' for Active; 'I' for Inactive)
REMARK    1  A    between atoms: O_1  and  C_8
REMARK    2  A    between atoms: O_1  and  C_9
REMARK    3  A    between atoms: C_3  and  C_4
REMARK    4  A    between atoms: C_3  and  C_5
REMARK    5  A    between atoms: C_4  and  C_6
REMARK    6  A    between atoms: C_5  and  C_7
REMARK    7  A    between atoms: C_6  and  C_8
REMARK    8  A    between atoms: C_9  and  C_10
REMARK                            x       y       z     vdW  Elec       q    Type
REMARK                         _______ _______ _______ _____ _____    ______ ____
ROOT
ATOM      1  C   UNL     1      -0.662 -13.073 -10.361  0.00  0.00    +0.000 C 
ATOM      2  H   UNL     1      -1.703 -12.975 -10.694  0.00  0.00    +0.000 HD
ATOM      3  H   UNL     1      -0.545 -14.103 -10.003  0.00  0.00    +0.000 HD
ENDROOT
BRANCH   1   4
ATOM      4  C   UNL     1       0.281 -12.833 -11.544  0.00  0.00    +0.000 C 
ATOM      5  H   UNL     1       1.278 -13.222 -11.305  0.00  0.00    +0.000 HD
ATOM      6  H   UNL     1       0.385 -11.754 -11.714  0.00  0.00    +0.000 HD
BRANCH   4   7
ATOM      7  C   UNL     1      -0.244 -13.503 -12.813  0.00  0.00    +0.000 C 
ATOM      8  H   UNL     1      -0.604 -12.741 -13.514  0.00  0.00    +0.000 HD
ATOM      9  H   UNL     1       0.566 -14.047 -13.312  0.00  0.00    +0.000 HD
BRANCH   7  10
ATOM     10  C   UNL     1      -1.375 -14.472 -12.505  0.00  0.00    +0.000 C 
ATOM     11  H   UNL     1      -2.239 -14.285 -13.151  0.00  0.00    +0.000 HD
ATOM     12  H   UNL     1      -1.054 -15.508 -12.651  0.00  0.00    +0.000 HD
ATOM     13  H   UNL     1      -1.698 -14.359 -11.465  0.00  0.00    +0.000 HD
ENDBRANCH   7  10
ENDBRANCH   4   7
ENDBRANCH   1   4
BRANCH   1  14
ATOM     14  C   UNL     1      -0.410 -12.103  -9.206  0.00  0.00    +0.000 C 
ATOM     15  H   UNL     1       0.662 -11.887  -9.136  0.00  0.00    +0.000 HD
ATOM     16  H   UNL     1      -0.948 -11.167  -9.397  0.00  0.00    +0.000 HD
BRANCH  14  18
ATOM     17  O   UNL     1      -0.442 -12.269  -6.780  0.00  0.00    +0.000 OA
ATOM     18  C   UNL     1      -0.864 -12.639  -7.867  0.00  0.00    +0.000 C 
BRANCH  18  19
ATOM     19  O   UNL     1      -1.791 -13.621  -8.073  0.00  0.00    +0.000 OA
BRANCH  19  20
ATOM     20  C   UNL     1      -1.661 -14.777  -7.240  0.00  0.00    +0.000 C 
ATOM     21  H   UNL     1      -0.856 -14.615  -6.514  0.00  0.00    +0.000 HD
ATOM     22  H   UNL     1      -2.601 -14.952  -6.707  0.00  0.00    +0.000 HD
BRANCH  20  23
ATOM     23  C   UNL     1      -1.334 -15.975  -8.105  0.00  0.00    +0.000 C 
ATOM     24  H   UNL     1      -1.345 -15.707  -9.165  0.00  0.00    +0.000 HD
ATOM     25  H   UNL     1      -0.346 -16.375  -7.853  0.00  0.00    +0.000 HD
ATOM     26  H   UNL     1      -2.055 -16.782  -7.937  0.00  0.00    +0.000 HD
ENDBRANCH  20  23
ENDBRANCH  19  20
ENDBRANCH  18  19
ENDBRANCH  14  18
ENDBRANCH   1  14
TORSDOF 8
ENDMDL
MODEL 7
REMARK VINA RESULT:    -3.826     23.505     24.769
REMARK INTER + INTRA:          -5.792
REMARK INTER:                  -5.531
REMARK INTRA:                  -0.260
REMARK UNBOUND:                -0.400
REMARK  Name = 31265
REMARK  8 active torsions:
REMARK  status: ('A' for Active; 'I' for Inactive)
REMARK    1  A    between atoms: O_1  and  C_8
REMARK    2  A    between atoms: O_1  and  C_9
REMARK    3  A    between atoms: C_3  and  C_4
REMARK    4  A    between atoms: C_3  and  C_5
REMARK    5  A    between atoms: C_4  and  C_6
REMARK    6  A    between atoms: C_5  and  C_7
REMARK    7  A    between atoms: C_6  and  C_8
REMARK    8  A    between atoms: C_9  and  C_10
REMARK                            x       y       z     vdW  Elec       q    Type
REMARK                         _______ _______ _______ _____ _____    ______ ____
ROOT
ATOM      1  C   UNL     1      -0.639 -12.125  -9.319  0.00  0.00    +0.000 C 
ATOM      2  H   UNL     1      -1.228 -11.245  -9.604  0.00  0.00    +0.000 HD
ATOM      3  H   UNL     1       0.303 -12.064  -9.878  0.00  0.00    +0.000 HD
ENDROOT
BRANCH   1   4
ATOM      4  C   UNL     1      -0.344 -12.084  -7.816  0.00  0.00    +0.000 C 
ATOM      5  H   UNL     1      -0.533 -11.074  -7.431  0.00  0.00    +0.000 HD
ATOM      6  H   UNL     1       0.718 -12.302  -7.647  0.00  0.00    +0.000 HD
BRANCH   4   7
ATOM      7  C   UNL     1      -1.202 -13.096  -7.057  0.00  0.00    +0.000 C 
ATOM      8  H   UNL     1      -2.263 -12.850  -7.179  0.00  0.00    +0.000 HD
ATOM      9  H   UNL     1      -1.051 -14.099  -7.472  0.00  0.00    +0.000 HD
BRANCH   7  10
ATOM     10  C   UNL     1      -0.860 -13.116  -5.576  0.00  0.00    +0.000 C 
ATOM     11  H   UNL     1      -1.685 -12.716  -4.977  0.00  0.00    +0.000 HD
ATOM     12  H   UNL     1      -0.651 -14.135  -5.235  0.00  0.00    +0.000 HD
ATOM     13  H   UNL     1       0.027 -12.505  -5.383  0.00  0.00    +0.000 HD
ENDBRANCH   7  10
ENDBRANCH   4   7
ENDBRANCH   1   4
BRANCH   1  14
ATOM     14  C   UNL     1      -1.393 -13.390  -9.731  0.00  0.00    +0.000 C 
ATOM     15  H   UNL     1      -1.186 -14.191  -9.013  0.00  0.00    +0.000 HD
ATOM     16  H   UNL     1      -2.470 -13.184  -9.732  0.00  0.00    +0.000 HD
BRANCH  14  18
ATOM     17  O   UNL     1      -1.453 -14.899 -11.638  0.00  0.00    +0.000 OA
ATOM     18  C   UNL     1      -1.010 -13.890 -11.107  0.00  0.00    +0.000 C 
BRANCH  18  19
ATOM     19  O   UNL     1      -0.072 -13.052 -11.639  0.00  0.00    +0.000 OA
BRANCH  19  20
ATOM     20  C   UNL     1       0.336 -13.354 -12.977  0.00  0.00    +0.000 C 
ATOM     21  H   UNL     1      -0.415 -13.993 -13.453  0.00  0.00    +0.000 HD
ATOM     22  H   UNL     1       0.436 -12.424 -13.547  0.00  0.00    +0.000 HD
BRANCH  20  23
ATOM     23  C   UNL     1       1.667 -14.074 -12.936  0.00  0.00    +0.000 C 
ATOM     24  H   UNL     1       2.083 -14.070 -11.926  0.00  0.00    +0.000 HD
ATOM     25  H   UNL     1       1.554 -15.111 -13.268  0.00  0.00    +0.000 HD
ATOM     26  H   UNL     1       2.384 -13.600 -13.615  0.00  0.00    +0.000 HD
ENDBRANCH  20  23
ENDBRANCH  19  20
ENDBRANCH  18  19
ENDBRANCH  14  18
ENDBRANCH   1  14
TORSDOF 8
ENDMDL
MODEL 8
REMARK VINA RESULT:    -3.575      8.366      9.572
REMARK INTER + INTRA:          -5.438
REMARK INTER:                  -5.050
REMARK INTRA:                  -0.389
REMARK UNBOUND:                -0.400
REMARK  Name = 31265
REMARK  8 active torsions:
REMARK  status: ('A' for Active; 'I' for Inactive)
REMARK    1  A    between atoms: O_1  and  C_8
REMARK    2  A    between atoms: O_1  and  C_9
REMARK    3  A    between atoms: C_3  and  C_4
REMARK    4  A    between atoms: C_3  and  C_5
REMARK    5  A    between atoms: C_4  and  C_6
REMARK    6  A    between atoms: C_5  and  C_7
REMARK    7  A    between atoms: C_6  and  C_8
REMARK    8  A    between atoms: C_9  and  C_10
REMARK                            x       y       z     vdW  Elec       q    Type
REMARK                         _______ _______ _______ _____ _____    ______ ____
ROOT
ATOM      1  C   UNL     1       8.455   1.367  -0.511  0.00  0.00    +0.000 C 
ATOM      2  H   UNL     1       9.132   1.424  -1.372  0.00  0.00    +0.000 HD
ATOM      3  H   UNL     1       8.924   1.949   0.292  0.00  0.00    +0.000 HD
ENDROOT
BRANCH   1   4
ATOM      4  C   UNL     1       7.105   1.993  -0.874  0.00  0.00    +0.000 C 
ATOM      5  H   UNL     1       6.348   1.205  -0.972  0.00  0.00    +0.000 HD
ATOM      6  H   UNL     1       7.184   2.490  -1.849  0.00  0.00    +0.000 HD
BRANCH   4   7
ATOM      7  C   UNL     1       6.664   3.005   0.183  0.00  0.00    +0.000 C 
ATOM      8  H   UNL     1       5.670   3.393  -0.066  0.00  0.00    +0.000 HD
ATOM      9  H   UNL     1       6.588   2.517   1.161  0.00  0.00    +0.000 HD
BRANCH   7  10
ATOM     10  C   UNL     1       7.642   4.165   0.284  0.00  0.00    +0.000 C 
ATOM     11  H   UNL     1       7.142   5.119   0.080  0.00  0.00    +0.000 HD
ATOM     12  H   UNL     1       8.087   4.218   1.283  0.00  0.00    +0.000 HD
ATOM     13  H   UNL     1       8.451   4.044  -0.443  0.00  0.00    +0.000 HD
ENDBRANCH   7  10
ENDBRANCH   4   7
ENDBRANCH   1   4
BRANCH   1  14
ATOM     14  C   UNL     1       8.323  -0.091  -0.070  0.00  0.00    +0.000 C 
ATOM     15  H   UNL     1       9.103  -0.324   0.665  0.00  0.00    +0.000 HD
ATOM     16  H   UNL     1       7.342  -0.240   0.397  0.00  0.00    +0.000 HD
BRANCH  14  18
ATOM     17  O   UNL     1       9.410  -1.151  -1.970  0.00  0.00    +0.000 OA
ATOM     18  C   UNL     1       8.453  -1.074  -1.212  0.00  0.00    +0.000 C 
BRANCH  18  19
ATOM     19  O   UNL     1       7.319  -1.833  -1.276  0.00  0.00    +0.000 OA
BRANCH  19  20
ATOM     20  C   UNL     1       6.583  -1.740  -2.499  0.00  0.00    +0.000 C 
ATOM     21  H   UNL     1       7.209  -1.273  -3.268  0.00  0.00    +0.000 HD
ATOM     22  H   UNL     1       6.291  -2.743  -2.828  0.00  0.00    +0.000 HD
BRANCH  20  23
ATOM     23  C   UNL     1       5.346  -0.898  -2.268  0.00  0.00    +0.000 C 
ATOM     24  H   UNL     1       4.735  -1.313  -1.462  0.00  0.00    +0.000 HD
ATOM     25  H   UNL     1       5.622   0.130  -2.009  0.00  0.00    +0.000 HD
ATOM     26  H   UNL     1       4.740  -0.844  -3.178  0.00  0.00    +0.000 HD
ENDBRANCH  20  23
ENDBRANCH  19  20
ENDBRANCH  18  19
ENDBRANCH  14  18
ENDBRANCH   1  14
TORSDOF 8
ENDMDL
MODEL 9
REMARK VINA RESULT:    -3.563     23.806     25.278
REMARK INTER + INTRA:          -5.421
REMARK INTER:                  -5.134
REMARK INTRA:                  -0.287
REMARK UNBOUND:                -0.400
REMARK  Name = 31265
REMARK  8 active torsions:
REMARK  status: ('A' for Active; 'I' for Inactive)
REMARK    1  A    between atoms: O_1  and  C_8
REMARK    2  A    between atoms: O_1  and  C_9
REMARK    3  A    between atoms: C_3  and  C_4
REMARK    4  A    between atoms: C_3  and  C_5
REMARK    5  A    between atoms: C_4  and  C_6
REMARK    6  A    between atoms: C_5  and  C_7
REMARK    7  A    between atoms: C_6  and  C_8
REMARK    8  A    between atoms: C_9  and  C_10
REMARK                            x       y       z     vdW  Elec       q    Type
REMARK                         _______ _______ _______ _____ _____    ______ ____
ROOT
ATOM      1  C   UNL     1      -1.240 -12.979  -9.363  0.00  0.00    +0.000 C 
ATOM      2  H   UNL     1      -0.889 -12.493  -8.445  0.00  0.00    +0.000 HD
ATOM      3  H   UNL     1      -2.181 -12.486  -9.635  0.00  0.00    +0.000 HD
ENDROOT
BRANCH   1   4
ATOM      4  C   UNL     1      -0.214 -12.773 -10.481  0.00  0.00    +0.000 C 
ATOM      5  H   UNL     1       0.778 -13.086 -10.133  0.00  0.00    +0.000 HD
ATOM      6  H   UNL     1      -0.150 -11.705 -10.724  0.00  0.00    +0.000 HD
BRANCH   4   7
ATOM      7  C   UNL     1      -0.596 -13.562 -11.733  0.00  0.00    +0.000 C 
ATOM      8  H   UNL     1      -0.494 -14.636 -11.542  0.00  0.00    +0.000 HD
ATOM      9  H   UNL     1      -1.645 -13.374 -11.988  0.00  0.00    +0.000 HD
BRANCH   7  10
ATOM     10  C   UNL     1       0.277 -13.181 -12.919  0.00  0.00    +0.000 C 
ATOM     11  H   UNL     1       0.594 -12.135 -12.852  0.00  0.00    +0.000 HD
ATOM     12  H   UNL     1       1.172 -13.809 -12.965  0.00  0.00    +0.000 HD
ATOM     13  H   UNL     1      -0.277 -13.308 -13.854  0.00  0.00    +0.000 HD
ENDBRANCH   7  10
ENDBRANCH   4   7
ENDBRANCH   1   4
BRANCH   1  14
ATOM     14  C   UNL     1      -1.506 -14.458  -9.079  0.00  0.00    +0.000 C 
ATOM     15  H   UNL     1      -2.273 -14.832  -9.766  0.00  0.00    +0.000 HD
ATOM     16  H   UNL     1      -0.582 -15.027  -9.237  0.00  0.00    +0.000 HD
BRANCH  14  18
ATOM     17  O   UNL     1      -2.363 -15.799  -7.240  0.00  0.00    +0.000 OA
ATOM     18  C   UNL     1      -1.980 -14.719  -7.667  0.00  0.00    +0.000 C 
BRANCH  18  19
ATOM     19  O   UNL     1      -1.942 -13.549  -6.962  0.00  0.00    +0.000 OA
BRANCH  19  20
ATOM     20  C   UNL     1      -1.324 -13.625  -5.674  0.00  0.00    +0.000 C 
ATOM     21  H   UNL     1      -2.094 -13.570  -4.896  0.00  0.00    +0.000 HD
ATOM     22  H   UNL     1      -0.783 -14.572  -5.583  0.00  0.00    +0.000 HD
BRANCH  20  23
ATOM     23  C   UNL     1      -0.360 -12.468  -5.520  0.00  0.00    +0.000 C 
ATOM     24  H   UNL     1      -0.586 -11.673  -6.235  0.00  0.00    +0.000 HD
ATOM     25  H   UNL     1      -0.410 -12.056  -4.507  0.00  0.00    +0.000 HD
ATOM     26  H   UNL     1       0.671 -12.802  -5.676  0.00  0.00    +0.000 HD
ENDBRANCH  20  23
ENDBRANCH  19  20
ENDBRANCH  18  19
ENDBRANCH  14  18
ENDBRANCH   1  14
TORSDOF 8
ENDMDL
MODEL 10
REMARK VINA RESULT:    -3.515     27.256     28.365
REMARK INTER + INTRA:          -5.354
REMARK INTER:                  -4.954
REMARK INTRA:                  -0.400
REMARK UNBOUND:                -0.400
REMARK  Name = 31265
REMARK  8 active torsions:
REMARK  status: ('A' for Active; 'I' for Inactive)
REMARK    1  A    between atoms: O_1  and  C_8
REMARK    2  A    between atoms: O_1  and  C_9
REMARK    3  A    between atoms: C_3  and  C_4
REMARK    4  A    between atoms: C_3  and  C_5
REMARK    5  A    between atoms: C_4  and  C_6
REMARK    6  A    between atoms: C_5  and  C_7
REMARK    7  A    between atoms: C_6  and  C_8
REMARK    8  A    between atoms: C_9  and  C_10
REMARK                            x       y       z     vdW  Elec       q    Type
REMARK                         _______ _______ _______ _____ _____    ______ ____
ROOT
ATOM      1  C   UNL     1       6.411  -9.692 -24.687  0.00  0.00    +0.000 C 
ATOM      2  H   UNL     1       6.815  -8.744 -24.311  0.00  0.00    +0.000 HD
ATOM      3  H   UNL     1       6.506 -10.416 -23.869  0.00  0.00    +0.000 HD
ENDROOT
BRANCH   1   4
ATOM      4  C   UNL     1       4.932  -9.516 -25.045  0.00  0.00    +0.000 C 
ATOM      5  H   UNL     1       4.785  -9.713 -26.114  0.00  0.00    +0.000 HD
ATOM      6  H   UNL     1       4.634  -8.476 -24.862  0.00  0.00    +0.000 HD
BRANCH   4   7
ATOM      7  C   UNL     1       4.050 -10.453 -24.220  0.00  0.00    +0.000 C 
ATOM      8  H   UNL     1       3.557 -11.177 -24.880  0.00  0.00    +0.000 HD
ATOM      9  H   UNL     1       4.666 -11.023 -23.515  0.00  0.00    +0.000 HD
BRANCH   7  10
ATOM     10  C   UNL     1       2.993  -9.684 -23.444  0.00  0.00    +0.000 C 
ATOM     11  H   UNL     1       2.315 -10.367 -22.922  0.00  0.00    +0.000 HD
ATOM     12  H   UNL     1       3.453  -9.023 -22.703  0.00  0.00    +0.000 HD
ATOM     13  H   UNL     1       2.396  -9.068 -24.124  0.00  0.00    +0.000 HD
ENDBRANCH   7  10
ENDBRANCH   4   7
ENDBRANCH   1   4
BRANCH   1  14
ATOM     14  C   UNL     1       7.249 -10.160 -25.878  0.00  0.00    +0.000 C 
ATOM     15  H   UNL     1       7.109  -9.471 -26.718  0.00  0.00    +0.000 HD
ATOM     16  H   UNL     1       8.308 -10.162 -25.595  0.00  0.00    +0.000 HD
BRANCH  14  18
ATOM     17  O   UNL     1       6.544 -11.839 -27.489  0.00  0.00    +0.000 OA
ATOM     18  C   UNL     1       6.888 -11.549 -26.352  0.00  0.00    +0.000 C 
BRANCH  18  19
ATOM     19  O   UNL     1       6.976 -12.415 -25.298  0.00  0.00    +0.000 OA
BRANCH  19  20
ATOM     20  C   UNL     1       6.427 -13.717 -25.522  0.00  0.00    +0.000 C 
ATOM     21  H   UNL     1       6.448 -13.944 -26.594  0.00  0.00    +0.000 HD
ATOM     22  H   UNL     1       7.020 -14.462 -24.981  0.00  0.00    +0.000 HD
BRANCH  20  23
ATOM     23  C   UNL     1       4.998 -13.741 -25.023  0.00  0.00    +0.000 C 
ATOM     24  H   UNL     1       4.357 -14.314 -25.699  0.00  0.00    +0.000 HD
ATOM     25  H   UNL     1       4.945 -14.189 -24.025  0.00  0.00    +0.000 HD
ATOM     26  H   UNL     1       4.601 -12.724 -24.937  0.00  0.00    +0.000 HD
ENDBRANCH  20  23
ENDBRANCH  19  20
ENDBRANCH  18  19
ENDBRANCH  14  18
ENDBRANCH   1  14
TORSDOF 8
ENDMDL
