MODEL 1
REMARK VINA RESULT:    -5.265      0.000      0.000
REMARK INTER + INTRA:          -6.725
REMARK INTER:                  -6.475
REMARK INTRA:                  -0.250
REMARK UNBOUND:                -0.230
REMARK  Name = 3314
REMARK  5 active torsions:
REMARK  status: ('A' for Active; 'I' for Inactive)
REMARK    1  A    between atoms: O_1  and  C_6
REMARK    2  A    between atoms: O_1  and  C_11
REMARK    3  A    between atoms: O_2  and  C_8
REMARK    4  A    between atoms: C_3  and  C_4
REMARK    5  A    between atoms: C_4  and  C_10
REMARK                            x       y       z     vdW  Elec       q    Type
REMARK                         _______ _______ _______ _____ _____    ______ ____
ROOT
ATOM      1  C   UNL     1      11.591   6.733  -2.877  0.00  0.00    +0.000 A 
ATOM      2  C   UNL     1      12.486   5.712  -3.201  0.00  0.00    +0.000 A 
ATOM      3  C   UNL     1      13.502   5.943  -4.128  0.00  0.00    +0.000 A 
ATOM      4  C   UNL     1      11.713   7.984  -3.481  0.00  0.00    +0.000 A 
ATOM      5  C   UNL     1      13.623   7.195  -4.731  0.00  0.00    +0.000 A 
ATOM      6  C   UNL     1      12.730   8.216  -4.407  0.00  0.00    +0.000 A 
ATOM      7  H   UNL     1      12.396   4.734  -2.734  0.00  0.00    +0.000 HD
ATOM      8  H   UNL     1      11.023   8.788  -3.235  0.00  0.00    +0.000 HD
ATOM      9  H   UNL     1      12.813   9.196  -4.869  0.00  0.00    +0.000 HD
ENDROOT
BRANCH   1  10
ATOM     10  C   UNL     1      10.506   6.485  -1.885  0.00  0.00    +0.000 C 
ATOM     11  H   UNL     1       9.827   5.709  -2.264  0.00  0.00    +0.000 HD
ATOM     12  H   UNL     1      10.935   6.062  -0.967  0.00  0.00    +0.000 HD
BRANCH  10  13
ATOM     13  C   UNL     1       9.694   7.717  -1.577  0.00  0.00    +0.000 C 
ATOM     14  C   UNL     1       9.695   8.341  -0.394  0.00  0.00    +0.000 C 
ATOM     15  H   UNL     1       9.059   8.107  -2.369  0.00  0.00    +0.000 HD
ATOM     16  H   UNL     1       9.080   9.220  -0.236  0.00  0.00    +0.000 HD
ATOM     17  H   UNL     1      10.303   7.990   0.431  0.00  0.00    +0.000 HD
ENDBRANCH  10  13
ENDBRANCH   1  10
BRANCH   5  18
ATOM     18  O   UNL     1      14.611   7.433  -5.639  0.00  0.00    +0.000 OA
ATOM     19  H   UNL     1      15.149   8.184  -5.333  0.00  0.00    +0.000 HD
ENDBRANCH   5  18
BRANCH   3  20
ATOM     20  O   UNL     1      14.369   4.940  -4.437  0.00  0.00    +0.000 OA
BRANCH  20  21
ATOM     21  C   UNL     1      13.824   3.783  -5.067  0.00  0.00    +0.000 C 
ATOM     22  H   UNL     1      12.893   3.481  -4.576  0.00  0.00    +0.000 HD
ATOM     23  H   UNL     1      14.543   2.958  -5.048  0.00  0.00    +0.000 HD
ATOM     24  H   UNL     1      13.605   4.031  -6.110  0.00  0.00    +0.000 HD
ENDBRANCH  20  21
ENDBRANCH   3  20
TORSDOF 5
ENDMDL
MODEL 2
REMARK VINA RESULT:    -5.237     23.443     25.204
REMARK INTER + INTRA:          -6.691
REMARK INTER:                  -6.447
REMARK INTRA:                  -0.245
REMARK UNBOUND:                -0.230
REMARK  Name = 3314
REMARK  5 active torsions:
REMARK  status: ('A' for Active; 'I' for Inactive)
REMARK    1  A    between atoms: O_1  and  C_6
REMARK    2  A    between atoms: O_1  and  C_11
REMARK    3  A    between atoms: O_2  and  C_8
REMARK    4  A    between atoms: C_3  and  C_4
REMARK    5  A    between atoms: C_4  and  C_10
REMARK                            x       y       z     vdW  Elec       q    Type
REMARK                         _______ _______ _______ _____ _____    ______ ____
ROOT
ATOM      1  C   UNL     1      -1.042 -13.448  -9.694  0.00  0.00    +0.000 A 
ATOM      2  C   UNL     1      -1.609 -14.325  -8.769  0.00  0.00    +0.000 A 
ATOM      3  C   UNL     1      -1.540 -14.041  -7.405  0.00  0.00    +0.000 A 
ATOM      4  C   UNL     1      -0.406 -12.287  -9.255  0.00  0.00    +0.000 A 
ATOM      5  C   UNL     1      -0.905 -12.879  -6.967  0.00  0.00    +0.000 A 
ATOM      6  C   UNL     1      -0.338 -12.001  -7.892  0.00  0.00    +0.000 A 
ATOM      7  H   UNL     1      -2.106 -15.233  -9.104  0.00  0.00    +0.000 HD
ATOM      8  H   UNL     1       0.038 -11.595  -9.967  0.00  0.00    +0.000 HD
ATOM      9  H   UNL     1       0.159 -11.093  -7.564  0.00  0.00    +0.000 HD
ENDROOT
BRANCH   1  10
ATOM     10  C   UNL     1      -1.117 -13.754 -11.152  0.00  0.00    +0.000 C 
ATOM     11  H   UNL     1      -1.057 -14.839 -11.307  0.00  0.00    +0.000 HD
ATOM     12  H   UNL     1      -2.102 -13.465 -11.539  0.00  0.00    +0.000 HD
BRANCH  10  13
ATOM     13  C   UNL     1      -0.017 -13.099 -11.949  0.00  0.00    +0.000 C 
ATOM     14  C   UNL     1       0.849 -13.764 -12.721  0.00  0.00    +0.000 C 
ATOM     15  H   UNL     1       0.079 -12.018 -11.873  0.00  0.00    +0.000 HD
ATOM     16  H   UNL     1       1.623 -13.231 -13.263  0.00  0.00    +0.000 HD
ATOM     17  H   UNL     1       0.803 -14.841 -12.827  0.00  0.00    +0.000 HD
ENDBRANCH  10  13
ENDBRANCH   1  10
BRANCH   5  18
ATOM     18  O   UNL     1      -0.830 -12.590  -5.638  0.00  0.00    +0.000 OA
ATOM     19  H   UNL     1      -1.675 -12.821  -5.214  0.00  0.00    +0.000 HD
ENDBRANCH   5  18
BRANCH   3  20
ATOM     20  O   UNL     1      -2.097 -14.904  -6.511  0.00  0.00    +0.000 OA
BRANCH  20  21
ATOM     21  C   UNL     1      -3.503 -14.802  -6.300  0.00  0.00    +0.000 C 
ATOM     22  H   UNL     1      -3.934 -14.037  -6.953  0.00  0.00    +0.000 HD
ATOM     23  H   UNL     1      -3.720 -14.567  -5.253  0.00  0.00    +0.000 HD
ATOM     24  H   UNL     1      -3.957 -15.767  -6.542  0.00  0.00    +0.000 HD
ENDBRANCH  20  21
ENDBRANCH   3  20
TORSDOF 5
ENDMDL
MODEL 3
REMARK VINA RESULT:    -5.060     23.842     25.344
REMARK INTER + INTRA:          -6.473
REMARK INTER:                  -6.242
REMARK INTRA:                  -0.231
REMARK UNBOUND:                -0.230
REMARK  Name = 3314
REMARK  5 active torsions:
REMARK  status: ('A' for Active; 'I' for Inactive)
REMARK    1  A    between atoms: O_1  and  C_6
REMARK    2  A    between atoms: O_1  and  C_11
REMARK    3  A    between atoms: O_2  and  C_8
REMARK    4  A    between atoms: C_3  and  C_4
REMARK    5  A    between atoms: C_4  and  C_10
REMARK                            x       y       z     vdW  Elec       q    Type
REMARK                         _______ _______ _______ _____ _____    ______ ____
ROOT
ATOM      1  C   UNL     1      -1.131 -13.516  -9.014  0.00  0.00    +0.000 A 
ATOM      2  C   UNL     1      -1.548 -14.592  -9.798  0.00  0.00    +0.000 A 
ATOM      3  C   UNL     1      -1.185 -14.658 -11.143  0.00  0.00    +0.000 A 
ATOM      4  C   UNL     1      -0.351 -12.505  -9.575  0.00  0.00    +0.000 A 
ATOM      5  C   UNL     1      -0.405 -13.647 -11.704  0.00  0.00    +0.000 A 
ATOM      6  C   UNL     1       0.013 -12.571 -10.920  0.00  0.00    +0.000 A 
ATOM      7  H   UNL     1      -2.157 -15.383  -9.366  0.00  0.00    +0.000 HD
ATOM      8  H   UNL     1      -0.018 -11.663  -8.975  0.00  0.00    +0.000 HD
ATOM      9  H   UNL     1       0.622 -11.777 -11.344  0.00  0.00    +0.000 HD
ENDROOT
BRANCH   1  10
ATOM     10  C   UNL     1      -1.520 -13.448  -7.576  0.00  0.00    +0.000 C 
ATOM     11  H   UNL     1      -2.573 -13.150  -7.490  0.00  0.00    +0.000 HD
ATOM     12  H   UNL     1      -1.472 -14.451  -7.133  0.00  0.00    +0.000 HD
BRANCH  10  13
ATOM     13  C   UNL     1      -0.685 -12.474  -6.784  0.00  0.00    +0.000 C 
ATOM     14  C   UNL     1      -0.404 -12.610  -5.484  0.00  0.00    +0.000 C 
ATOM     15  H   UNL     1      -0.304 -11.601  -7.309  0.00  0.00    +0.000 HD
ATOM     16  H   UNL     1       0.198 -11.867  -4.971  0.00  0.00    +0.000 HD
ATOM     17  H   UNL     1      -0.764 -13.456  -4.911  0.00  0.00    +0.000 HD
ENDBRANCH  10  13
ENDBRANCH   1  10
BRANCH   5  18
ATOM     18  O   UNL     1      -0.044 -13.698 -13.017  0.00  0.00    +0.000 OA
ATOM     19  H   UNL     1       0.141 -14.622 -13.259  0.00  0.00    +0.000 HD
ENDBRANCH   5  18
BRANCH   3  20
ATOM     20  O   UNL     1      -1.598 -15.713 -11.899  0.00  0.00    +0.000 OA
BRANCH  20  21
ATOM     21  C   UNL     1      -1.285 -17.017 -11.418  0.00  0.00    +0.000 C 
ATOM     22  H   UNL     1      -0.341 -17.005 -10.863  0.00  0.00    +0.000 HD
ATOM     23  H   UNL     1      -1.224 -17.730 -12.246  0.00  0.00    +0.000 HD
ATOM     24  H   UNL     1      -2.084 -17.335 -10.742  0.00  0.00    +0.000 HD
ENDBRANCH  20  21
ENDBRANCH   3  20
TORSDOF 5
ENDMDL
MODEL 4
REMARK VINA RESULT:    -4.595     10.775     12.231
REMARK INTER + INTRA:          -5.899
REMARK INTER:                  -5.666
REMARK INTRA:                  -0.233
REMARK UNBOUND:                -0.230
REMARK  Name = 3314
REMARK  5 active torsions:
REMARK  status: ('A' for Active; 'I' for Inactive)
REMARK    1  A    between atoms: O_1  and  C_6
REMARK    2  A    between atoms: O_1  and  C_11
REMARK    3  A    between atoms: O_2  and  C_8
REMARK    4  A    between atoms: C_3  and  C_4
REMARK    5  A    between atoms: C_4  and  C_10
REMARK                            x       y       z     vdW  Elec       q    Type
REMARK                         _______ _______ _______ _____ _____    ______ ____
ROOT
ATOM      1  C   UNL     1       9.680  -0.357   5.377  0.00  0.00    +0.000 A 
ATOM      2  C   UNL     1       9.994  -0.871   4.118  0.00  0.00    +0.000 A 
ATOM      3  C   UNL     1       9.385  -2.044   3.672  0.00  0.00    +0.000 A 
ATOM      4  C   UNL     1       8.758  -1.018   6.190  0.00  0.00    +0.000 A 
ATOM      5  C   UNL     1       8.462  -2.703   4.484  0.00  0.00    +0.000 A 
ATOM      6  C   UNL     1       8.149  -2.190   5.743  0.00  0.00    +0.000 A 
ATOM      7  H   UNL     1      10.712  -0.361   3.480  0.00  0.00    +0.000 HD
ATOM      8  H   UNL     1       8.504  -0.627   7.172  0.00  0.00    +0.000 HD
ATOM      9  H   UNL     1       7.432  -2.694   6.386  0.00  0.00    +0.000 HD
ENDROOT
BRANCH   1  10
ATOM     10  C   UNL     1      10.331   0.897   5.853  0.00  0.00    +0.000 C 
ATOM     11  H   UNL     1      11.405   0.867   5.625  0.00  0.00    +0.000 HD
ATOM     12  H   UNL     1       9.943   1.752   5.285  0.00  0.00    +0.000 HD
BRANCH  10  13
ATOM     13  C   UNL     1      10.167   1.121   7.335  0.00  0.00    +0.000 C 
ATOM     14  C   UNL     1      10.283   2.312   7.932  0.00  0.00    +0.000 C 
ATOM     15  H   UNL     1       9.957   0.250   7.952  0.00  0.00    +0.000 HD
ATOM     16  H   UNL     1      10.161   2.403   9.005  0.00  0.00    +0.000 HD
ATOM     17  H   UNL     1      10.500   3.211   7.366  0.00  0.00    +0.000 HD
ENDBRANCH  10  13
ENDBRANCH   1  10
BRANCH   5  18
ATOM     18  O   UNL     1       7.862  -3.850   4.060  0.00  0.00    +0.000 OA
ATOM     19  H   UNL     1       6.938  -3.856   4.365  0.00  0.00    +0.000 HD
ENDBRANCH   5  18
BRANCH   3  20
ATOM     20  O   UNL     1       9.699  -2.535   2.441  0.00  0.00    +0.000 OA
BRANCH  20  21
ATOM     21  C   UNL     1       9.353  -1.732   1.314  0.00  0.00    +0.000 C 
ATOM     22  H   UNL     1       9.420  -0.669   1.566  0.00  0.00    +0.000 HD
ATOM     23  H   UNL     1       8.345  -1.973   0.964  0.00  0.00    +0.000 HD
ATOM     24  H   UNL     1      10.063  -1.947   0.510  0.00  0.00    +0.000 HD
ENDBRANCH  20  21
ENDBRANCH   3  20
TORSDOF 5
ENDMDL
MODEL 5
REMARK VINA RESULT:    -4.562     12.437     13.453
REMARK INTER + INTRA:          -5.858
REMARK INTER:                  -5.653
REMARK INTRA:                  -0.205
REMARK UNBOUND:                -0.230
REMARK  Name = 3314
REMARK  5 active torsions:
REMARK  status: ('A' for Active; 'I' for Inactive)
REMARK    1  A    between atoms: O_1  and  C_6
REMARK    2  A    between atoms: O_1  and  C_11
REMARK    3  A    between atoms: O_2  and  C_8
REMARK    4  A    between atoms: C_3  and  C_4
REMARK    5  A    between atoms: C_4  and  C_10
REMARK                            x       y       z     vdW  Elec       q    Type
REMARK                         _______ _______ _______ _____ _____    ______ ____
ROOT
ATOM      1  C   UNL     1       3.724  13.363 -10.571  0.00  0.00    +0.000 A 
ATOM      2  C   UNL     1       4.541  13.882 -11.576  0.00  0.00    +0.000 A 
ATOM      3  C   UNL     1       4.663  13.210 -12.792  0.00  0.00    +0.000 A 
ATOM      4  C   UNL     1       3.032  12.170 -10.782  0.00  0.00    +0.000 A 
ATOM      5  C   UNL     1       3.970  12.019 -13.003  0.00  0.00    +0.000 A 
ATOM      6  C   UNL     1       3.153  11.499 -11.998  0.00  0.00    +0.000 A 
ATOM      7  H   UNL     1       5.083  14.811 -11.418  0.00  0.00    +0.000 HD
ATOM      8  H   UNL     1       2.391  11.756 -10.007  0.00  0.00    +0.000 HD
ATOM      9  H   UNL     1       2.607  10.572 -12.149  0.00  0.00    +0.000 HD
ENDROOT
BRANCH   1  10
ATOM     10  C   UNL     1       3.594  14.082  -9.271  0.00  0.00    +0.000 C 
ATOM     11  H   UNL     1       2.715  14.740  -9.298  0.00  0.00    +0.000 HD
ATOM     12  H   UNL     1       3.385  13.362  -8.470  0.00  0.00    +0.000 HD
BRANCH  10  13
ATOM     13  C   UNL     1       4.802  14.918  -8.936  0.00  0.00    +0.000 C 
ATOM     14  C   UNL     1       5.462  14.852  -7.774  0.00  0.00    +0.000 C 
ATOM     15  H   UNL     1       5.143  15.627  -9.686  0.00  0.00    +0.000 HD
ATOM     16  H   UNL     1       6.321  15.489  -7.593  0.00  0.00    +0.000 HD
ATOM     17  H   UNL     1       5.161  14.169  -6.989  0.00  0.00    +0.000 HD
ENDBRANCH  10  13
ENDBRANCH   1  10
BRANCH   5  18
ATOM     18  O   UNL     1       4.082  11.352 -14.186  0.00  0.00    +0.000 OA
ATOM     19  H   UNL     1       4.640  10.566 -14.055  0.00  0.00    +0.000 HD
ENDBRANCH   5  18
BRANCH   3  20
ATOM     20  O   UNL     1       5.463  13.727 -13.766  0.00  0.00    +0.000 OA
BRANCH  20  21
ATOM     21  C   UNL     1       5.928  15.062 -13.583  0.00  0.00    +0.000 C 
ATOM     22  H   UNL     1       5.344  15.569 -12.808  0.00  0.00    +0.000 HD
ATOM     23  H   UNL     1       5.873  15.622 -14.521  0.00  0.00    +0.000 HD
ATOM     24  H   UNL     1       6.973  15.020 -13.262  0.00  0.00    +0.000 HD
ENDBRANCH  20  21
ENDBRANCH   3  20
TORSDOF 5
ENDMDL
MODEL 6
REMARK VINA RESULT:    -4.418     12.121     13.081
REMARK INTER + INTRA:          -5.681
REMARK INTER:                  -5.456
REMARK INTRA:                  -0.225
REMARK UNBOUND:                -0.230
REMARK  Name = 3314
REMARK  5 active torsions:
REMARK  status: ('A' for Active; 'I' for Inactive)
REMARK    1  A    between atoms: O_1  and  C_6
REMARK    2  A    between atoms: O_1  and  C_11
REMARK    3  A    between atoms: O_2  and  C_8
REMARK    4  A    between atoms: C_3  and  C_4
REMARK    5  A    between atoms: C_4  and  C_10
REMARK                            x       y       z     vdW  Elec       q    Type
REMARK                         _______ _______ _______ _____ _____    ______ ____
ROOT
ATOM      1  C   UNL     1       4.468  14.216 -10.456  0.00  0.00    +0.000 A 
ATOM      2  C   UNL     1       5.593  14.933 -10.864  0.00  0.00    +0.000 A 
ATOM      3  C   UNL     1       6.387  15.584  -9.920  0.00  0.00    +0.000 A 
ATOM      4  C   UNL     1       4.136  14.151  -9.102  0.00  0.00    +0.000 A 
ATOM      5  C   UNL     1       6.055  15.517  -8.566  0.00  0.00    +0.000 A 
ATOM      6  C   UNL     1       4.930  14.801  -8.157  0.00  0.00    +0.000 A 
ATOM      7  H   UNL     1       5.857  14.988 -11.918  0.00  0.00    +0.000 HD
ATOM      8  H   UNL     1       3.263  13.594  -8.771  0.00  0.00    +0.000 HD
ATOM      9  H   UNL     1       4.661  14.740  -7.107  0.00  0.00    +0.000 HD
ENDROOT
BRANCH   1  10
ATOM     10  C   UNL     1       3.620  13.521 -11.467  0.00  0.00    +0.000 C 
ATOM     11  H   UNL     1       2.711  14.107 -11.655  0.00  0.00    +0.000 HD
ATOM     12  H   UNL     1       4.145  13.493 -12.430  0.00  0.00    +0.000 HD
BRANCH  10  13
ATOM     13  C   UNL     1       3.211  12.134 -11.041  0.00  0.00    +0.000 C 
ATOM     14  C   UNL     1       1.989  11.622 -11.222  0.00  0.00    +0.000 C 
ATOM     15  H   UNL     1       3.961  11.524 -10.541  0.00  0.00    +0.000 HD
ATOM     16  H   UNL     1       1.759  10.618 -10.884  0.00  0.00    +0.000 HD
ATOM     17  H   UNL     1       1.204  12.189 -11.708  0.00  0.00    +0.000 HD
ENDBRANCH  10  13
ENDBRANCH   1  10
BRANCH   5  18
ATOM     18  O   UNL     1       6.822  16.149  -7.634  0.00  0.00    +0.000 OA
ATOM     19  H   UNL     1       7.405  16.787  -8.082  0.00  0.00    +0.000 HD
ENDBRANCH   5  18
BRANCH   3  20
ATOM     20  O   UNL     1       7.483  16.281 -10.330  0.00  0.00    +0.000 OA
BRANCH  20  21
ATOM     21  C   UNL     1       7.421  16.885 -11.620  0.00  0.00    +0.000 C 
ATOM     22  H   UNL     1       7.241  17.961 -11.531  0.00  0.00    +0.000 HD
ATOM     23  H   UNL     1       6.636  16.422 -12.226  0.00  0.00    +0.000 HD
ATOM     24  H   UNL     1       8.383  16.730 -12.118  0.00  0.00    +0.000 HD
ENDBRANCH  20  21
ENDBRANCH   3  20
TORSDOF 5
ENDMDL
MODEL 7
REMARK VINA RESULT:    -4.383     42.214     44.134
REMARK INTER + INTRA:          -5.638
REMARK INTER:                  -5.370
REMARK INTRA:                  -0.268
REMARK UNBOUND:                -0.230
REMARK  Name = 3314
REMARK  5 active torsions:
REMARK  status: ('A' for Active; 'I' for Inactive)
REMARK    1  A    between atoms: O_1  and  C_6
REMARK    2  A    between atoms: O_1  and  C_11
REMARK    3  A    between atoms: O_2  and  C_8
REMARK    4  A    between atoms: C_3  and  C_4
REMARK    5  A    between atoms: C_4  and  C_10
REMARK                            x       y       z     vdW  Elec       q    Type
REMARK                         _______ _______ _______ _____ _____    ______ ____
ROOT
ATOM      1  C   UNL     1     -27.940  -4.828  13.116  0.00  0.00    +0.000 A 
ATOM      2  C   UNL     1     -26.892  -4.518  13.984  0.00  0.00    +0.000 A 
ATOM      3  C   UNL     1     -25.746  -3.890  13.498  0.00  0.00    +0.000 A 
ATOM      4  C   UNL     1     -27.840  -4.510  11.762  0.00  0.00    +0.000 A 
ATOM      5  C   UNL     1     -25.648  -3.572  12.143  0.00  0.00    +0.000 A 
ATOM      6  C   UNL     1     -26.694  -3.881  11.275  0.00  0.00    +0.000 A 
ATOM      7  H   UNL     1     -26.964  -4.764  15.041  0.00  0.00    +0.000 HD
ATOM      8  H   UNL     1     -28.650  -4.745  11.075  0.00  0.00    +0.000 HD
ATOM      9  H   UNL     1     -26.631  -3.638  10.218  0.00  0.00    +0.000 HD
ENDROOT
BRANCH   1  10
ATOM     10  C   UNL     1     -29.165  -5.500  13.637  0.00  0.00    +0.000 C 
ATOM     11  H   UNL     1     -29.462  -5.042  14.590  0.00  0.00    +0.000 HD
ATOM     12  H   UNL     1     -30.006  -5.312  12.958  0.00  0.00    +0.000 HD
BRANCH  10  13
ATOM     13  C   UNL     1     -28.978  -6.979  13.859  0.00  0.00    +0.000 C 
ATOM     14  C   UNL     1     -28.985  -7.892  12.882  0.00  0.00    +0.000 C 
ATOM     15  H   UNL     1     -28.846  -7.317  14.884  0.00  0.00    +0.000 HD
ATOM     16  H   UNL     1     -28.853  -8.943  13.111  0.00  0.00    +0.000 HD
ATOM     17  H   UNL     1     -29.120  -7.610  11.844  0.00  0.00    +0.000 HD
ENDBRANCH  10  13
ENDBRANCH   1  10
BRANCH   5  18
ATOM     18  O   UNL     1     -24.532  -2.959  11.655  0.00  0.00    +0.000 OA
ATOM     19  H   UNL     1     -24.320  -3.334  10.783  0.00  0.00    +0.000 HD
ENDBRANCH   5  18
BRANCH   3  20
ATOM     20  O   UNL     1     -24.730  -3.593  14.354  0.00  0.00    +0.000 OA
BRANCH  20  21
ATOM     21  C   UNL     1     -24.861  -2.402  15.128  0.00  0.00    +0.000 C 
ATOM     22  H   UNL     1     -25.078  -2.646  16.173  0.00  0.00    +0.000 HD
ATOM     23  H   UNL     1     -25.650  -1.762  14.720  0.00  0.00    +0.000 HD
ATOM     24  H   UNL     1     -23.913  -1.858  15.085  0.00  0.00    +0.000 HD
ENDBRANCH  20  21
ENDBRANCH   3  20
TORSDOF 5
ENDMDL
MODEL 8
REMARK VINA RESULT:    -4.324     29.129     31.136
REMARK INTER + INTRA:          -5.565
REMARK INTER:                  -5.301
REMARK INTRA:                  -0.264
REMARK UNBOUND:                -0.230
REMARK  Name = 3314
REMARK  5 active torsions:
REMARK  status: ('A' for Active; 'I' for Inactive)
REMARK    1  A    between atoms: O_1  and  C_6
REMARK    2  A    between atoms: O_1  and  C_11
REMARK    3  A    between atoms: O_2  and  C_8
REMARK    4  A    between atoms: C_3  and  C_4
REMARK    5  A    between atoms: C_4  and  C_10
REMARK                            x       y       z     vdW  Elec       q    Type
REMARK                         _______ _______ _______ _____ _____    ______ ____
ROOT
ATOM      1  C   UNL     1      -0.584  -7.584  20.570  0.00  0.00    +0.000 A 
ATOM      2  C   UNL     1      -0.431  -8.945  20.303  0.00  0.00    +0.000 A 
ATOM      3  C   UNL     1      -1.532  -9.706  19.910  0.00  0.00    +0.000 A 
ATOM      4  C   UNL     1      -1.837  -6.985  20.445  0.00  0.00    +0.000 A 
ATOM      5  C   UNL     1      -2.785  -9.106  19.785  0.00  0.00    +0.000 A 
ATOM      6  C   UNL     1      -2.938  -7.746  20.051  0.00  0.00    +0.000 A 
ATOM      7  H   UNL     1       0.543  -9.418  20.399  0.00  0.00    +0.000 HD
ATOM      8  H   UNL     1      -1.969  -5.925  20.648  0.00  0.00    +0.000 HD
ATOM      9  H   UNL     1      -3.908  -7.266  19.957  0.00  0.00    +0.000 HD
ENDROOT
BRANCH   1  10
ATOM     10  C   UNL     1       0.594  -6.771  20.989  0.00  0.00    +0.000 C 
ATOM     11  H   UNL     1       0.311  -5.711  21.050  0.00  0.00    +0.000 HD
ATOM     12  H   UNL     1       0.887  -7.046  22.010  0.00  0.00    +0.000 HD
BRANCH  10  13
ATOM     13  C   UNL     1       1.764  -6.896  20.047  0.00  0.00    +0.000 C 
ATOM     14  C   UNL     1       1.806  -6.353  18.825  0.00  0.00    +0.000 C 
ATOM     15  H   UNL     1       2.617  -7.482  20.384  0.00  0.00    +0.000 HD
ATOM     16  H   UNL     1       2.677  -6.489  18.194  0.00  0.00    +0.000 HD
ATOM     17  H   UNL     1       0.982  -5.767  18.437  0.00  0.00    +0.000 HD
ENDBRANCH  10  13
ENDBRANCH   1  10
BRANCH   5  18
ATOM     18  O   UNL     1      -3.868  -9.840  19.403  0.00  0.00    +0.000 OA
ATOM     19  H   UNL     1      -4.610  -9.644  20.001  0.00  0.00    +0.000 HD
ENDBRANCH   5  18
BRANCH   3  20
ATOM     20  O   UNL     1      -1.371 -11.034  19.653  0.00  0.00    +0.000 OA
BRANCH  20  21
ATOM     21  C   UNL     1      -0.807 -11.386  18.391  0.00  0.00    +0.000 C 
ATOM     22  H   UNL     1      -0.049 -12.166  18.515  0.00  0.00    +0.000 HD
ATOM     23  H   UNL     1      -0.367 -10.508  17.907  0.00  0.00    +0.000 HD
ATOM     24  H   UNL     1      -1.607 -11.772  17.753  0.00  0.00    +0.000 HD
ENDBRANCH  20  21
ENDBRANCH   3  20
TORSDOF 5
ENDMDL
MODEL 9
REMARK VINA RESULT:    -4.229     21.257     21.762
REMARK INTER + INTRA:          -5.447
REMARK INTER:                  -5.214
REMARK INTRA:                  -0.233
REMARK UNBOUND:                -0.230
REMARK  Name = 3314
REMARK  5 active torsions:
REMARK  status: ('A' for Active; 'I' for Inactive)
REMARK    1  A    between atoms: O_1  and  C_6
REMARK    2  A    between atoms: O_1  and  C_11
REMARK    3  A    between atoms: O_2  and  C_8
REMARK    4  A    between atoms: C_3  and  C_4
REMARK    5  A    between atoms: C_4  and  C_10
REMARK                            x       y       z     vdW  Elec       q    Type
REMARK                         _______ _______ _______ _____ _____    ______ ____
ROOT
ATOM      1  C   UNL     1      -1.541   2.436 -19.437  0.00  0.00    +0.000 A 
ATOM      2  C   UNL     1      -0.374   2.394 -20.202  0.00  0.00    +0.000 A 
ATOM      3  C   UNL     1      -0.093   1.274 -20.985  0.00  0.00    +0.000 A 
ATOM      4  C   UNL     1      -2.426   1.358 -19.456  0.00  0.00    +0.000 A 
ATOM      5  C   UNL     1      -0.979   0.197 -21.004  0.00  0.00    +0.000 A 
ATOM      6  C   UNL     1      -2.145   0.238 -20.240  0.00  0.00    +0.000 A 
ATOM      7  H   UNL     1       0.320   3.231 -20.192  0.00  0.00    +0.000 HD
ATOM      8  H   UNL     1      -3.339   1.379 -18.866  0.00  0.00    +0.000 HD
ATOM      9  H   UNL     1      -2.844  -0.594 -20.245  0.00  0.00    +0.000 HD
ENDROOT
BRANCH   1  10
ATOM     10  C   UNL     1      -1.840   3.633 -18.601  0.00  0.00    +0.000 C 
ATOM     11  H   UNL     1      -1.052   4.386 -18.734  0.00  0.00    +0.000 HD
ATOM     12  H   UNL     1      -2.757   4.115 -18.962  0.00  0.00    +0.000 HD
BRANCH  10  13
ATOM     13  C   UNL     1      -1.949   3.315 -17.132  0.00  0.00    +0.000 C 
ATOM     14  C   UNL     1      -1.081   3.736 -16.205  0.00  0.00    +0.000 C 
ATOM     15  H   UNL     1      -2.781   2.688 -16.816  0.00  0.00    +0.000 HD
ATOM     16  H   UNL     1      -1.213   3.463 -15.164  0.00  0.00    +0.000 HD
ATOM     17  H   UNL     1      -0.231   4.356 -16.466  0.00  0.00    +0.000 HD
ENDBRANCH  10  13
ENDBRANCH   1  10
BRANCH   5  18
ATOM     18  O   UNL     1      -0.715  -0.903 -21.763  0.00  0.00    +0.000 OA
ATOM     19  H   UNL     1      -0.912  -0.700 -22.694  0.00  0.00    +0.000 HD
ENDBRANCH   5  18
BRANCH   3  20
ATOM     20  O   UNL     1       1.048   1.244 -21.727  0.00  0.00    +0.000 OA
BRANCH  20  21
ATOM     21  C   UNL     1       1.870   2.410 -21.700  0.00  0.00    +0.000 C 
ATOM     22  H   UNL     1       2.818   2.223 -22.215  0.00  0.00    +0.000 HD
ATOM     23  H   UNL     1       2.058   2.725 -20.669  0.00  0.00    +0.000 HD
ATOM     24  H   UNL     1       1.341   3.214 -22.220  0.00  0.00    +0.000 HD
ENDBRANCH  20  21
ENDBRANCH   3  20
TORSDOF 5
ENDMDL
MODEL 10
REMARK VINA RESULT:    -4.209     23.784     25.957
REMARK INTER + INTRA:          -5.423
REMARK INTER:                  -5.193
REMARK INTRA:                  -0.230
REMARK UNBOUND:                -0.230
REMARK  Name = 3314
REMARK  5 active torsions:
REMARK  status: ('A' for Active; 'I' for Inactive)
REMARK    1  A    between atoms: O_1  and  C_6
REMARK    2  A    between atoms: O_1  and  C_11
REMARK    3  A    between atoms: O_2  and  C_8
REMARK    4  A    between atoms: C_3  and  C_4
REMARK    5  A    between atoms: C_4  and  C_10
REMARK                            x       y       z     vdW  Elec       q    Type
REMARK                         _______ _______ _______ _____ _____    ______ ____
ROOT
ATOM      1  C   UNL     1     -11.765   8.339   1.843  0.00  0.00    +0.000 A 
ATOM      2  C   UNL     1     -12.806   7.530   1.386  0.00  0.00    +0.000 A 
ATOM      3  C   UNL     1     -13.795   7.099   2.271  0.00  0.00    +0.000 A 
ATOM      4  C   UNL     1     -11.713   8.716   3.185  0.00  0.00    +0.000 A 
ATOM      5  C   UNL     1     -13.742   7.477   3.612  0.00  0.00    +0.000 A 
ATOM      6  C   UNL     1     -12.702   8.286   4.070  0.00  0.00    +0.000 A 
ATOM      7  H   UNL     1     -12.853   7.233   0.341  0.00  0.00    +0.000 HD
ATOM      8  H   UNL     1     -10.908   9.347   3.553  0.00  0.00    +0.000 HD
ATOM      9  H   UNL     1     -12.649   8.587   5.112  0.00  0.00    +0.000 HD
ENDROOT
BRANCH   1  10
ATOM     10  C   UNL     1     -10.709   8.799   0.896  0.00  0.00    +0.000 C 
ATOM     11  H   UNL     1     -10.065   7.955   0.620  0.00  0.00    +0.000 HD
ATOM     12  H   UNL     1     -11.173   9.122  -0.044  0.00  0.00    +0.000 HD
BRANCH  10  13
ATOM     13  C   UNL     1      -9.842   9.892   1.466  0.00  0.00    +0.000 C 
ATOM     14  C   UNL     1      -9.469  10.985   0.791  0.00  0.00    +0.000 C 
ATOM     15  H   UNL     1      -9.488   9.768   2.487  0.00  0.00    +0.000 HD
ATOM     16  H   UNL     1      -8.835  11.731   1.258  0.00  0.00    +0.000 HD
ATOM     17  H   UNL     1      -9.787  11.155  -0.231  0.00  0.00    +0.000 HD
ENDBRANCH  10  13
ENDBRANCH   1  10
BRANCH   5  18
ATOM     18  O   UNL     1     -14.701   7.061   4.487  0.00  0.00    +0.000 OA
ATOM     19  H   UNL     1     -15.542   7.496   4.266  0.00  0.00    +0.000 HD
ENDBRANCH   5  18
BRANCH   3  20
ATOM     20  O   UNL     1     -14.806   6.309   1.814  0.00  0.00    +0.000 OA
BRANCH  20  21
ATOM     21  C   UNL     1     -14.619   5.686   0.545  0.00  0.00    +0.000 C 
ATOM     22  H   UNL     1     -14.852   4.618   0.605  0.00  0.00    +0.000 HD
ATOM     23  H   UNL     1     -13.592   5.827   0.194  0.00  0.00    +0.000 HD
ATOM     24  H   UNL     1     -15.300   6.154  -0.171  0.00  0.00    +0.000 HD
ENDBRANCH  20  21
ENDBRANCH   3  20
TORSDOF 5
ENDMDL
