MODEL 1
REMARK VINA RESULT:    -4.934      0.000      0.000
REMARK INTER + INTRA:          -7.414
REMARK INTER:                  -7.062
REMARK INTRA:                  -0.352
REMARK UNBOUND:                -0.893
REMARK  Name = 12813
REMARK  6 active torsions:
REMARK  status: ('A' for Active; 'I' for Inactive)
REMARK    1  A    between atoms: C_3  and  C_4
REMARK    2  A    between atoms: C_4  and  C_6
REMARK    3  A    between atoms: C_6  and  C_7
REMARK    4  A    between atoms: C_7  and  C_9
REMARK    5  A    between atoms: C_9  and  C_11
REMARK    6  A    between atoms: C_11  and  C_12
REMARK                            x       y       z     vdW  Elec       q    Type
REMARK                         _______ _______ _______ _____ _____    ______ ____
ROOT
ATOM      1  C   UNL     1      12.364   7.213  -4.332  0.00  0.00    +0.000 C 
ATOM      2  H   UNL     1      13.310   7.738  -4.509  0.00  0.00    +0.000 HD
ATOM      3  H   UNL     1      11.887   7.067  -5.308  0.00  0.00    +0.000 HD
ENDROOT
BRANCH   1   4
ATOM      4  C   UNL     1      12.642   5.861  -3.677  0.00  0.00    +0.000 C 
ATOM      5  H   UNL     1      12.987   6.010  -2.647  0.00  0.00    +0.000 HD
ATOM      6  H   UNL     1      11.700   5.299  -3.630  0.00  0.00    +0.000 HD
BRANCH   4   9
ATOM      7  O   UNL     1      14.473   4.291  -3.555  0.00  0.00    +0.000 OA
ATOM      8  O   UNL     1      16.644   3.549  -3.534  0.00  0.00    +0.000 OA
ATOM      9  C   UNL     1      13.673   5.067  -4.456  0.00  0.00    +0.000 C 
ATOM     10  C   UNL     1      14.669   5.938  -5.188  0.00  0.00    +0.000 C 
ATOM     11  C   UNL     1      15.872   5.031  -5.288  0.00  0.00    +0.000 C 
ATOM     12  C   UNL     1      15.752   4.213  -4.037  0.00  0.00    +0.000 C 
ATOM     13  H   UNL     1      13.178   4.373  -5.148  0.00  0.00    +0.000 HD
ATOM     14  H   UNL     1      14.930   6.821  -4.592  0.00  0.00    +0.000 HD
ATOM     15  H   UNL     1      14.305   6.282  -6.160  0.00  0.00    +0.000 HD
ATOM     16  H   UNL     1      16.804   5.600  -5.300  0.00  0.00    +0.000 HD
ATOM     17  H   UNL     1      15.812   4.368  -6.156  0.00  0.00    +0.000 HD
ENDBRANCH   4   9
ENDBRANCH   1   4
BRANCH   1  18
ATOM     18  C   UNL     1      11.455   8.080  -3.456  0.00  0.00    +0.000 C 
ATOM     19  H   UNL     1      11.776   9.127  -3.511  0.00  0.00    +0.000 HD
ATOM     20  H   UNL     1      11.545   7.767  -2.408  0.00  0.00    +0.000 HD
BRANCH  18  21
ATOM     21  C   UNL     1       9.993   7.968  -3.895  0.00  0.00    +0.000 C 
ATOM     22  H   UNL     1       9.401   8.736  -3.381  0.00  0.00    +0.000 HD
ATOM     23  H   UNL     1       9.593   6.997  -3.577  0.00  0.00    +0.000 HD
BRANCH  21  24
ATOM     24  C   UNL     1       9.799   8.119  -5.405  0.00  0.00    +0.000 C 
ATOM     25  H   UNL     1       9.542   9.160  -5.635  0.00  0.00    +0.000 HD
ATOM     26  H   UNL     1      10.747   7.905  -5.914  0.00  0.00    +0.000 HD
BRANCH  24  27
ATOM     27  C   UNL     1       8.722   7.209  -5.973  0.00  0.00    +0.000 C 
ATOM     28  H   UNL     1       8.723   7.255  -7.066  0.00  0.00    +0.000 HD
ATOM     29  H   UNL     1       7.731   7.509  -5.619  0.00  0.00    +0.000 HD
ATOM     30  H   UNL     1       8.892   6.169  -5.675  0.00  0.00    +0.000 HD
ENDBRANCH  24  27
ENDBRANCH  21  24
ENDBRANCH  18  21
ENDBRANCH   1  18
TORSDOF 6
ENDMDL
MODEL 2
REMARK VINA RESULT:    -4.796      2.753      6.024
REMARK INTER + INTRA:          -7.231
REMARK INTER:                  -6.978
REMARK INTRA:                  -0.253
REMARK UNBOUND:                -0.893
REMARK  Name = 12813
REMARK  6 active torsions:
REMARK  status: ('A' for Active; 'I' for Inactive)
REMARK    1  A    between atoms: C_3  and  C_4
REMARK    2  A    between atoms: C_4  and  C_6
REMARK    3  A    between atoms: C_6  and  C_7
REMARK    4  A    between atoms: C_7  and  C_9
REMARK    5  A    between atoms: C_9  and  C_11
REMARK    6  A    between atoms: C_11  and  C_12
REMARK                            x       y       z     vdW  Elec       q    Type
REMARK                         _______ _______ _______ _____ _____    ______ ____
ROOT
ATOM      1  C   UNL     1      12.644   4.345  -3.505  0.00  0.00    +0.000 C 
ATOM      2  H   UNL     1      13.122   4.240  -2.524  0.00  0.00    +0.000 HD
ATOM      3  H   UNL     1      11.632   3.930  -3.418  0.00  0.00    +0.000 HD
ENDROOT
BRANCH   1   4
ATOM      4  C   UNL     1      12.572   5.824  -3.885  0.00  0.00    +0.000 C 
ATOM      5  H   UNL     1      13.170   6.418  -3.183  0.00  0.00    +0.000 HD
ATOM      6  H   UNL     1      13.016   5.946  -4.882  0.00  0.00    +0.000 HD
BRANCH   4   9
ATOM      7  O   UNL     1      11.017   7.421  -4.814  0.00  0.00    +0.000 OA
ATOM      8  O   UNL     1       9.716   9.307  -4.927  0.00  0.00    +0.000 OA
ATOM      9  C   UNL     1      11.142   6.326  -3.896  0.00  0.00    +0.000 C 
ATOM     10  C   UNL     1      10.698   6.897  -2.569  0.00  0.00    +0.000 C 
ATOM     11  C   UNL     1       9.617   7.866  -2.983  0.00  0.00    +0.000 C 
ATOM     12  C   UNL     1      10.100   8.315  -4.330  0.00  0.00    +0.000 C 
ATOM     13  H   UNL     1      10.460   5.532  -4.228  0.00  0.00    +0.000 HD
ATOM     14  H   UNL     1      11.514   7.448  -2.086  0.00  0.00    +0.000 HD
ATOM     15  H   UNL     1      10.347   6.132  -1.869  0.00  0.00    +0.000 HD
ATOM     16  H   UNL     1       9.545   8.707  -2.289  0.00  0.00    +0.000 HD
ATOM     17  H   UNL     1       8.648   7.372  -3.096  0.00  0.00    +0.000 HD
ENDBRANCH   4   9
ENDBRANCH   1   4
BRANCH   1  18
ATOM     18  C   UNL     1      13.427   3.540  -4.545  0.00  0.00    +0.000 C 
ATOM     19  H   UNL     1      13.084   3.805  -5.553  0.00  0.00    +0.000 HD
ATOM     20  H   UNL     1      13.231   2.469  -4.408  0.00  0.00    +0.000 HD
BRANCH  18  21
ATOM     21  C   UNL     1      14.930   3.799  -4.430  0.00  0.00    +0.000 C 
ATOM     22  H   UNL     1      15.447   2.854  -4.224  0.00  0.00    +0.000 HD
ATOM     23  H   UNL     1      15.119   4.456  -3.571  0.00  0.00    +0.000 HD
BRANCH  21  24
ATOM     24  C   UNL     1      15.535   4.432  -5.686  0.00  0.00    +0.000 C 
ATOM     25  H   UNL     1      15.581   3.681  -6.483  0.00  0.00    +0.000 HD
ATOM     26  H   UNL     1      14.876   5.234  -6.040  0.00  0.00    +0.000 HD
BRANCH  24  27
ATOM     27  C   UNL     1      16.927   5.003  -5.467  0.00  0.00    +0.000 C 
ATOM     28  H   UNL     1      16.874   5.914  -4.864  0.00  0.00    +0.000 HD
ATOM     29  H   UNL     1      17.401   5.252  -6.421  0.00  0.00    +0.000 HD
ATOM     30  H   UNL     1      17.566   4.284  -4.943  0.00  0.00    +0.000 HD
ENDBRANCH  24  27
ENDBRANCH  21  24
ENDBRANCH  18  21
ENDBRANCH   1  18
TORSDOF 6
ENDMDL
MODEL 3
REMARK VINA RESULT:    -4.727      7.773      8.646
REMARK INTER + INTRA:          -7.140
REMARK INTER:                  -6.687
REMARK INTRA:                  -0.453
REMARK UNBOUND:                -0.893
REMARK  Name = 12813
REMARK  6 active torsions:
REMARK  status: ('A' for Active; 'I' for Inactive)
REMARK    1  A    between atoms: C_3  and  C_4
REMARK    2  A    between atoms: C_4  and  C_6
REMARK    3  A    between atoms: C_6  and  C_7
REMARK    4  A    between atoms: C_7  and  C_9
REMARK    5  A    between atoms: C_9  and  C_11
REMARK    6  A    between atoms: C_11  and  C_12
REMARK                            x       y       z     vdW  Elec       q    Type
REMARK                         _______ _______ _______ _____ _____    ______ ____
ROOT
ATOM      1  C   UNL     1       6.325   1.112  -2.364  0.00  0.00    +0.000 C 
ATOM      2  H   UNL     1       7.216   1.288  -2.978  0.00  0.00    +0.000 HD
ATOM      3  H   UNL     1       5.579   1.863  -2.652  0.00  0.00    +0.000 HD
ENDROOT
BRANCH   1   4
ATOM      4  C   UNL     1       5.785  -0.292  -2.633  0.00  0.00    +0.000 C 
ATOM      5  H   UNL     1       5.602  -0.808  -1.682  0.00  0.00    +0.000 HD
ATOM      6  H   UNL     1       4.820  -0.199  -3.148  0.00  0.00    +0.000 HD
BRANCH   4   9
ATOM      7  O   UNL     1       7.933  -1.391  -2.737  0.00  0.00    +0.000 OA
ATOM      8  O   UNL     1      10.146  -1.693  -3.259  0.00  0.00    +0.000 OA
ATOM      9  C   UNL     1       6.743  -1.102  -3.483  0.00  0.00    +0.000 C 
ATOM     10  C   UNL     1       7.237  -0.357  -4.703  0.00  0.00    +0.000 C 
ATOM     11  C   UNL     1       8.566  -1.022  -4.967  0.00  0.00    +0.000 C 
ATOM     12  C   UNL     1       9.009  -1.396  -3.584  0.00  0.00    +0.000 C 
ATOM     13  H   UNL     1       6.286  -2.059  -3.769  0.00  0.00    +0.000 HD
ATOM     14  H   UNL     1       7.401   0.703  -4.476  0.00  0.00    +0.000 HD
ATOM     15  H   UNL     1       6.548  -0.418  -5.550  0.00  0.00    +0.000 HD
ATOM     16  H   UNL     1       9.273  -0.334  -5.435  0.00  0.00    +0.000 HD
ATOM     17  H   UNL     1       8.455  -1.931  -5.566  0.00  0.00    +0.000 HD
ENDBRANCH   4   9
ENDBRANCH   1   4
BRANCH   1  18
ATOM     18  C   UNL     1       6.676   1.300  -0.886  0.00  0.00    +0.000 C 
ATOM     19  H   UNL     1       6.534   0.354  -0.349  0.00  0.00    +0.000 HD
ATOM     20  H   UNL     1       5.998   2.035  -0.435  0.00  0.00    +0.000 HD
BRANCH  18  21
ATOM     21  C   UNL     1       8.122   1.773  -0.716  0.00  0.00    +0.000 C 
ATOM     22  H   UNL     1       8.565   1.948  -1.704  0.00  0.00    +0.000 HD
ATOM     23  H   UNL     1       8.710   0.976  -0.243  0.00  0.00    +0.000 HD
BRANCH  21  24
ATOM     24  C   UNL     1       8.248   3.050   0.118  0.00  0.00    +0.000 C 
ATOM     25  H   UNL     1       8.581   2.791   1.130  0.00  0.00    +0.000 HD
ATOM     26  H   UNL     1       9.024   3.692  -0.318  0.00  0.00    +0.000 HD
BRANCH  24  27
ATOM     27  C   UNL     1       6.954   3.843   0.214  0.00  0.00    +0.000 C 
ATOM     28  H   UNL     1       6.239   3.326   0.862  0.00  0.00    +0.000 HD
ATOM     29  H   UNL     1       6.496   3.963  -0.772  0.00  0.00    +0.000 HD
ATOM     30  H   UNL     1       7.136   4.838   0.632  0.00  0.00    +0.000 HD
ENDBRANCH  24  27
ENDBRANCH  21  24
ENDBRANCH  18  21
ENDBRANCH   1  18
TORSDOF 6
ENDMDL
MODEL 4
REMARK VINA RESULT:    -4.073     33.804     35.884
REMARK INTER + INTRA:          -6.276
REMARK INTER:                  -5.596
REMARK INTRA:                  -0.680
REMARK UNBOUND:                -0.893
REMARK  Name = 12813
REMARK  6 active torsions:
REMARK  status: ('A' for Active; 'I' for Inactive)
REMARK    1  A    between atoms: C_3  and  C_4
REMARK    2  A    between atoms: C_4  and  C_6
REMARK    3  A    between atoms: C_6  and  C_7
REMARK    4  A    between atoms: C_7  and  C_9
REMARK    5  A    between atoms: C_9  and  C_11
REMARK    6  A    between atoms: C_11  and  C_12
REMARK                            x       y       z     vdW  Elec       q    Type
REMARK                         _______ _______ _______ _____ _____    ______ ____
ROOT
ATOM      1  C   UNL     1     -16.022 -10.328   2.413  0.00  0.00    +0.000 C 
ATOM      2  H   UNL     1     -15.222 -10.370   3.162  0.00  0.00    +0.000 HD
ATOM      3  H   UNL     1     -16.315 -11.362   2.195  0.00  0.00    +0.000 HD
ENDROOT
BRANCH   1   4
ATOM      4  C   UNL     1     -17.212  -9.553   2.976  0.00  0.00    +0.000 C 
ATOM      5  H   UNL     1     -16.894  -8.961   3.843  0.00  0.00    +0.000 HD
ATOM      6  H   UNL     1     -17.562  -8.851   2.208  0.00  0.00    +0.000 HD
BRANCH   4   9
ATOM      7  O   UNL     1     -18.345 -10.667   4.795  0.00  0.00    +0.000 OA
ATOM      8  O   UNL     1     -18.931 -12.373   6.212  0.00  0.00    +0.000 OA
ATOM      9  C   UNL     1     -18.343 -10.482   3.373  0.00  0.00    +0.000 C 
ATOM     10  C   UNL     1     -18.194 -11.878   2.813  0.00  0.00    +0.000 C 
ATOM     11  C   UNL     1     -18.965 -12.707   3.813  0.00  0.00    +0.000 C 
ATOM     12  C   UNL     1     -18.748 -11.943   5.085  0.00  0.00    +0.000 C 
ATOM     13  H   UNL     1     -19.311 -10.049   3.090  0.00  0.00    +0.000 HD
ATOM     14  H   UNL     1     -17.143 -12.193   2.816  0.00  0.00    +0.000 HD
ATOM     15  H   UNL     1     -18.572 -11.973   1.791  0.00  0.00    +0.000 HD
ATOM     16  H   UNL     1     -18.564 -13.721   3.888  0.00  0.00    +0.000 HD
ATOM     17  H   UNL     1     -20.034 -12.729   3.586  0.00  0.00    +0.000 HD
ENDBRANCH   4   9
ENDBRANCH   1   4
BRANCH   1  18
ATOM     18  C   UNL     1     -15.490  -9.680   1.132  0.00  0.00    +0.000 C 
ATOM     19  H   UNL     1     -15.127 -10.456   0.447  0.00  0.00    +0.000 HD
ATOM     20  H   UNL     1     -14.637  -9.034   1.371  0.00  0.00    +0.000 HD
BRANCH  18  21
ATOM     21  C   UNL     1     -16.575  -8.851   0.439  0.00  0.00    +0.000 C 
ATOM     22  H   UNL     1     -16.163  -7.871   0.166  0.00  0.00    +0.000 HD
ATOM     23  H   UNL     1     -17.393  -8.664   1.146  0.00  0.00    +0.000 HD
BRANCH  21  24
ATOM     24  C   UNL     1     -17.141  -9.520  -0.815  0.00  0.00    +0.000 C 
ATOM     25  H   UNL     1     -17.380  -8.751  -1.559  0.00  0.00    +0.000 HD
ATOM     26  H   UNL     1     -16.372 -10.164  -1.260  0.00  0.00    +0.000 HD
BRANCH  24  27
ATOM     27  C   UNL     1     -18.385 -10.353  -0.550  0.00  0.00    +0.000 C 
ATOM     28  H   UNL     1     -19.250  -9.916  -1.060  0.00  0.00    +0.000 HD
ATOM     29  H   UNL     1     -18.605 -10.395   0.520  0.00  0.00    +0.000 HD
ATOM     30  H   UNL     1     -18.255 -11.376  -0.916  0.00  0.00    +0.000 HD
ENDBRANCH  24  27
ENDBRANCH  21  24
ENDBRANCH  18  21
ENDBRANCH   1  18
TORSDOF 6
ENDMDL
MODEL 5
REMARK VINA RESULT:    -3.948      8.372     10.118
REMARK INTER + INTRA:          -6.111
REMARK INTER:                  -5.785
REMARK INTRA:                  -0.326
REMARK UNBOUND:                -0.893
REMARK  Name = 12813
REMARK  6 active torsions:
REMARK  status: ('A' for Active; 'I' for Inactive)
REMARK    1  A    between atoms: C_3  and  C_4
REMARK    2  A    between atoms: C_4  and  C_6
REMARK    3  A    between atoms: C_6  and  C_7
REMARK    4  A    between atoms: C_7  and  C_9
REMARK    5  A    between atoms: C_9  and  C_11
REMARK    6  A    between atoms: C_11  and  C_12
REMARK                            x       y       z     vdW  Elec       q    Type
REMARK                         _______ _______ _______ _____ _____    ______ ____
ROOT
ATOM      1  C   UNL     1       9.526   0.596   0.809  0.00  0.00    +0.000 C 
ATOM      2  H   UNL     1      10.365   0.735   0.117  0.00  0.00    +0.000 HD
ATOM      3  H   UNL     1       9.601   1.381   1.571  0.00  0.00    +0.000 HD
ENDROOT
BRANCH   1   4
ATOM      4  C   UNL     1       8.207   0.728   0.048  0.00  0.00    +0.000 C 
ATOM      5  H   UNL     1       8.214   0.068  -0.827  0.00  0.00    +0.000 HD
ATOM      6  H   UNL     1       7.393   0.395   0.706  0.00  0.00    +0.000 HD
BRANCH   4   9
ATOM      7  O   UNL     1       8.454   3.065   0.607  0.00  0.00    +0.000 OA
ATOM      8  O   UNL     1       7.855   5.152   1.348  0.00  0.00    +0.000 OA
ATOM      9  C   UNL     1       7.958   2.159  -0.388  0.00  0.00    +0.000 C 
ATOM     10  C   UNL     1       6.490   2.501  -0.509  0.00  0.00    +0.000 C 
ATOM     11  C   UNL     1       6.491   3.994  -0.284  0.00  0.00    +0.000 C 
ATOM     12  C   UNL     1       7.644   4.168   0.659  0.00  0.00    +0.000 C 
ATOM     13  H   UNL     1       8.487   2.370  -1.327  0.00  0.00    +0.000 HD
ATOM     14  H   UNL     1       5.907   2.016   0.283  0.00  0.00    +0.000 HD
ATOM     15  H   UNL     1       6.060   2.209  -1.471  0.00  0.00    +0.000 HD
ATOM     16  H   UNL     1       5.556   4.332   0.169  0.00  0.00    +0.000 HD
ATOM     17  H   UNL     1       6.696   4.545  -1.206  0.00  0.00    +0.000 HD
ENDBRANCH   4   9
ENDBRANCH   1   4
BRANCH   1  18
ATOM     18  C   UNL     1       9.642  -0.772   1.487  0.00  0.00    +0.000 C 
ATOM     19  H   UNL     1      10.203  -1.458   0.841  0.00  0.00    +0.000 HD
ATOM     20  H   UNL     1       8.642  -1.201   1.627  0.00  0.00    +0.000 HD
BRANCH  18  21
ATOM     21  C   UNL     1      10.340  -0.659   2.845  0.00  0.00    +0.000 C 
ATOM     22  H   UNL     1      10.524   0.398   3.072  0.00  0.00    +0.000 HD
ATOM     23  H   UNL     1      11.322  -1.145   2.787  0.00  0.00    +0.000 HD
BRANCH  21  24
ATOM     24  C   UNL     1       9.540  -1.282   3.991  0.00  0.00    +0.000 C 
ATOM     25  H   UNL     1       9.974  -2.255   4.249  0.00  0.00    +0.000 HD
ATOM     26  H   UNL     1       9.630  -0.647   4.881  0.00  0.00    +0.000 HD
BRANCH  24  27
ATOM     27  C   UNL     1       8.066  -1.471   3.670  0.00  0.00    +0.000 C 
ATOM     28  H   UNL     1       7.937  -2.270   2.933  0.00  0.00    +0.000 HD
ATOM     29  H   UNL     1       7.636  -0.554   3.258  0.00  0.00    +0.000 HD
ATOM     30  H   UNL     1       7.502  -1.742   4.569  0.00  0.00    +0.000 HD
ENDBRANCH  24  27
ENDBRANCH  21  24
ENDBRANCH  18  21
ENDBRANCH   1  18
TORSDOF 6
ENDMDL
MODEL 6
REMARK VINA RESULT:    -3.928     25.667     26.667
REMARK INTER + INTRA:          -6.085
REMARK INTER:                  -5.894
REMARK INTRA:                  -0.190
REMARK UNBOUND:                -0.893
REMARK  Name = 12813
REMARK  6 active torsions:
REMARK  status: ('A' for Active; 'I' for Inactive)
REMARK    1  A    between atoms: C_3  and  C_4
REMARK    2  A    between atoms: C_4  and  C_6
REMARK    3  A    between atoms: C_6  and  C_7
REMARK    4  A    between atoms: C_7  and  C_9
REMARK    5  A    between atoms: C_9  and  C_11
REMARK    6  A    between atoms: C_11  and  C_12
REMARK                            x       y       z     vdW  Elec       q    Type
REMARK                         _______ _______ _______ _____ _____    ______ ____
ROOT
ATOM      1  C   UNL     1       3.805  -4.556  16.357  0.00  0.00    +0.000 C 
ATOM      2  H   UNL     1       4.694  -3.977  16.636  0.00  0.00    +0.000 HD
ATOM      3  H   UNL     1       4.109  -5.608  16.297  0.00  0.00    +0.000 HD
ENDROOT
BRANCH   1   4
ATOM      4  C   UNL     1       2.725  -4.383  17.425  0.00  0.00    +0.000 C 
ATOM      5  H   UNL     1       2.657  -3.328  17.717  0.00  0.00    +0.000 HD
ATOM      6  H   UNL     1       1.759  -4.668  16.988  0.00  0.00    +0.000 HD
BRANCH   4   9
ATOM      7  O   UNL     1       1.864  -6.050  18.946  0.00  0.00    +0.000 OA
ATOM      8  O   UNL     1       0.939  -6.909  20.862  0.00  0.00    +0.000 OA
ATOM      9  C   UNL     1       3.007  -5.239  18.644  0.00  0.00    +0.000 C 
ATOM     10  C   UNL     1       3.236  -4.431  19.902  0.00  0.00    +0.000 C 
ATOM     11  C   UNL     1       2.832  -5.403  20.984  0.00  0.00    +0.000 C 
ATOM     12  C   UNL     1       1.761  -6.202  20.303  0.00  0.00    +0.000 C 
ATOM     13  H   UNL     1       3.854  -5.911  18.453  0.00  0.00    +0.000 HD
ATOM     14  H   UNL     1       2.573  -3.558  19.933  0.00  0.00    +0.000 HD
ATOM     15  H   UNL     1       4.266  -4.076  20.002  0.00  0.00    +0.000 HD
ATOM     16  H   UNL     1       2.440  -4.886  21.863  0.00  0.00    +0.000 HD
ATOM     17  H   UNL     1       3.654  -6.069  21.261  0.00  0.00    +0.000 HD
ENDBRANCH   4   9
ENDBRANCH   1   4
BRANCH   1  18
ATOM     18  C   UNL     1       3.308  -4.100  14.983  0.00  0.00    +0.000 C 
ATOM     19  H   UNL     1       2.630  -3.246  15.100  0.00  0.00    +0.000 HD
ATOM     20  H   UNL     1       2.733  -4.908  14.512  0.00  0.00    +0.000 HD
BRANCH  18  21
ATOM     21  C   UNL     1       4.474  -3.709  14.073  0.00  0.00    +0.000 C 
ATOM     22  H   UNL     1       4.312  -4.133  13.074  0.00  0.00    +0.000 HD
ATOM     23  H   UNL     1       5.399  -4.157  14.459  0.00  0.00    +0.000 HD
BRANCH  21  24
ATOM     24  C   UNL     1       4.664  -2.197  13.947  0.00  0.00    +0.000 C 
ATOM     25  H   UNL     1       4.172  -1.844  13.033  0.00  0.00    +0.000 HD
ATOM     26  H   UNL     1       4.168  -1.698  14.788  0.00  0.00    +0.000 HD
BRANCH  24  27
ATOM     27  C   UNL     1       6.124  -1.769  13.915  0.00  0.00    +0.000 C 
ATOM     28  H   UNL     1       6.772  -2.613  14.168  0.00  0.00    +0.000 HD
ATOM     29  H   UNL     1       6.310  -0.967  14.634  0.00  0.00    +0.000 HD
ATOM     30  H   UNL     1       6.404  -1.410  12.919  0.00  0.00    +0.000 HD
ENDBRANCH  24  27
ENDBRANCH  21  24
ENDBRANCH  18  21
ENDBRANCH   1  18
TORSDOF 6
ENDMDL
MODEL 7
REMARK VINA RESULT:    -3.877     33.443     34.580
REMARK INTER + INTRA:          -6.017
REMARK INTER:                  -5.745
REMARK INTRA:                  -0.272
REMARK UNBOUND:                -0.893
REMARK  Name = 12813
REMARK  6 active torsions:
REMARK  status: ('A' for Active; 'I' for Inactive)
REMARK    1  A    between atoms: C_3  and  C_4
REMARK    2  A    between atoms: C_4  and  C_6
REMARK    3  A    between atoms: C_6  and  C_7
REMARK    4  A    between atoms: C_7  and  C_9
REMARK    5  A    between atoms: C_9  and  C_11
REMARK    6  A    between atoms: C_11  and  C_12
REMARK                            x       y       z     vdW  Elec       q    Type
REMARK                         _______ _______ _______ _____ _____    ______ ____
ROOT
ATOM      1  C   UNL     1     -16.845  -9.169   2.082  0.00  0.00    +0.000 C 
ATOM      2  H   UNL     1     -16.684  -8.325   2.763  0.00  0.00    +0.000 HD
ATOM      3  H   UNL     1     -17.913  -9.414   2.115  0.00  0.00    +0.000 HD
ENDROOT
BRANCH   1   4
ATOM      4  C   UNL     1     -16.443  -8.768   0.663  0.00  0.00    +0.000 C 
ATOM      5  H   UNL     1     -16.875  -7.790   0.417  0.00  0.00    +0.000 HD
ATOM      6  H   UNL     1     -15.351  -8.663   0.629  0.00  0.00    +0.000 HD
BRANCH   4   9
ATOM      7  O   UNL     1     -15.747 -10.458  -0.915  0.00  0.00    +0.000 OA
ATOM      8  O   UNL     1     -15.246 -11.395  -2.949  0.00  0.00    +0.000 OA
ATOM      9  C   UNL     1     -16.890  -9.799  -0.354  0.00  0.00    +0.000 C 
ATOM     10  C   UNL     1     -17.598  -9.196  -1.546  0.00  0.00    +0.000 C 
ATOM     11  C   UNL     1     -17.339 -10.222  -2.624  0.00  0.00    +0.000 C 
ATOM     12  C   UNL     1     -15.996 -10.758  -2.228  0.00  0.00    +0.000 C 
ATOM     13  H   UNL     1     -17.515 -10.564   0.125  0.00  0.00    +0.000 HD
ATOM     14  H   UNL     1     -17.139  -8.243  -1.835  0.00  0.00    +0.000 HD
ATOM     15  H   UNL     1     -18.662  -9.017  -1.368  0.00  0.00    +0.000 HD
ATOM     16  H   UNL     1     -17.304  -9.762  -3.615  0.00  0.00    +0.000 HD
ATOM     17  H   UNL     1     -18.071 -11.034  -2.599  0.00  0.00    +0.000 HD
ENDBRANCH   4   9
ENDBRANCH   1   4
BRANCH   1  18
ATOM     18  C   UNL     1     -16.040 -10.378   2.567  0.00  0.00    +0.000 C 
ATOM     19  H   UNL     1     -14.975 -10.120   2.610  0.00  0.00    +0.000 HD
ATOM     20  H   UNL     1     -16.145 -11.203   1.852  0.00  0.00    +0.000 HD
BRANCH  18  21
ATOM     21  C   UNL     1     -16.512 -10.840   3.947  0.00  0.00    +0.000 C 
ATOM     22  H   UNL     1     -15.971 -10.281   4.722  0.00  0.00    +0.000 HD
ATOM     23  H   UNL     1     -16.253 -11.898   4.082  0.00  0.00    +0.000 HD
BRANCH  21  24
ATOM     24  C   UNL     1     -18.016 -10.662   4.165  0.00  0.00    +0.000 C 
ATOM     25  H   UNL     1     -18.207  -9.663   4.576  0.00  0.00    +0.000 HD
ATOM     26  H   UNL     1     -18.530 -10.712   3.198  0.00  0.00    +0.000 HD
BRANCH  24  27
ATOM     27  C   UNL     1     -18.622 -11.700   5.097  0.00  0.00    +0.000 C 
ATOM     28  H   UNL     1     -19.172 -11.210   5.905  0.00  0.00    +0.000 HD
ATOM     29  H   UNL     1     -17.843 -12.325   5.543  0.00  0.00    +0.000 HD
ATOM     30  H   UNL     1     -19.317 -12.351   4.556  0.00  0.00    +0.000 HD
ENDBRANCH  24  27
ENDBRANCH  21  24
ENDBRANCH  18  21
ENDBRANCH   1  18
TORSDOF 6
ENDMDL
MODEL 8
REMARK VINA RESULT:    -3.838     36.146     38.315
REMARK INTER + INTRA:          -5.965
REMARK INTER:                  -5.584
REMARK INTRA:                  -0.380
REMARK UNBOUND:                -0.893
REMARK  Name = 12813
REMARK  6 active torsions:
REMARK  status: ('A' for Active; 'I' for Inactive)
REMARK    1  A    between atoms: C_3  and  C_4
REMARK    2  A    between atoms: C_4  and  C_6
REMARK    3  A    between atoms: C_6  and  C_7
REMARK    4  A    between atoms: C_7  and  C_9
REMARK    5  A    between atoms: C_9  and  C_11
REMARK    6  A    between atoms: C_11  and  C_12
REMARK                            x       y       z     vdW  Elec       q    Type
REMARK                         _______ _______ _______ _____ _____    ______ ____
ROOT
ATOM      1  C   UNL     1     -18.574 -12.036   3.695  0.00  0.00    +0.000 C 
ATOM      2  H   UNL     1     -17.654 -12.599   3.495  0.00  0.00    +0.000 HD
ATOM      3  H   UNL     1     -19.416 -12.698   3.459  0.00  0.00    +0.000 HD
ENDROOT
BRANCH   1   4
ATOM      4  C   UNL     1     -18.620 -11.633   5.168  0.00  0.00    +0.000 C 
ATOM      5  H   UNL     1     -17.600 -11.509   5.552  0.00  0.00    +0.000 HD
ATOM      6  H   UNL     1     -19.121 -10.659   5.244  0.00  0.00    +0.000 HD
BRANCH   4   9
ATOM      7  O   UNL     1     -20.205 -13.455   5.157  0.00  0.00    +0.000 OA
ATOM      8  O   UNL     1     -22.216 -14.529   5.413  0.00  0.00    +0.000 OA
ATOM      9  C   UNL     1     -19.364 -12.658   6.001  0.00  0.00    +0.000 C 
ATOM     10  C   UNL     1     -20.314 -12.040   7.002  0.00  0.00    +0.000 C 
ATOM     11  C   UNL     1     -21.339 -13.134   7.187  0.00  0.00    +0.000 C 
ATOM     12  C   UNL     1     -21.346 -13.787   5.838  0.00  0.00    +0.000 C 
ATOM     13  H   UNL     1     -18.656 -13.332   6.501  0.00  0.00    +0.000 HD
ATOM     14  H   UNL     1     -20.804 -11.153   6.582  0.00  0.00    +0.000 HD
ATOM     15  H   UNL     1     -19.824 -11.745   7.934  0.00  0.00    +0.000 HD
ATOM     16  H   UNL     1     -22.321 -12.726   7.434  0.00  0.00    +0.000 HD
ATOM     17  H   UNL     1     -21.022 -13.865   7.937  0.00  0.00    +0.000 HD
ENDBRANCH   4   9
ENDBRANCH   1   4
BRANCH   1  18
ATOM     18  C   UNL     1     -18.631 -10.810   2.780  0.00  0.00    +0.000 C 
ATOM     19  H   UNL     1     -19.677 -10.563   2.557  0.00  0.00    +0.000 HD
ATOM     20  H   UNL     1     -18.142 -11.038   1.825  0.00  0.00    +0.000 HD
BRANCH  18  21
ATOM     21  C   UNL     1     -17.946  -9.603   3.426  0.00  0.00    +0.000 C 
ATOM     22  H   UNL     1     -17.489  -9.911   4.375  0.00  0.00    +0.000 HD
ATOM     23  H   UNL     1     -18.702  -8.847   3.671  0.00  0.00    +0.000 HD
BRANCH  21  24
ATOM     24  C   UNL     1     -16.872  -8.969   2.540  0.00  0.00    +0.000 C 
ATOM     25  H   UNL     1     -17.354  -8.434   1.713  0.00  0.00    +0.000 HD
ATOM     26  H   UNL     1     -16.318  -8.223   3.122  0.00  0.00    +0.000 HD
BRANCH  24  27
ATOM     27  C   UNL     1     -15.886  -9.975   1.967  0.00  0.00    +0.000 C 
ATOM     28  H   UNL     1     -15.016  -9.459   1.551  0.00  0.00    +0.000 HD
ATOM     29  H   UNL     1     -16.348 -10.563   1.169  0.00  0.00    +0.000 HD
ATOM     30  H   UNL     1     -15.535 -10.663   2.743  0.00  0.00    +0.000 HD
ENDBRANCH  24  27
ENDBRANCH  21  24
ENDBRANCH  18  21
ENDBRANCH   1  18
TORSDOF 6
ENDMDL
MODEL 9
REMARK VINA RESULT:    -3.819     33.494     34.862
REMARK INTER + INTRA:          -5.940
REMARK INTER:                  -5.611
REMARK INTRA:                  -0.329
REMARK UNBOUND:                -0.893
REMARK  Name = 12813
REMARK  6 active torsions:
REMARK  status: ('A' for Active; 'I' for Inactive)
REMARK    1  A    between atoms: C_3  and  C_4
REMARK    2  A    between atoms: C_4  and  C_6
REMARK    3  A    between atoms: C_6  and  C_7
REMARK    4  A    between atoms: C_7  and  C_9
REMARK    5  A    between atoms: C_9  and  C_11
REMARK    6  A    between atoms: C_11  and  C_12
REMARK                            x       y       z     vdW  Elec       q    Type
REMARK                         _______ _______ _______ _____ _____    ______ ____
ROOT
ATOM      1  C   UNL     1     -16.949 -10.028  -0.351  0.00  0.00    +0.000 C 
ATOM      2  H   UNL     1     -16.282 -10.889  -0.223  0.00  0.00    +0.000 HD
ATOM      3  H   UNL     1     -17.932 -10.319   0.038  0.00  0.00    +0.000 HD
ENDROOT
BRANCH   1   4
ATOM      4  C   UNL     1     -16.405  -8.836   0.436  0.00  0.00    +0.000 C 
ATOM      5  H   UNL     1     -15.457  -8.502  -0.003  0.00  0.00    +0.000 HD
ATOM      6  H   UNL     1     -17.120  -8.007   0.346  0.00  0.00    +0.000 HD
BRANCH   4   9
ATOM      7  O   UNL     1     -15.700 -10.518   2.019  0.00  0.00    +0.000 OA
ATOM      8  O   UNL     1     -15.895 -12.195   3.571  0.00  0.00    +0.000 OA
ATOM      9  C   UNL     1     -16.204  -9.181   1.898  0.00  0.00    +0.000 C 
ATOM     10  C   UNL     1     -17.489  -9.191   2.693  0.00  0.00    +0.000 C 
ATOM     11  C   UNL     1     -17.163 -10.147   3.816  0.00  0.00    +0.000 C 
ATOM     12  C   UNL     1     -16.206 -11.092   3.154  0.00  0.00    +0.000 C 
ATOM     13  H   UNL     1     -15.469  -8.504   2.353  0.00  0.00    +0.000 HD
ATOM     14  H   UNL     1     -18.315  -9.600   2.099  0.00  0.00    +0.000 HD
ATOM     15  H   UNL     1     -17.785  -8.198   3.043  0.00  0.00    +0.000 HD
ATOM     16  H   UNL     1     -18.054 -10.670   4.170  0.00  0.00    +0.000 HD
ATOM     17  H   UNL     1     -16.654  -9.644   4.644  0.00  0.00    +0.000 HD
ENDBRANCH   4   9
ENDBRANCH   1   4
BRANCH   1  18
ATOM     18  C   UNL     1     -17.079  -9.699  -1.841  0.00  0.00    +0.000 C 
ATOM     19  H   UNL     1     -16.825 -10.583  -2.438  0.00  0.00    +0.000 HD
ATOM     20  H   UNL     1     -16.365  -8.911  -2.109  0.00  0.00    +0.000 HD
BRANCH  18  21
ATOM     21  C   UNL     1     -18.497  -9.238  -2.185  0.00  0.00    +0.000 C 
ATOM     22  H   UNL     1     -18.461  -8.577  -3.060  0.00  0.00    +0.000 HD
ATOM     23  H   UNL     1     -18.894  -8.640  -1.355  0.00  0.00    +0.000 HD
BRANCH  21  24
ATOM     24  C   UNL     1     -19.457 -10.393  -2.474  0.00  0.00    +0.000 C 
ATOM     25  H   UNL     1     -19.559 -10.518  -3.559  0.00  0.00    +0.000 HD
ATOM     26  H   UNL     1     -19.029 -11.325  -2.085  0.00  0.00    +0.000 HD
BRANCH  24  27
ATOM     27  C   UNL     1     -20.839 -10.199  -1.871  0.00  0.00    +0.000 C 
ATOM     28  H   UNL     1     -21.603 -10.633  -2.523  0.00  0.00    +0.000 HD
ATOM     29  H   UNL     1     -21.063  -9.136  -1.742  0.00  0.00    +0.000 HD
ATOM     30  H   UNL     1     -20.910 -10.686  -0.893  0.00  0.00    +0.000 HD
ENDBRANCH  24  27
ENDBRANCH  21  24
ENDBRANCH  18  21
ENDBRANCH   1  18
TORSDOF 6
ENDMDL
MODEL 10
REMARK VINA RESULT:    -3.655     32.965     34.983
REMARK INTER + INTRA:          -5.723
REMARK INTER:                  -4.830
REMARK INTRA:                  -0.893
REMARK UNBOUND:                -0.893
REMARK  Name = 12813
REMARK  6 active torsions:
REMARK  status: ('A' for Active; 'I' for Inactive)
REMARK    1  A    between atoms: C_3  and  C_4
REMARK    2  A    between atoms: C_4  and  C_6
REMARK    3  A    between atoms: C_6  and  C_7
REMARK    4  A    between atoms: C_7  and  C_9
REMARK    5  A    between atoms: C_9  and  C_11
REMARK    6  A    between atoms: C_11  and  C_12
REMARK                            x       y       z     vdW  Elec       q    Type
REMARK                         _______ _______ _______ _____ _____    ______ ____
ROOT
ATOM      1  C   UNL     1     -18.450 -11.165   1.549  0.00  0.00    +0.000 C 
ATOM      2  H   UNL     1     -18.965 -10.329   1.061  0.00  0.00    +0.000 HD
ATOM      3  H   UNL     1     -19.179 -11.653   2.209  0.00  0.00    +0.000 HD
ENDROOT
BRANCH   1   4
ATOM      4  C   UNL     1     -17.958 -12.153   0.492  0.00  0.00    +0.000 C 
ATOM      5  H   UNL     1     -16.887 -12.345   0.633  0.00  0.00    +0.000 HD
ATOM      6  H   UNL     1     -18.486 -13.104   0.635  0.00  0.00    +0.000 HD
BRANCH   4   9
ATOM      7  O   UNL     1     -16.958 -11.438  -1.587  0.00  0.00    +0.000 OA
ATOM      8  O   UNL     1     -16.188  -9.992  -3.193  0.00  0.00    +0.000 OA
ATOM      9  C   UNL     1     -18.207 -11.634  -0.911  0.00  0.00    +0.000 C 
ATOM     10  C   UNL     1     -18.866 -10.274  -0.938  0.00  0.00    +0.000 C 
ATOM     11  C   UNL     1     -18.411  -9.725  -2.269  0.00  0.00    +0.000 C 
ATOM     12  C   UNL     1     -17.060 -10.357  -2.422  0.00  0.00    +0.000 C 
ATOM     13  H   UNL     1     -18.791 -12.362  -1.490  0.00  0.00    +0.000 HD
ATOM     14  H   UNL     1     -18.483  -9.636  -0.132  0.00  0.00    +0.000 HD
ATOM     15  H   UNL     1     -19.954 -10.323  -0.840  0.00  0.00    +0.000 HD
ATOM     16  H   UNL     1     -18.336  -8.635  -2.249  0.00  0.00    +0.000 HD
ATOM     17  H   UNL     1     -19.056 -10.055  -3.088  0.00  0.00    +0.000 HD
ENDBRANCH   4   9
ENDBRANCH   1   4
BRANCH   1  18
ATOM     18  C   UNL     1     -17.291 -10.630   2.395  0.00  0.00    +0.000 C 
ATOM     19  H   UNL     1     -16.361 -11.138   2.111  0.00  0.00    +0.000 HD
ATOM     20  H   UNL     1     -17.472 -10.854   3.453  0.00  0.00    +0.000 HD
BRANCH  18  21
ATOM     21  C   UNL     1     -17.126  -9.119   2.216  0.00  0.00    +0.000 C 
ATOM     22  H   UNL     1     -16.785  -8.678   3.160  0.00  0.00    +0.000 HD
ATOM     23  H   UNL     1     -18.104  -8.673   1.994  0.00  0.00    +0.000 HD
BRANCH  21  24
ATOM     24  C   UNL     1     -16.141  -8.744   1.107  0.00  0.00    +0.000 C 
ATOM     25  H   UNL     1     -16.694  -8.552   0.180  0.00  0.00    +0.000 HD
ATOM     26  H   UNL     1     -15.634  -7.809   1.375  0.00  0.00    +0.000 HD
BRANCH  24  27
ATOM     27  C   UNL     1     -15.091  -9.811   0.840  0.00  0.00    +0.000 C 
ATOM     28  H   UNL     1     -14.422  -9.493   0.035  0.00  0.00    +0.000 HD
ATOM     29  H   UNL     1     -15.560 -10.754   0.543  0.00  0.00    +0.000 HD
ATOM     30  H   UNL     1     -14.486  -9.995   1.734  0.00  0.00    +0.000 HD
ENDBRANCH  24  27
ENDBRANCH  21  24
ENDBRANCH  18  21
ENDBRANCH   1  18
TORSDOF 6
ENDMDL
