MODEL 1
REMARK VINA RESULT:    -4.951      0.000      0.000
REMARK INTER + INTRA:          -5.581
REMARK INTER:                  -5.538
REMARK INTRA:                  -0.043
REMARK UNBOUND:                -0.051
REMARK  Name = 460
REMARK  3 active torsions:
REMARK  status: ('A' for Active; 'I' for Inactive)
REMARK    1  A    between atoms: O_1  and  C_3
REMARK    2  A    between atoms: O_1  and  C_9
REMARK    3  A    between atoms: O_2  and  C_4
REMARK                            x       y       z     vdW  Elec       q    Type
REMARK                         _______ _______ _______ _____ _____    ______ ____
ROOT
ATOM      1  C   UNL     1       7.592  -0.020  -3.323  0.00  0.00    +0.000 A 
ATOM      2  C   UNL     1       6.709   0.850  -2.684  0.00  0.00    +0.000 A 
ATOM      3  C   UNL     1       7.253  -0.576  -4.557  0.00  0.00    +0.000 A 
ATOM      4  C   UNL     1       5.486   1.164  -3.279  0.00  0.00    +0.000 A 
ATOM      5  C   UNL     1       6.031  -0.262  -5.151  0.00  0.00    +0.000 A 
ATOM      6  C   UNL     1       5.147   0.609  -4.512  0.00  0.00    +0.000 A 
ATOM      7  H   UNL     1       7.888  -1.258  -5.111  0.00  0.00    +0.000 HD
ATOM      8  H   UNL     1       4.794   1.841  -2.785  0.00  0.00    +0.000 HD
ATOM      9  H   UNL     1       5.766  -0.693  -6.112  0.00  0.00    +0.000 HD
ATOM     10  H   UNL     1       4.196   0.852  -4.975  0.00  0.00    +0.000 HD
ENDROOT
BRANCH   2  11
ATOM     11  O   UNL     1       7.029   1.400  -1.479  0.00  0.00    +0.000 OA
ATOM     12  H   UNL     1       6.531   0.931  -0.788  0.00  0.00    +0.000 HD
ENDBRANCH   2  11
BRANCH   1  13
ATOM     13  O   UNL     1       8.789  -0.334  -2.753  0.00  0.00    +0.000 OA
BRANCH  13  14
ATOM     14  C   UNL     1       9.259  -1.669  -2.928  0.00  0.00    +0.000 C 
ATOM     15  H   UNL     1       9.173  -1.994  -3.970  0.00  0.00    +0.000 HD
ATOM     16  H   UNL     1       8.773  -2.363  -2.234  0.00  0.00    +0.000 HD
ATOM     17  H   UNL     1      10.327  -1.669  -2.683  0.00  0.00    +0.000 HD
ENDBRANCH  13  14
ENDBRANCH   1  13
TORSDOF 3
ENDMDL
MODEL 2
REMARK VINA RESULT:    -4.490      1.502      2.819
REMARK INTER + INTRA:          -5.066
REMARK INTER:                  -5.019
REMARK INTRA:                  -0.047
REMARK UNBOUND:                -0.051
REMARK  Name = 460
REMARK  3 active torsions:
REMARK  status: ('A' for Active; 'I' for Inactive)
REMARK    1  A    between atoms: O_1  and  C_3
REMARK    2  A    between atoms: O_1  and  C_9
REMARK    3  A    between atoms: O_2  and  C_4
REMARK                            x       y       z     vdW  Elec       q    Type
REMARK                         _______ _______ _______ _____ _____    ______ ____
ROOT
ATOM      1  C   UNL     1       6.906   0.706  -2.596  0.00  0.00    +0.000 A 
ATOM      2  C   UNL     1       6.062   0.526  -3.692  0.00  0.00    +0.000 A 
ATOM      3  C   UNL     1       8.168   0.111  -2.582  0.00  0.00    +0.000 A 
ATOM      4  C   UNL     1       6.481  -0.248  -4.775  0.00  0.00    +0.000 A 
ATOM      5  C   UNL     1       8.585  -0.663  -3.665  0.00  0.00    +0.000 A 
ATOM      6  C   UNL     1       7.742  -0.843  -4.762  0.00  0.00    +0.000 A 
ATOM      7  H   UNL     1       8.875   0.206  -1.766  0.00  0.00    +0.000 HD
ATOM      8  H   UNL     1       5.828  -0.391  -5.632  0.00  0.00    +0.000 HD
ATOM      9  H   UNL     1       9.568  -1.126  -3.656  0.00  0.00    +0.000 HD
ATOM     10  H   UNL     1       8.068  -1.445  -5.604  0.00  0.00    +0.000 HD
ENDROOT
BRANCH   2  11
ATOM     11  O   UNL     1       4.828   1.103  -3.718  0.00  0.00    +0.000 OA
ATOM     12  H   UNL     1       4.584   1.258  -4.646  0.00  0.00    +0.000 HD
ENDBRANCH   2  11
BRANCH   1  13
ATOM     13  O   UNL     1       6.509   1.460  -1.533  0.00  0.00    +0.000 OA
BRANCH  13  14
ATOM     14  C   UNL     1       6.710   0.905  -0.234  0.00  0.00    +0.000 C 
ATOM     15  H   UNL     1       5.759   0.706   0.271  0.00  0.00    +0.000 HD
ATOM     16  H   UNL     1       7.382   1.525   0.370  0.00  0.00    +0.000 HD
ATOM     17  H   UNL     1       7.206  -0.062  -0.370  0.00  0.00    +0.000 HD
ENDBRANCH  13  14
ENDBRANCH   1  13
TORSDOF 3
ENDMDL
MODEL 3
REMARK VINA RESULT:    -4.385      1.930      2.372
REMARK INTER + INTRA:          -4.949
REMARK INTER:                  -4.895
REMARK INTRA:                  -0.054
REMARK UNBOUND:                -0.051
REMARK  Name = 460
REMARK  3 active torsions:
REMARK  status: ('A' for Active; 'I' for Inactive)
REMARK    1  A    between atoms: O_1  and  C_3
REMARK    2  A    between atoms: O_1  and  C_9
REMARK    3  A    between atoms: O_2  and  C_4
REMARK                            x       y       z     vdW  Elec       q    Type
REMARK                         _______ _______ _______ _____ _____    ______ ____
ROOT
ATOM      1  C   UNL     1       6.479  -0.393  -1.494  0.00  0.00    +0.000 A 
ATOM      2  C   UNL     1       6.305   0.699  -2.344  0.00  0.00    +0.000 A 
ATOM      3  C   UNL     1       6.527  -1.685  -2.017  0.00  0.00    +0.000 A 
ATOM      4  C   UNL     1       6.180   0.498  -3.719  0.00  0.00    +0.000 A 
ATOM      5  C   UNL     1       6.402  -1.885  -3.392  0.00  0.00    +0.000 A 
ATOM      6  C   UNL     1       6.228  -0.794  -4.243  0.00  0.00    +0.000 A 
ATOM      7  H   UNL     1       6.659  -2.579  -1.417  0.00  0.00    +0.000 HD
ATOM      8  H   UNL     1       6.045   1.345  -4.388  0.00  0.00    +0.000 HD
ATOM      9  H   UNL     1       6.440  -2.890  -3.801  0.00  0.00    +0.000 HD
ATOM     10  H   UNL     1       6.131  -0.950  -5.313  0.00  0.00    +0.000 HD
ENDROOT
BRANCH   2  11
ATOM     11  O   UNL     1       6.258   1.966  -1.845  0.00  0.00    +0.000 OA
ATOM     12  H   UNL     1       5.968   2.562  -2.556  0.00  0.00    +0.000 HD
ENDBRANCH   2  11
BRANCH   1  13
ATOM     13  O   UNL     1       6.602  -0.210  -0.149  0.00  0.00    +0.000 OA
BRANCH  13  14
ATOM     14  C   UNL     1       7.867  -0.518   0.434  0.00  0.00    +0.000 C 
ATOM     15  H   UNL     1       8.691  -0.067  -0.129  0.00  0.00    +0.000 HD
ATOM     16  H   UNL     1       7.997  -1.597   0.570  0.00  0.00    +0.000 HD
ATOM     17  H   UNL     1       7.880  -0.067   1.432  0.00  0.00    +0.000 HD
ENDBRANCH  13  14
ENDBRANCH   1  13
TORSDOF 3
ENDMDL
MODEL 4
REMARK VINA RESULT:    -4.341     15.522     16.315
REMARK INTER + INTRA:          -4.900
REMARK INTER:                  -4.851
REMARK INTRA:                  -0.049
REMARK UNBOUND:                -0.051
REMARK  Name = 460
REMARK  3 active torsions:
REMARK  status: ('A' for Active; 'I' for Inactive)
REMARK    1  A    between atoms: O_1  and  C_3
REMARK    2  A    between atoms: O_1  and  C_9
REMARK    3  A    between atoms: O_2  and  C_4
REMARK                            x       y       z     vdW  Elec       q    Type
REMARK                         _______ _______ _______ _____ _____    ______ ____
ROOT
ATOM      1  C   UNL     1      -1.312 -13.439  -7.107  0.00  0.00    +0.000 A 
ATOM      2  C   UNL     1      -0.520 -12.368  -7.522  0.00  0.00    +0.000 A 
ATOM      3  C   UNL     1      -1.865 -14.305  -8.051  0.00  0.00    +0.000 A 
ATOM      4  C   UNL     1      -0.283 -12.163  -8.881  0.00  0.00    +0.000 A 
ATOM      5  C   UNL     1      -1.626 -14.099  -9.409  0.00  0.00    +0.000 A 
ATOM      6  C   UNL     1      -0.835 -13.028  -9.825  0.00  0.00    +0.000 A 
ATOM      7  H   UNL     1      -2.488 -15.157  -7.802  0.00  0.00    +0.000 HD
ATOM      8  H   UNL     1       0.333 -11.330  -9.212  0.00  0.00    +0.000 HD
ATOM      9  H   UNL     1      -2.056 -14.773 -10.145  0.00  0.00    +0.000 HD
ATOM     10  H   UNL     1      -0.650 -12.869 -10.883  0.00  0.00    +0.000 HD
ENDROOT
BRANCH   2  11
ATOM     11  O   UNL     1       0.026 -11.517  -6.610  0.00  0.00    +0.000 OA
ATOM     12  H   UNL     1       0.965 -11.746  -6.503  0.00  0.00    +0.000 HD
ENDBRANCH   2  11
BRANCH   1  13
ATOM     13  O   UNL     1      -1.551 -13.650  -5.782  0.00  0.00    +0.000 OA
BRANCH  13  14
ATOM     14  C   UNL     1      -1.232 -14.940  -5.263  0.00  0.00    +0.000 C 
ATOM     15  H   UNL     1      -0.175 -15.012  -4.985  0.00  0.00    +0.000 HD
ATOM     16  H   UNL     1      -1.537 -15.739  -5.949  0.00  0.00    +0.000 HD
ATOM     17  H   UNL     1      -1.812 -15.070  -4.344  0.00  0.00    +0.000 HD
ENDBRANCH  13  14
ENDBRANCH   1  13
TORSDOF 3
ENDMDL
MODEL 5
REMARK VINA RESULT:    -4.098     15.857     16.723
REMARK INTER + INTRA:          -4.628
REMARK INTER:                  -4.587
REMARK INTRA:                  -0.041
REMARK UNBOUND:                -0.051
REMARK  Name = 460
REMARK  3 active torsions:
REMARK  status: ('A' for Active; 'I' for Inactive)
REMARK    1  A    between atoms: O_1  and  C_3
REMARK    2  A    between atoms: O_1  and  C_9
REMARK    3  A    between atoms: O_2  and  C_4
REMARK                            x       y       z     vdW  Elec       q    Type
REMARK                         _______ _______ _______ _____ _____    ______ ____
ROOT
ATOM      1  C   UNL     1      -1.190 -13.291  -7.508  0.00  0.00    +0.000 A 
ATOM      2  C   UNL     1      -1.720 -14.337  -8.263  0.00  0.00    +0.000 A 
ATOM      3  C   UNL     1      -0.501 -12.254  -8.139  0.00  0.00    +0.000 A 
ATOM      4  C   UNL     1      -1.562 -14.347  -9.649  0.00  0.00    +0.000 A 
ATOM      5  C   UNL     1      -0.343 -12.265  -9.525  0.00  0.00    +0.000 A 
ATOM      6  C   UNL     1      -0.874 -13.312 -10.280  0.00  0.00    +0.000 A 
ATOM      7  H   UNL     1      -0.063 -11.411  -7.618  0.00  0.00    +0.000 HD
ATOM      8  H   UNL     1      -1.973 -15.160 -10.243  0.00  0.00    +0.000 HD
ATOM      9  H   UNL     1       0.192 -11.459 -10.018  0.00  0.00    +0.000 HD
ATOM     10  H   UNL     1      -0.751 -13.319 -11.359  0.00  0.00    +0.000 HD
ENDROOT
BRANCH   2  11
ATOM     11  O   UNL     1      -2.395 -15.354  -7.658  0.00  0.00    +0.000 OA
ATOM     12  H   UNL     1      -1.993 -16.195  -7.936  0.00  0.00    +0.000 HD
ENDBRANCH   2  11
BRANCH   1  13
ATOM     13  O   UNL     1      -1.338 -13.270  -6.154  0.00  0.00    +0.000 OA
BRANCH  13  14
ATOM     14  C   UNL     1      -0.375 -12.526  -5.408  0.00  0.00    +0.000 C 
ATOM     15  H   UNL     1       0.332 -12.009  -6.066  0.00  0.00    +0.000 HD
ATOM     16  H   UNL     1       0.129 -13.151  -4.663  0.00  0.00    +0.000 HD
ATOM     17  H   UNL     1      -0.921 -11.753  -4.858  0.00  0.00    +0.000 HD
ENDBRANCH  13  14
ENDBRANCH   1  13
TORSDOF 3
ENDMDL
MODEL 6
REMARK VINA RESULT:    -4.020     23.035     24.380
REMARK INTER + INTRA:          -4.541
REMARK INTER:                  -4.500
REMARK INTRA:                  -0.041
REMARK UNBOUND:                -0.051
REMARK  Name = 460
REMARK  3 active torsions:
REMARK  status: ('A' for Active; 'I' for Inactive)
REMARK    1  A    between atoms: O_1  and  C_3
REMARK    2  A    between atoms: O_1  and  C_9
REMARK    3  A    between atoms: O_2  and  C_4
REMARK                            x       y       z     vdW  Elec       q    Type
REMARK                         _______ _______ _______ _____ _____    ______ ____
ROOT
ATOM      1  C   UNL     1       4.962 -10.913 -24.419  0.00  0.00    +0.000 A 
ATOM      2  C   UNL     1       5.538 -12.131 -24.779  0.00  0.00    +0.000 A 
ATOM      3  C   UNL     1       5.584  -9.715 -24.772  0.00  0.00    +0.000 A 
ATOM      4  C   UNL     1       6.736 -12.151 -25.493  0.00  0.00    +0.000 A 
ATOM      5  C   UNL     1       6.782  -9.736 -25.485  0.00  0.00    +0.000 A 
ATOM      6  C   UNL     1       7.359 -10.954 -25.846  0.00  0.00    +0.000 A 
ATOM      7  H   UNL     1       5.195  -8.733 -24.526  0.00  0.00    +0.000 HD
ATOM      8  H   UNL     1       7.191 -13.097 -25.777  0.00  0.00    +0.000 HD
ATOM      9  H   UNL     1       7.267  -8.804 -25.761  0.00  0.00    +0.000 HD
ATOM     10  H   UNL     1       8.292 -10.970 -26.401  0.00  0.00    +0.000 HD
ENDROOT
BRANCH   2  11
ATOM     11  O   UNL     1       4.939 -13.307 -24.442  0.00  0.00    +0.000 OA
ATOM     12  H   UNL     1       5.540 -14.034 -24.678  0.00  0.00    +0.000 HD
ENDBRANCH   2  11
BRANCH   1  13
ATOM     13  O   UNL     1       3.791 -10.880 -23.722  0.00  0.00    +0.000 OA
BRANCH  13  14
ATOM     14  C   UNL     1       3.096  -9.635 -23.681  0.00  0.00    +0.000 C 
ATOM     15  H   UNL     1       3.134  -9.184 -22.684  0.00  0.00    +0.000 HD
ATOM     16  H   UNL     1       2.071  -9.732 -24.056  0.00  0.00    +0.000 HD
ATOM     17  H   UNL     1       3.619  -8.952 -24.359  0.00  0.00    +0.000 HD
ENDBRANCH  13  14
ENDBRANCH   1  13
TORSDOF 3
ENDMDL
MODEL 7
REMARK VINA RESULT:    -3.886     16.632     17.570
REMARK INTER + INTRA:          -4.391
REMARK INTER:                  -4.337
REMARK INTRA:                  -0.054
REMARK UNBOUND:                -0.051
REMARK  Name = 460
REMARK  3 active torsions:
REMARK  status: ('A' for Active; 'I' for Inactive)
REMARK    1  A    between atoms: O_1  and  C_3
REMARK    2  A    between atoms: O_1  and  C_9
REMARK    3  A    between atoms: O_2  and  C_4
REMARK                            x       y       z     vdW  Elec       q    Type
REMARK                         _______ _______ _______ _____ _____    ______ ____
ROOT
ATOM      1  C   UNL     1      -1.298 -13.771 -10.214  0.00  0.00    +0.000 A 
ATOM      2  C   UNL     1      -1.708 -14.467  -9.078  0.00  0.00    +0.000 A 
ATOM      3  C   UNL     1      -0.609 -12.565 -10.084  0.00  0.00    +0.000 A 
ATOM      4  C   UNL     1      -1.429 -13.957  -7.810  0.00  0.00    +0.000 A 
ATOM      5  C   UNL     1      -0.330 -12.056  -8.815  0.00  0.00    +0.000 A 
ATOM      6  C   UNL     1      -0.740 -12.752  -7.678  0.00  0.00    +0.000 A 
ATOM      7  H   UNL     1      -0.260 -11.971 -10.920  0.00  0.00    +0.000 HD
ATOM      8  H   UNL     1      -1.746 -14.496  -6.919  0.00  0.00    +0.000 HD
ATOM      9  H   UNL     1       0.207 -11.118  -8.712  0.00  0.00    +0.000 HD
ATOM     10  H   UNL     1      -0.523 -12.355  -6.691  0.00  0.00    +0.000 HD
ENDROOT
BRANCH   2  11
ATOM     11  O   UNL     1      -2.381 -15.647  -9.193  0.00  0.00    +0.000 OA
ATOM     12  H   UNL     1      -3.320 -15.448  -9.348  0.00  0.00    +0.000 HD
ENDBRANCH   2  11
BRANCH   1  13
ATOM     13  O   UNL     1      -1.565 -14.259 -11.459  0.00  0.00    +0.000 OA
BRANCH  13  14
ATOM     14  C   UNL     1      -0.457 -14.744 -12.215  0.00  0.00    +0.000 C 
ATOM     15  H   UNL     1       0.101 -15.510 -11.667  0.00  0.00    +0.000 HD
ATOM     16  H   UNL     1       0.186 -13.927 -12.561  0.00  0.00    +0.000 HD
ATOM     17  H   UNL     1      -0.865 -15.227 -13.110  0.00  0.00    +0.000 HD
ENDBRANCH  13  14
ENDBRANCH   1  13
TORSDOF 3
ENDMDL
MODEL 8
REMARK VINA RESULT:    -3.850     24.362     25.699
REMARK INTER + INTRA:          -4.352
REMARK INTER:                  -4.298
REMARK INTRA:                  -0.053
REMARK UNBOUND:                -0.051
REMARK  Name = 460
REMARK  3 active torsions:
REMARK  status: ('A' for Active; 'I' for Inactive)
REMARK    1  A    between atoms: O_1  and  C_3
REMARK    2  A    between atoms: O_1  and  C_9
REMARK    3  A    between atoms: O_2  and  C_4
REMARK                            x       y       z     vdW  Elec       q    Type
REMARK                         _______ _______ _______ _____ _____    ______ ____
ROOT
ATOM      1  C   UNL     1       4.886 -11.969 -25.276  0.00  0.00    +0.000 A 
ATOM      2  C   UNL     1       4.833 -13.300 -24.862  0.00  0.00    +0.000 A 
ATOM      3  C   UNL     1       4.920 -11.662 -26.636  0.00  0.00    +0.000 A 
ATOM      4  C   UNL     1       4.815 -14.324 -25.809  0.00  0.00    +0.000 A 
ATOM      5  C   UNL     1       4.902 -12.686 -27.582  0.00  0.00    +0.000 A 
ATOM      6  C   UNL     1       4.849 -14.018 -27.169  0.00  0.00    +0.000 A 
ATOM      7  H   UNL     1       4.962 -10.653 -27.030  0.00  0.00    +0.000 HD
ATOM      8  H   UNL     1       4.774 -15.364 -25.493  0.00  0.00    +0.000 HD
ATOM      9  H   UNL     1       4.928 -12.449 -28.642  0.00  0.00    +0.000 HD
ATOM     10  H   UNL     1       4.835 -14.815 -27.906  0.00  0.00    +0.000 HD
ENDROOT
BRANCH   2  11
ATOM     11  O   UNL     1       4.799 -13.612 -23.536  0.00  0.00    +0.000 OA
ATOM     12  H   UNL     1       5.180 -12.869 -23.038  0.00  0.00    +0.000 HD
ENDBRANCH   2  11
BRANCH   1  13
ATOM     13  O   UNL     1       4.905 -10.959 -24.360  0.00  0.00    +0.000 OA
BRANCH  13  14
ATOM     14  C   UNL     1       3.677 -10.271 -24.130  0.00  0.00    +0.000 C 
ATOM     15  H   UNL     1       3.534  -9.451 -24.842  0.00  0.00    +0.000 HD
ATOM     16  H   UNL     1       3.588  -9.940 -23.089  0.00  0.00    +0.000 HD
ATOM     17  H   UNL     1       2.868 -10.988 -24.305  0.00  0.00    +0.000 HD
ENDBRANCH  13  14
ENDBRANCH   1  13
TORSDOF 3
ENDMDL
MODEL 9
REMARK VINA RESULT:    -3.807     23.038     24.399
REMARK INTER + INTRA:          -4.303
REMARK INTER:                  -4.262
REMARK INTRA:                  -0.041
REMARK UNBOUND:                -0.051
REMARK  Name = 460
REMARK  3 active torsions:
REMARK  status: ('A' for Active; 'I' for Inactive)
REMARK    1  A    between atoms: O_1  and  C_3
REMARK    2  A    between atoms: O_1  and  C_9
REMARK    3  A    between atoms: O_2  and  C_4
REMARK                            x       y       z     vdW  Elec       q    Type
REMARK                         _______ _______ _______ _____ _____    ______ ____
ROOT
ATOM      1  C   UNL     1       5.037 -10.635 -24.694  0.00  0.00    +0.000 A 
ATOM      2  C   UNL     1       6.345 -10.401 -25.118  0.00  0.00    +0.000 A 
ATOM      3  C   UNL     1       4.536 -11.937 -24.659  0.00  0.00    +0.000 A 
ATOM      4  C   UNL     1       7.152 -11.470 -25.510  0.00  0.00    +0.000 A 
ATOM      5  C   UNL     1       5.344 -13.004 -25.051  0.00  0.00    +0.000 A 
ATOM      6  C   UNL     1       6.652 -12.771 -25.476  0.00  0.00    +0.000 A 
ATOM      7  H   UNL     1       3.532 -12.193 -24.341  0.00  0.00    +0.000 HD
ATOM      8  H   UNL     1       8.172 -11.294 -25.842  0.00  0.00    +0.000 HD
ATOM      9  H   UNL     1       4.956 -14.019 -25.024  0.00  0.00    +0.000 HD
ATOM     10  H   UNL     1       7.280 -13.603 -25.780  0.00  0.00    +0.000 HD
ENDROOT
BRANCH   2  11
ATOM     11  O   UNL     1       6.845  -9.135 -25.155  0.00  0.00    +0.000 OA
ATOM     12  H   UNL     1       7.630  -9.100 -24.581  0.00  0.00    +0.000 HD
ENDBRANCH   2  11
BRANCH   1  13
ATOM     13  O   UNL     1       4.239  -9.600 -24.309  0.00  0.00    +0.000 OA
BRANCH  13  14
ATOM     14  C   UNL     1       3.070  -9.927 -23.559  0.00  0.00    +0.000 C 
ATOM     15  H   UNL     1       3.168 -10.898 -23.062  0.00  0.00    +0.000 HD
ATOM     16  H   UNL     1       2.165  -9.862 -24.172  0.00  0.00    +0.000 HD
ATOM     17  H   UNL     1       2.974  -9.174 -22.769  0.00  0.00    +0.000 HD
ENDBRANCH  13  14
ENDBRANCH   1  13
TORSDOF 3
ENDMDL
MODEL 10
REMARK VINA RESULT:    -3.744     18.022     19.078
REMARK INTER + INTRA:          -4.234
REMARK INTER:                  -4.182
REMARK INTRA:                  -0.051
REMARK UNBOUND:                -0.051
REMARK  Name = 460
REMARK  3 active torsions:
REMARK  status: ('A' for Active; 'I' for Inactive)
REMARK    1  A    between atoms: O_1  and  C_3
REMARK    2  A    between atoms: O_1  and  C_9
REMARK    3  A    between atoms: O_2  and  C_4
REMARK                            x       y       z     vdW  Elec       q    Type
REMARK                         _______ _______ _______ _____ _____    ______ ____
ROOT
ATOM      1  C   UNL     1      -1.090 -14.450 -11.750  0.00  0.00    +0.000 A 
ATOM      2  C   UNL     1      -1.235 -15.833 -11.642  0.00  0.00    +0.000 A 
ATOM      3  C   UNL     1      -1.200 -13.646 -10.615  0.00  0.00    +0.000 A 
ATOM      4  C   UNL     1      -1.491 -16.412 -10.399  0.00  0.00    +0.000 A 
ATOM      5  C   UNL     1      -1.455 -14.226  -9.373  0.00  0.00    +0.000 A 
ATOM      6  C   UNL     1      -1.601 -15.609  -9.264  0.00  0.00    +0.000 A 
ATOM      7  H   UNL     1      -1.099 -12.567 -10.624  0.00  0.00    +0.000 HD
ATOM      8  H   UNL     1      -1.605 -17.490 -10.308  0.00  0.00    +0.000 HD
ATOM      9  H   UNL     1      -1.540 -13.601  -8.488  0.00  0.00    +0.000 HD
ATOM     10  H   UNL     1      -1.799 -16.060  -8.297  0.00  0.00    +0.000 HD
ENDROOT
BRANCH   2  11
ATOM     11  O   UNL     1      -1.129 -16.629 -12.743  0.00  0.00    +0.000 OA
ATOM     12  H   UNL     1      -0.191 -16.674 -12.997  0.00  0.00    +0.000 HD
ENDBRANCH   2  11
BRANCH   1  13
ATOM     13  O   UNL     1      -0.841 -13.872 -12.959  0.00  0.00    +0.000 OA
BRANCH  13  14
ATOM     14  C   UNL     1       0.369 -13.126 -13.083  0.00  0.00    +0.000 C 
ATOM     15  H   UNL     1       1.251 -13.764 -12.964  0.00  0.00    +0.000 HD
ATOM     16  H   UNL     1       0.383 -12.265 -12.405  0.00  0.00    +0.000 HD
ATOM     17  H   UNL     1       0.398 -12.728 -14.103  0.00  0.00    +0.000 HD
ENDBRANCH  13  14
ENDBRANCH   1  13
TORSDOF 3
ENDMDL
