MODEL 1
REMARK VINA RESULT:    -4.449      0.000      0.000
REMARK INTER + INTRA:          -7.411
REMARK INTER:                  -6.650
REMARK INTRA:                  -0.761
REMARK UNBOUND:                -0.881
REMARK  Name = 102861
REMARK  9 active torsions:
REMARK  status: ('A' for Active; 'I' for Inactive)
REMARK    1  A    between atoms: O_2  and  C_13
REMARK    2  A    between atoms: O_2  and  C_16
REMARK    3  A    between atoms: C_4  and  C_10
REMARK    4  A    between atoms: C_5  and  C_7
REMARK    5  A    between atoms: C_7  and  C_11
REMARK    6  A    between atoms: C_10  and  C_13
REMARK    7  A    between atoms: C_11  and  C_12
REMARK    8  A    between atoms: C_12  and  C_14
REMARK    9  A    between atoms: C_14  and  C_15
REMARK                            x       y       z     vdW  Elec       q    Type
REMARK                         _______ _______ _______ _____ _____    ______ ____
ROOT
ATOM      1  O   UNL     1     -18.611 -13.375   3.263  0.00  0.00    +0.000 OA
ATOM      2  C   UNL     1     -17.749 -10.063   2.279  0.00  0.00    +0.000 C 
ATOM      3  C   UNL     1     -18.230 -11.456   1.833  0.00  0.00    +0.000 C 
ATOM      4  C   UNL     1     -18.368  -9.871   3.668  0.00  0.00    +0.000 C 
ATOM      5  C   UNL     1     -18.300 -11.239   4.336  0.00  0.00    +0.000 C 
ATOM      6  C   UNL     1     -18.406 -12.171   3.157  0.00  0.00    +0.000 C 
ATOM      7  H   UNL     1     -18.099  -9.261   1.623  0.00  0.00    +0.000 HD
ATOM      8  H   UNL     1     -17.480 -11.995   1.245  0.00  0.00    +0.000 HD
ATOM      9  H   UNL     1     -17.863  -9.103   4.261  0.00  0.00    +0.000 HD
ATOM     10  H   UNL     1     -19.418  -9.566   3.565  0.00  0.00    +0.000 HD
ATOM     11  H   UNL     1     -17.340 -11.399   4.833  0.00  0.00    +0.000 HD
ATOM     12  H   UNL     1     -19.125 -11.390   5.034  0.00  0.00    +0.000 HD
ENDROOT
BRANCH   3  13
ATOM     13  C   UNL     1     -19.558 -11.413   1.091  0.00  0.00    +0.000 C 
ATOM     14  H   UNL     1     -20.119 -10.504   1.348  0.00  0.00    +0.000 HD
ATOM     15  H   UNL     1     -20.184 -12.254   1.415  0.00  0.00    +0.000 HD
BRANCH  13  16
ATOM     16  C   UNL     1     -19.361 -11.488  -0.424  0.00  0.00    +0.000 C 
ATOM     17  H   UNL     1     -19.667 -12.478  -0.784  0.00  0.00    +0.000 HD
ATOM     18  H   UNL     1     -18.307 -11.360  -0.690  0.00  0.00    +0.000 HD
BRANCH  16  19
ATOM     19  C   UNL     1     -20.172 -10.412  -1.148  0.00  0.00    +0.000 C 
ATOM     20  H   UNL     1     -21.137 -10.829  -1.464  0.00  0.00    +0.000 HD
ATOM     21  H   UNL     1     -20.387  -9.588  -0.456  0.00  0.00    +0.000 HD
BRANCH  19  22
ATOM     22  C   UNL     1     -19.421  -9.874  -2.365  0.00  0.00    +0.000 C 
ATOM     23  H   UNL     1     -20.027  -9.113  -2.869  0.00  0.00    +0.000 HD
ATOM     24  H   UNL     1     -19.248 -10.682  -3.085  0.00  0.00    +0.000 HD
BRANCH  22  25
ATOM     25  C   UNL     1     -18.083  -9.267  -1.969  0.00  0.00    +0.000 C 
ATOM     26  H   UNL     1     -18.108  -8.903  -0.938  0.00  0.00    +0.000 HD
ATOM     27  H   UNL     1     -17.843  -8.423  -2.623  0.00  0.00    +0.000 HD
ATOM     28  H   UNL     1     -17.278 -10.005  -2.055  0.00  0.00    +0.000 HD
ENDBRANCH  22  25
ENDBRANCH  19  22
ENDBRANCH  16  19
ENDBRANCH  13  16
ENDBRANCH   3  13
BRANCH   2  29
ATOM     29  C   UNL     1     -16.221  -9.985   2.331  0.00  0.00    +0.000 C 
ATOM     30  H   UNL     1     -15.792 -10.993   2.371  0.00  0.00    +0.000 HD
ATOM     31  H   UNL     1     -15.896  -9.447   3.229  0.00  0.00    +0.000 HD
BRANCH  29  33
ATOM     32  O   UNL     1     -16.034  -8.183   0.710  0.00  0.00    +0.000 OA
ATOM     33  C   UNL     1     -15.651  -9.265   1.134  0.00  0.00    +0.000 C 
BRANCH  33  34
ATOM     34  O   UNL     1     -14.642 -10.019   0.607  0.00  0.00    +0.000 OA
BRANCH  34  35
ATOM     35  C   UNL     1     -15.017 -10.887  -0.468  0.00  0.00    +0.000 C 
ATOM     36  H   UNL     1     -14.470 -10.621  -1.377  0.00  0.00    +0.000 HD
ATOM     37  H   UNL     1     -14.831 -11.930  -0.195  0.00  0.00    +0.000 HD
ATOM     38  H   UNL     1     -16.088 -10.758  -0.651  0.00  0.00    +0.000 HD
ENDBRANCH  34  35
ENDBRANCH  33  34
ENDBRANCH  29  33
ENDBRANCH   2  29
TORSDOF 9
ENDMDL
MODEL 2
REMARK VINA RESULT:    -4.370      1.974      3.039
REMARK INTER + INTRA:          -7.294
REMARK INTER:                  -6.676
REMARK INTRA:                  -0.618
REMARK UNBOUND:                -0.881
REMARK  Name = 102861
REMARK  9 active torsions:
REMARK  status: ('A' for Active; 'I' for Inactive)
REMARK    1  A    between atoms: O_2  and  C_13
REMARK    2  A    between atoms: O_2  and  C_16
REMARK    3  A    between atoms: C_4  and  C_10
REMARK    4  A    between atoms: C_5  and  C_7
REMARK    5  A    between atoms: C_7  and  C_11
REMARK    6  A    between atoms: C_10  and  C_13
REMARK    7  A    between atoms: C_11  and  C_12
REMARK    8  A    between atoms: C_12  and  C_14
REMARK    9  A    between atoms: C_14  and  C_15
REMARK                            x       y       z     vdW  Elec       q    Type
REMARK                         _______ _______ _______ _____ _____    ______ ____
ROOT
ATOM      1  O   UNL     1     -18.355 -10.684   2.616  0.00  0.00    +0.000 OA
ATOM      2  C   UNL     1     -16.261  -9.980  -0.175  0.00  0.00    +0.000 C 
ATOM      3  C   UNL     1     -17.490 -10.741   0.353  0.00  0.00    +0.000 C 
ATOM      4  C   UNL     1     -16.255  -8.665   0.612  0.00  0.00    +0.000 C 
ATOM      5  C   UNL     1     -16.701  -9.035   2.022  0.00  0.00    +0.000 C 
ATOM      6  C   UNL     1     -17.608 -10.211   1.768  0.00  0.00    +0.000 C 
ATOM      7  H   UNL     1     -16.328  -9.751  -1.243  0.00  0.00    +0.000 HD
ATOM      8  H   UNL     1     -17.331 -11.823   0.401  0.00  0.00    +0.000 HD
ATOM      9  H   UNL     1     -15.281  -8.168   0.611  0.00  0.00    +0.000 HD
ATOM     10  H   UNL     1     -16.979  -7.968   0.172  0.00  0.00    +0.000 HD
ATOM     11  H   UNL     1     -15.859  -9.360   2.641  0.00  0.00    +0.000 HD
ATOM     12  H   UNL     1     -17.240  -8.218   2.504  0.00  0.00    +0.000 HD
ENDROOT
BRANCH   3  13
ATOM     13  C   UNL     1     -18.760 -10.422  -0.423  0.00  0.00    +0.000 C 
ATOM     14  H   UNL     1     -19.378  -9.696   0.122  0.00  0.00    +0.000 HD
ATOM     15  H   UNL     1     -19.370 -11.331  -0.510  0.00  0.00    +0.000 HD
BRANCH  13  16
ATOM     16  C   UNL     1     -18.448  -9.890  -1.822  0.00  0.00    +0.000 C 
ATOM     17  H   UNL     1     -17.917 -10.660  -2.396  0.00  0.00    +0.000 HD
ATOM     18  H   UNL     1     -17.792  -9.015  -1.773  0.00  0.00    +0.000 HD
BRANCH  16  19
ATOM     19  C   UNL     1     -19.723  -9.492  -2.567  0.00  0.00    +0.000 C 
ATOM     20  H   UNL     1     -19.868  -8.407  -2.498  0.00  0.00    +0.000 HD
ATOM     21  H   UNL     1     -19.616  -9.737  -3.632  0.00  0.00    +0.000 HD
BRANCH  19  22
ATOM     22  C   UNL     1     -20.946 -10.212  -2.000  0.00  0.00    +0.000 C 
ATOM     23  H   UNL     1     -21.088  -9.932  -0.949  0.00  0.00    +0.000 HD
ATOM     24  H   UNL     1     -20.789 -11.296  -2.029  0.00  0.00    +0.000 HD
BRANCH  22  25
ATOM     25  C   UNL     1     -22.206  -9.871  -2.781  0.00  0.00    +0.000 C 
ATOM     26  H   UNL     1     -22.069 -10.066  -3.849  0.00  0.00    +0.000 HD
ATOM     27  H   UNL     1     -22.453  -8.813  -2.657  0.00  0.00    +0.000 HD
ATOM     28  H   UNL     1     -23.056 -10.464  -2.429  0.00  0.00    +0.000 HD
ENDBRANCH  22  25
ENDBRANCH  19  22
ENDBRANCH  16  19
ENDBRANCH  13  16
ENDBRANCH   3  13
BRANCH   2  29
ATOM     29  C   UNL     1     -14.969 -10.772   0.047  0.00  0.00    +0.000 C 
ATOM     30  H   UNL     1     -15.186 -11.705   0.580  0.00  0.00    +0.000 HD
ATOM     31  H   UNL     1     -14.266 -10.194   0.657  0.00  0.00    +0.000 HD
BRANCH  29  33
ATOM     32  O   UNL     1     -13.096 -11.388  -1.374  0.00  0.00    +0.000 OA
ATOM     33  C   UNL     1     -14.280 -11.107  -1.253  0.00  0.00    +0.000 C 
BRANCH  33  34
ATOM     34  O   UNL     1     -15.196 -11.046  -2.265  0.00  0.00    +0.000 OA
BRANCH  34  35
ATOM     35  C   UNL     1     -14.668 -11.210  -3.585  0.00  0.00    +0.000 C 
ATOM     36  H   UNL     1     -13.752 -11.808  -3.554  0.00  0.00    +0.000 HD
ATOM     37  H   UNL     1     -15.414 -11.676  -4.236  0.00  0.00    +0.000 HD
ATOM     38  H   UNL     1     -14.428 -10.219  -3.981  0.00  0.00    +0.000 HD
ENDBRANCH  34  35
ENDBRANCH  33  34
ENDBRANCH  29  33
ENDBRANCH   2  29
TORSDOF 9
ENDMDL
MODEL 3
REMARK VINA RESULT:    -4.320     33.511     35.864
REMARK INTER + INTRA:          -7.222
REMARK INTER:                  -6.296
REMARK INTRA:                  -0.926
REMARK UNBOUND:                -0.881
REMARK  Name = 102861
REMARK  9 active torsions:
REMARK  status: ('A' for Active; 'I' for Inactive)
REMARK    1  A    between atoms: O_2  and  C_13
REMARK    2  A    between atoms: O_2  and  C_16
REMARK    3  A    between atoms: C_4  and  C_10
REMARK    4  A    between atoms: C_5  and  C_7
REMARK    5  A    between atoms: C_7  and  C_11
REMARK    6  A    between atoms: C_10  and  C_13
REMARK    7  A    between atoms: C_11  and  C_12
REMARK    8  A    between atoms: C_12  and  C_14
REMARK    9  A    between atoms: C_14  and  C_15
REMARK                            x       y       z     vdW  Elec       q    Type
REMARK                         _______ _______ _______ _____ _____    ______ ____
ROOT
ATOM      1  O   UNL     1       2.831  12.751 -15.249  0.00  0.00    +0.000 OA
ATOM      2  C   UNL     1       5.616  13.571 -13.188  0.00  0.00    +0.000 C 
ATOM      3  C   UNL     1       4.163  13.066 -13.249  0.00  0.00    +0.000 C 
ATOM      4  C   UNL     1       6.267  13.021 -14.462  0.00  0.00    +0.000 C 
ATOM      5  C   UNL     1       5.195  13.119 -15.540  0.00  0.00    +0.000 C 
ATOM      6  C   UNL     1       3.928  12.953 -14.742  0.00  0.00    +0.000 C 
ATOM      7  H   UNL     1       6.163  13.192 -12.320  0.00  0.00    +0.000 HD
ATOM      8  H   UNL     1       3.446  13.785 -12.840  0.00  0.00    +0.000 HD
ATOM      9  H   UNL     1       7.178  13.557 -14.745  0.00  0.00    +0.000 HD
ATOM     10  H   UNL     1       6.540  11.969 -14.312  0.00  0.00    +0.000 HD
ATOM     11  H   UNL     1       5.190  14.102 -16.019  0.00  0.00    +0.000 HD
ATOM     12  H   UNL     1       5.297  12.328 -16.286  0.00  0.00    +0.000 HD
ENDROOT
BRANCH   3  13
ATOM     13  C   UNL     1       3.983  11.703 -12.596  0.00  0.00    +0.000 C 
ATOM     14  H   UNL     1       4.949  11.302 -12.261  0.00  0.00    +0.000 HD
ATOM     15  H   UNL     1       3.601  10.991 -13.338  0.00  0.00    +0.000 HD
BRANCH  13  16
ATOM     16  C   UNL     1       3.013  11.768 -11.416  0.00  0.00    +0.000 C 
ATOM     17  H   UNL     1       2.853  10.758 -11.018  0.00  0.00    +0.000 HD
ATOM     18  H   UNL     1       2.037  12.149 -11.729  0.00  0.00    +0.000 HD
BRANCH  16  19
ATOM     19  C   UNL     1       3.545  12.671 -10.302  0.00  0.00    +0.000 C 
ATOM     20  H   UNL     1       3.880  12.057  -9.457  0.00  0.00    +0.000 HD
ATOM     21  H   UNL     1       4.421  13.224 -10.666  0.00  0.00    +0.000 HD
BRANCH  19  22
ATOM     22  C   UNL     1       2.480  13.659  -9.830  0.00  0.00    +0.000 C 
ATOM     23  H   UNL     1       1.619  13.113  -9.426  0.00  0.00    +0.000 HD
ATOM     24  H   UNL     1       2.119  14.253 -10.677  0.00  0.00    +0.000 HD
BRANCH  22  25
ATOM     25  C   UNL     1       3.022  14.596  -8.761  0.00  0.00    +0.000 C 
ATOM     26  H   UNL     1       3.936  15.091  -9.101  0.00  0.00    +0.000 HD
ATOM     27  H   UNL     1       3.257  14.035  -7.851  0.00  0.00    +0.000 HD
ATOM     28  H   UNL     1       2.287  15.366  -8.507  0.00  0.00    +0.000 HD
ENDBRANCH  22  25
ENDBRANCH  19  22
ENDBRANCH  16  19
ENDBRANCH  13  16
ENDBRANCH   3  13
BRANCH   2  29
ATOM     29  C   UNL     1       5.679  15.100 -13.143  0.00  0.00    +0.000 C 
ATOM     30  H   UNL     1       4.975  15.530 -13.866  0.00  0.00    +0.000 HD
ATOM     31  H   UNL     1       6.683  15.450 -13.405  0.00  0.00    +0.000 HD
BRANCH  29  33
ATOM     32  O   UNL     1       4.571  16.553 -11.538  0.00  0.00    +0.000 OA
ATOM     33  C   UNL     1       5.350  15.639 -11.771  0.00  0.00    +0.000 C 
BRANCH  33  34
ATOM     34  O   UNL     1       6.063  14.937 -10.841  0.00  0.00    +0.000 OA
BRANCH  34  35
ATOM     35  C   UNL     1       6.546  15.701  -9.731  0.00  0.00    +0.000 C 
ATOM     36  H   UNL     1       5.862  16.527  -9.513  0.00  0.00    +0.000 HD
ATOM     37  H   UNL     1       6.669  15.059  -8.854  0.00  0.00    +0.000 HD
ATOM     38  H   UNL     1       7.522  16.116 -10.002  0.00  0.00    +0.000 HD
ENDBRANCH  34  35
ENDBRANCH  33  34
ENDBRANCH  29  33
ENDBRANCH   2  29
TORSDOF 9
ENDMDL
MODEL 4
REMARK VINA RESULT:    -4.270     33.594     36.033
REMARK INTER + INTRA:          -7.148
REMARK INTER:                  -6.234
REMARK INTRA:                  -0.914
REMARK UNBOUND:                -0.881
REMARK  Name = 102861
REMARK  9 active torsions:
REMARK  status: ('A' for Active; 'I' for Inactive)
REMARK    1  A    between atoms: O_2  and  C_13
REMARK    2  A    between atoms: O_2  and  C_16
REMARK    3  A    between atoms: C_4  and  C_10
REMARK    4  A    between atoms: C_5  and  C_7
REMARK    5  A    between atoms: C_7  and  C_11
REMARK    6  A    between atoms: C_10  and  C_13
REMARK    7  A    between atoms: C_11  and  C_12
REMARK    8  A    between atoms: C_12  and  C_14
REMARK    9  A    between atoms: C_14  and  C_15
REMARK                            x       y       z     vdW  Elec       q    Type
REMARK                         _______ _______ _______ _____ _____    ______ ____
ROOT
ATOM      1  O   UNL     1       7.066  16.261 -11.077  0.00  0.00    +0.000 OA
ATOM      2  C   UNL     1       4.790  14.063 -12.709  0.00  0.00    +0.000 C 
ATOM      3  C   UNL     1       5.475  14.459 -11.389  0.00  0.00    +0.000 C 
ATOM      4  C   UNL     1       4.601  15.387 -13.456  0.00  0.00    +0.000 C 
ATOM      5  C   UNL     1       5.853  16.203 -13.159  0.00  0.00    +0.000 C 
ATOM      6  C   UNL     1       6.234  15.710 -11.788  0.00  0.00    +0.000 C 
ATOM      7  H   UNL     1       3.810  13.600 -12.559  0.00  0.00    +0.000 HD
ATOM      8  H   UNL     1       6.198  13.711 -11.045  0.00  0.00    +0.000 HD
ATOM      9  H   UNL     1       4.447  15.256 -14.532  0.00  0.00    +0.000 HD
ATOM     10  H   UNL     1       3.721  15.911 -13.061  0.00  0.00    +0.000 HD
ATOM     11  H   UNL     1       6.661  15.974 -13.859  0.00  0.00    +0.000 HD
ATOM     12  H   UNL     1       5.645  17.275 -13.149  0.00  0.00    +0.000 HD
ENDROOT
BRANCH   3  13
ATOM     13  C   UNL     1       4.483  14.790 -10.284  0.00  0.00    +0.000 C 
ATOM     14  H   UNL     1       3.751  15.533 -10.627  0.00  0.00    +0.000 HD
ATOM     15  H   UNL     1       5.014  15.256  -9.445  0.00  0.00    +0.000 HD
BRANCH  13  16
ATOM     16  C   UNL     1       3.756  13.540  -9.787  0.00  0.00    +0.000 C 
ATOM     17  H   UNL     1       4.189  13.221  -8.831  0.00  0.00    +0.000 HD
ATOM     18  H   UNL     1       3.876  12.709 -10.488  0.00  0.00    +0.000 HD
BRANCH  16  19
ATOM     19  C   UNL     1       2.259  13.798  -9.602  0.00  0.00    +0.000 C 
ATOM     20  H   UNL     1       2.009  13.769  -8.535  0.00  0.00    +0.000 HD
ATOM     21  H   UNL     1       2.015  14.805  -9.964  0.00  0.00    +0.000 HD
BRANCH  19  22
ATOM     22  C   UNL     1       1.420  12.769 -10.356  0.00  0.00    +0.000 C 
ATOM     23  H   UNL     1       0.724  13.279 -11.033  0.00  0.00    +0.000 HD
ATOM     24  H   UNL     1       0.818  12.187  -9.649  0.00  0.00    +0.000 HD
BRANCH  22  25
ATOM     25  C   UNL     1       2.294  11.820 -11.162  0.00  0.00    +0.000 C 
ATOM     26  H   UNL     1       2.111  11.934 -12.235  0.00  0.00    +0.000 HD
ATOM     27  H   UNL     1       2.078  10.782 -10.888  0.00  0.00    +0.000 HD
ATOM     28  H   UNL     1       3.356  12.009 -10.972  0.00  0.00    +0.000 HD
ENDBRANCH  22  25
ENDBRANCH  19  22
ENDBRANCH  16  19
ENDBRANCH  13  16
ENDBRANCH   3  13
BRANCH   2  29
ATOM     29  C   UNL     1       5.645  13.082 -13.516  0.00  0.00    +0.000 C 
ATOM     30  H   UNL     1       6.165  12.391 -12.842  0.00  0.00    +0.000 HD
ATOM     31  H   UNL     1       6.405  13.621 -14.093  0.00  0.00    +0.000 HD
BRANCH  29  33
ATOM     32  O   UNL     1       3.956  11.465 -14.180  0.00  0.00    +0.000 OA
ATOM     33  C   UNL     1       4.818  12.276 -14.488  0.00  0.00    +0.000 C 
BRANCH  33  34
ATOM     34  O   UNL     1       5.191  12.604 -15.760  0.00  0.00    +0.000 OA
BRANCH  34  35
ATOM     35  C   UNL     1       6.580  12.898 -15.939  0.00  0.00    +0.000 C 
ATOM     36  H   UNL     1       7.193  12.184 -15.380  0.00  0.00    +0.000 HD
ATOM     37  H   UNL     1       6.838  12.881 -17.002  0.00  0.00    +0.000 HD
ATOM     38  H   UNL     1       6.769  13.903 -15.548  0.00  0.00    +0.000 HD
ENDBRANCH  34  35
ENDBRANCH  33  34
ENDBRANCH  29  33
ENDBRANCH   2  29
TORSDOF 9
ENDMDL
MODEL 5
REMARK VINA RESULT:    -4.175     27.639     29.595
REMARK INTER + INTRA:          -7.008
REMARK INTER:                  -5.903
REMARK INTRA:                  -1.105
REMARK UNBOUND:                -0.881
REMARK  Name = 102861
REMARK  9 active torsions:
REMARK  status: ('A' for Active; 'I' for Inactive)
REMARK    1  A    between atoms: O_2  and  C_13
REMARK    2  A    between atoms: O_2  and  C_16
REMARK    3  A    between atoms: C_4  and  C_10
REMARK    4  A    between atoms: C_5  and  C_7
REMARK    5  A    between atoms: C_7  and  C_11
REMARK    6  A    between atoms: C_10  and  C_13
REMARK    7  A    between atoms: C_11  and  C_12
REMARK    8  A    between atoms: C_12  and  C_14
REMARK    9  A    between atoms: C_14  and  C_15
REMARK                            x       y       z     vdW  Elec       q    Type
REMARK                         _______ _______ _______ _____ _____    ______ ____
ROOT
ATOM      1  O   UNL     1      -1.702  10.495  14.040  0.00  0.00    +0.000 OA
ATOM      2  C   UNL     1      -1.677  11.552  10.640  0.00  0.00    +0.000 C 
ATOM      3  C   UNL     1      -0.906  11.471  11.970  0.00  0.00    +0.000 C 
ATOM      4  C   UNL     1      -2.519  10.272  10.608  0.00  0.00    +0.000 C 
ATOM      5  C   UNL     1      -2.978  10.051  12.044  0.00  0.00    +0.000 C 
ATOM      6  C   UNL     1      -1.844  10.652  12.833  0.00  0.00    +0.000 C 
ATOM      7  H   UNL     1      -1.019  11.563   9.766  0.00  0.00    +0.000 HD
ATOM      8  H   UNL     1      -0.768  12.450  12.441  0.00  0.00    +0.000 HD
ATOM      9  H   UNL     1      -3.365  10.332   9.915  0.00  0.00    +0.000 HD
ATOM     10  H   UNL     1      -1.895   9.427  10.289  0.00  0.00    +0.000 HD
ATOM     11  H   UNL     1      -3.898  10.600  12.264  0.00  0.00    +0.000 HD
ATOM     12  H   UNL     1      -3.099   8.990  12.272  0.00  0.00    +0.000 HD
ENDROOT
BRANCH   3  13
ATOM     13  C   UNL     1       0.429  10.752  11.837  0.00  0.00    +0.000 C 
ATOM     14  H   UNL     1       0.312   9.676  12.020  0.00  0.00    +0.000 HD
ATOM     15  H   UNL     1       1.118  11.116  12.610  0.00  0.00    +0.000 HD
BRANCH  13  16
ATOM     16  C   UNL     1       1.055  10.977  10.460  0.00  0.00    +0.000 C 
ATOM     17  H   UNL     1       2.003  11.517  10.573  0.00  0.00    +0.000 HD
ATOM     18  H   UNL     1       0.407  11.592   9.828  0.00  0.00    +0.000 HD
BRANCH  16  19
ATOM     19  C   UNL     1       1.310   9.652   9.738  0.00  0.00    +0.000 C 
ATOM     20  H   UNL     1       0.586   9.530   8.923  0.00  0.00    +0.000 HD
ATOM     21  H   UNL     1       2.309   9.670   9.282  0.00  0.00    +0.000 HD
BRANCH  19  22
ATOM     22  C   UNL     1       1.210   8.468  10.698  0.00  0.00    +0.000 C 
ATOM     23  H   UNL     1       1.112   8.830  11.727  0.00  0.00    +0.000 HD
ATOM     24  H   UNL     1       2.127   7.869  10.650  0.00  0.00    +0.000 HD
BRANCH  22  25
ATOM     25  C   UNL     1       0.020   7.580  10.365  0.00  0.00    +0.000 C 
ATOM     26  H   UNL     1      -0.885   8.177  10.216  0.00  0.00    +0.000 HD
ATOM     27  H   UNL     1      -0.167   6.877  11.182  0.00  0.00    +0.000 HD
ATOM     28  H   UNL     1       0.206   7.002   9.454  0.00  0.00    +0.000 HD
ENDBRANCH  22  25
ENDBRANCH  19  22
ENDBRANCH  16  19
ENDBRANCH  13  16
ENDBRANCH   3  13
BRANCH   2  29
ATOM     29  C   UNL     1      -2.556  12.803  10.574  0.00  0.00    +0.000 C 
ATOM     30  H   UNL     1      -3.123  12.917  11.506  0.00  0.00    +0.000 HD
ATOM     31  H   UNL     1      -3.277  12.722   9.753  0.00  0.00    +0.000 HD
BRANCH  29  33
ATOM     32  O   UNL     1      -0.943  14.224   9.439  0.00  0.00    +0.000 OA
ATOM     33  C   UNL     1      -1.743  14.054  10.349  0.00  0.00    +0.000 C 
BRANCH  33  34
ATOM     34  O   UNL     1      -2.048  14.959  11.325  0.00  0.00    +0.000 OA
BRANCH  34  35
ATOM     35  C   UNL     1      -3.048  14.543  12.261  0.00  0.00    +0.000 C 
ATOM     36  H   UNL     1      -3.742  13.842  11.786  0.00  0.00    +0.000 HD
ATOM     37  H   UNL     1      -2.580  14.089  13.139  0.00  0.00    +0.000 HD
ATOM     38  H   UNL     1      -3.607  15.428  12.579  0.00  0.00    +0.000 HD
ENDBRANCH  34  35
ENDBRANCH  33  34
ENDBRANCH  29  33
ENDBRANCH   2  29
TORSDOF 9
ENDMDL
MODEL 6
REMARK VINA RESULT:    -4.174     25.656     27.351
REMARK INTER + INTRA:          -7.007
REMARK INTER:                  -6.981
REMARK INTRA:                  -0.026
REMARK UNBOUND:                -0.881
REMARK  Name = 102861
REMARK  9 active torsions:
REMARK  status: ('A' for Active; 'I' for Inactive)
REMARK    1  A    between atoms: O_2  and  C_13
REMARK    2  A    between atoms: O_2  and  C_16
REMARK    3  A    between atoms: C_4  and  C_10
REMARK    4  A    between atoms: C_5  and  C_7
REMARK    5  A    between atoms: C_7  and  C_11
REMARK    6  A    between atoms: C_10  and  C_13
REMARK    7  A    between atoms: C_11  and  C_12
REMARK    8  A    between atoms: C_12  and  C_14
REMARK    9  A    between atoms: C_14  and  C_15
REMARK                            x       y       z     vdW  Elec       q    Type
REMARK                         _______ _______ _______ _____ _____    ______ ____
ROOT
ATOM      1  O   UNL     1       4.940  -6.197  20.563  0.00  0.00    +0.000 OA
ATOM      2  C   UNL     1       1.484  -6.318  19.716  0.00  0.00    +0.000 C 
ATOM      3  C   UNL     1       2.687  -5.436  20.096  0.00  0.00    +0.000 C 
ATOM      4  C   UNL     1       2.090  -7.460  18.895  0.00  0.00    +0.000 C 
ATOM      5  C   UNL     1       3.421  -7.780  19.565  0.00  0.00    +0.000 C 
ATOM      6  C   UNL     1       3.821  -6.441  20.128  0.00  0.00    +0.000 C 
ATOM      7  H   UNL     1       0.748  -5.792  19.100  0.00  0.00    +0.000 HD
ATOM      8  H   UNL     1       2.590  -4.992  21.093  0.00  0.00    +0.000 HD
ATOM      9  H   UNL     1       1.442  -8.340  18.838  0.00  0.00    +0.000 HD
ATOM     10  H   UNL     1       2.271  -7.121  17.867  0.00  0.00    +0.000 HD
ATOM     11  H   UNL     1       3.301  -8.492  20.386  0.00  0.00    +0.000 HD
ATOM     12  H   UNL     1       4.159  -8.142  18.846  0.00  0.00    +0.000 HD
ENDROOT
BRANCH   3  13
ATOM     13  C   UNL     1       2.982  -4.360  19.061  0.00  0.00    +0.000 C 
ATOM     14  H   UNL     1       4.033  -4.048  19.112  0.00  0.00    +0.000 HD
ATOM     15  H   UNL     1       2.390  -3.464  19.287  0.00  0.00    +0.000 HD
BRANCH  13  16
ATOM     16  C   UNL     1       2.652  -4.835  17.645  0.00  0.00    +0.000 C 
ATOM     17  H   UNL     1       1.720  -5.413  17.661  0.00  0.00    +0.000 HD
ATOM     18  H   UNL     1       3.434  -5.496  17.259  0.00  0.00    +0.000 HD
BRANCH  16  19
ATOM     19  C   UNL     1       2.502  -3.657  16.680  0.00  0.00    +0.000 C 
ATOM     20  H   UNL     1       1.469  -3.611  16.312  0.00  0.00    +0.000 HD
ATOM     21  H   UNL     1       2.696  -2.719  17.215  0.00  0.00    +0.000 HD
BRANCH  19  22
ATOM     22  C   UNL     1       3.464  -3.779  15.500  0.00  0.00    +0.000 C 
ATOM     23  H   UNL     1       4.425  -3.316  15.754  0.00  0.00    +0.000 HD
ATOM     24  H   UNL     1       3.063  -3.241  14.633  0.00  0.00    +0.000 HD
BRANCH  22  25
ATOM     25  C   UNL     1       3.695  -5.233  15.117  0.00  0.00    +0.000 C 
ATOM     26  H   UNL     1       4.757  -5.427  14.939  0.00  0.00    +0.000 HD
ATOM     27  H   UNL     1       3.147  -5.475  14.202  0.00  0.00    +0.000 HD
ATOM     28  H   UNL     1       3.350  -5.905  15.909  0.00  0.00    +0.000 HD
ENDBRANCH  22  25
ENDBRANCH  19  22
ENDBRANCH  16  19
ENDBRANCH  13  16
ENDBRANCH   3  13
BRANCH   2  29
ATOM     29  C   UNL     1       0.757  -6.844  20.957  0.00  0.00    +0.000 C 
ATOM     30  H   UNL     1       0.672  -6.051  21.709  0.00  0.00    +0.000 HD
ATOM     31  H   UNL     1       1.316  -7.673  21.405  0.00  0.00    +0.000 HD
BRANCH  29  33
ATOM     32  O   UNL     1      -0.916  -8.512  20.383  0.00  0.00    +0.000 OA
ATOM     33  C   UNL     1      -0.627  -7.349  20.629  0.00  0.00    +0.000 C 
BRANCH  33  34
ATOM     34  O   UNL     1      -1.497  -6.296  20.654  0.00  0.00    +0.000 OA
BRANCH  34  35
ATOM     35  C   UNL     1      -2.718  -6.521  21.366  0.00  0.00    +0.000 C 
ATOM     36  H   UNL     1      -3.134  -7.498  21.103  0.00  0.00    +0.000 HD
ATOM     37  H   UNL     1      -2.546  -6.452  22.445  0.00  0.00    +0.000 HD
ATOM     38  H   UNL     1      -3.431  -5.745  21.074  0.00  0.00    +0.000 HD
ENDBRANCH  34  35
ENDBRANCH  33  34
ENDBRANCH  29  33
ENDBRANCH   2  29
TORSDOF 9
ENDMDL
MODEL 7
REMARK VINA RESULT:    -4.113     33.037     35.505
REMARK INTER + INTRA:          -6.918
REMARK INTER:                  -6.212
REMARK INTRA:                  -0.706
REMARK UNBOUND:                -0.881
REMARK  Name = 102861
REMARK  9 active torsions:
REMARK  status: ('A' for Active; 'I' for Inactive)
REMARK    1  A    between atoms: O_2  and  C_13
REMARK    2  A    between atoms: O_2  and  C_16
REMARK    3  A    between atoms: C_4  and  C_10
REMARK    4  A    between atoms: C_5  and  C_7
REMARK    5  A    between atoms: C_7  and  C_11
REMARK    6  A    between atoms: C_10  and  C_13
REMARK    7  A    between atoms: C_11  and  C_12
REMARK    8  A    between atoms: C_12  and  C_14
REMARK    9  A    between atoms: C_14  and  C_15
REMARK                            x       y       z     vdW  Elec       q    Type
REMARK                         _______ _______ _______ _____ _____    ______ ____
ROOT
ATOM      1  O   UNL     1       3.387  17.012  -9.405  0.00  0.00    +0.000 OA
ATOM      2  C   UNL     1       3.596  13.496  -9.926  0.00  0.00    +0.000 C 
ATOM      3  C   UNL     1       4.341  14.789  -9.547  0.00  0.00    +0.000 C 
ATOM      4  C   UNL     1       2.184  13.688  -9.360  0.00  0.00    +0.000 C 
ATOM      5  C   UNL     1       1.856  15.159  -9.580  0.00  0.00    +0.000 C 
ATOM      6  C   UNL     1       3.215  15.803  -9.498  0.00  0.00    +0.000 C 
ATOM      7  H   UNL     1       4.038  12.602  -9.476  0.00  0.00    +0.000 HD
ATOM      8  H   UNL     1       5.058  15.105 -10.312  0.00  0.00    +0.000 HD
ATOM      9  H   UNL     1       1.442  13.032  -9.825  0.00  0.00    +0.000 HD
ATOM     10  H   UNL     1       2.185  13.470  -8.285  0.00  0.00    +0.000 HD
ATOM     11  H   UNL     1       1.435  15.337 -10.573  0.00  0.00    +0.000 HD
ATOM     12  H   UNL     1       1.190  15.545  -8.805  0.00  0.00    +0.000 HD
ENDROOT
BRANCH   3  13
ATOM     13  C   UNL     1       5.017  14.704  -8.186  0.00  0.00    +0.000 C 
ATOM     14  H   UNL     1       5.153  13.658  -7.883  0.00  0.00    +0.000 HD
ATOM     15  H   UNL     1       4.365  15.156  -7.427  0.00  0.00    +0.000 HD
BRANCH  13  16
ATOM     16  C   UNL     1       6.366  15.424  -8.181  0.00  0.00    +0.000 C 
ATOM     17  H   UNL     1       7.076  14.866  -7.558  0.00  0.00    +0.000 HD
ATOM     18  H   UNL     1       6.277  16.425  -7.751  0.00  0.00    +0.000 HD
BRANCH  16  19
ATOM     19  C   UNL     1       6.934  15.559  -9.596  0.00  0.00    +0.000 C 
ATOM     20  H   UNL     1       7.825  14.927  -9.698  0.00  0.00    +0.000 HD
ATOM     21  H   UNL     1       6.196  15.196 -10.322  0.00  0.00    +0.000 HD
BRANCH  19  22
ATOM     22  C   UNL     1       7.292  17.009  -9.915  0.00  0.00    +0.000 C 
ATOM     23  H   UNL     1       6.868  17.293 -10.885  0.00  0.00    +0.000 HD
ATOM     24  H   UNL     1       8.380  17.118  -9.992  0.00  0.00    +0.000 HD
BRANCH  22  25
ATOM     25  C   UNL     1       6.772  17.959  -8.847  0.00  0.00    +0.000 C 
ATOM     26  H   UNL     1       7.197  17.718  -7.868  0.00  0.00    +0.000 HD
ATOM     27  H   UNL     1       5.683  17.887  -8.773  0.00  0.00    +0.000 HD
ATOM     28  H   UNL     1       7.029  18.996  -9.087  0.00  0.00    +0.000 HD
ENDBRANCH  22  25
ENDBRANCH  19  22
ENDBRANCH  16  19
ENDBRANCH  13  16
ENDBRANCH   3  13
BRANCH   2  29
ATOM     29  C   UNL     1       3.568  13.286 -11.442  0.00  0.00    +0.000 C 
ATOM     30  H   UNL     1       4.525  13.586 -11.883  0.00  0.00    +0.000 HD
ATOM     31  H   UNL     1       2.782  13.898 -11.900  0.00  0.00    +0.000 HD
BRANCH  29  33
ATOM     32  O   UNL     1       2.437  11.138 -11.307  0.00  0.00    +0.000 OA
ATOM     33  C   UNL     1       3.298  11.846 -11.808  0.00  0.00    +0.000 C 
BRANCH  33  34
ATOM     34  O   UNL     1       4.173  11.471 -12.788  0.00  0.00    +0.000 OA
BRANCH  34  35
ATOM     35  C   UNL     1       4.932  12.532 -13.377  0.00  0.00    +0.000 C 
ATOM     36  H   UNL     1       5.657  12.128 -14.090  0.00  0.00    +0.000 HD
ATOM     37  H   UNL     1       4.265  13.249 -13.866  0.00  0.00    +0.000 HD
ATOM     38  H   UNL     1       5.475  13.047 -12.578  0.00  0.00    +0.000 HD
ENDBRANCH  34  35
ENDBRANCH  33  34
ENDBRANCH  29  33
ENDBRANCH   2  29
TORSDOF 9
ENDMDL
MODEL 8
REMARK VINA RESULT:    -4.081      2.586      4.283
REMARK INTER + INTRA:          -6.871
REMARK INTER:                  -5.990
REMARK INTRA:                  -0.881
REMARK UNBOUND:                -0.881
REMARK  Name = 102861
REMARK  9 active torsions:
REMARK  status: ('A' for Active; 'I' for Inactive)
REMARK    1  A    between atoms: O_2  and  C_13
REMARK    2  A    between atoms: O_2  and  C_16
REMARK    3  A    between atoms: C_4  and  C_10
REMARK    4  A    between atoms: C_5  and  C_7
REMARK    5  A    between atoms: C_7  and  C_11
REMARK    6  A    between atoms: C_10  and  C_13
REMARK    7  A    between atoms: C_11  and  C_12
REMARK    8  A    between atoms: C_12  and  C_14
REMARK    9  A    between atoms: C_14  and  C_15
REMARK                            x       y       z     vdW  Elec       q    Type
REMARK                         _______ _______ _______ _____ _____    ______ ____
ROOT
ATOM      1  O   UNL     1     -19.044 -12.471  -0.957  0.00  0.00    +0.000 OA
ATOM      2  C   UNL     1     -16.777  -9.731  -1.131  0.00  0.00    +0.000 C 
ATOM      3  C   UNL     1     -16.949 -11.260  -1.090  0.00  0.00    +0.000 C 
ATOM      4  C   UNL     1     -18.000  -9.228  -1.904  0.00  0.00    +0.000 C 
ATOM      5  C   UNL     1     -19.155 -10.116  -1.457  0.00  0.00    +0.000 C 
ATOM      6  C   UNL     1     -18.456 -11.413  -1.145  0.00  0.00    +0.000 C 
ATOM      7  H   UNL     1     -15.872  -9.418  -1.661  0.00  0.00    +0.000 HD
ATOM      8  H   UNL     1     -16.590 -11.703  -0.154  0.00  0.00    +0.000 HD
ATOM      9  H   UNL     1     -18.211  -8.169  -1.732  0.00  0.00    +0.000 HD
ATOM     10  H   UNL     1     -17.836  -9.358  -2.981  0.00  0.00    +0.000 HD
ATOM     11  H   UNL     1     -19.629  -9.737  -0.547  0.00  0.00    +0.000 HD
ATOM     12  H   UNL     1     -19.895 -10.247  -2.249  0.00  0.00    +0.000 HD
ENDROOT
BRANCH   3  13
ATOM     13  C   UNL     1     -16.317 -11.959  -2.286  0.00  0.00    +0.000 C 
ATOM     14  H   UNL     1     -17.014 -11.985  -3.134  0.00  0.00    +0.000 HD
ATOM     15  H   UNL     1     -16.113 -13.006  -2.030  0.00  0.00    +0.000 HD
BRANCH  13  16
ATOM     16  C   UNL     1     -15.013 -11.282  -2.709  0.00  0.00    +0.000 C 
ATOM     17  H   UNL     1     -14.163 -11.811  -2.259  0.00  0.00    +0.000 HD
ATOM     18  H   UNL     1     -14.972 -10.248  -2.355  0.00  0.00    +0.000 HD
BRANCH  16  19
ATOM     19  C   UNL     1     -14.854 -11.274  -4.231  0.00  0.00    +0.000 C 
ATOM     20  H   UNL     1     -14.474 -10.298  -4.557  0.00  0.00    +0.000 HD
ATOM     21  H   UNL     1     -14.111 -12.025  -4.525  0.00  0.00    +0.000 HD
BRANCH  19  22
ATOM     22  C   UNL     1     -16.181 -11.568  -4.929  0.00  0.00    +0.000 C 
ATOM     23  H   UNL     1     -16.974 -10.944  -4.501  0.00  0.00    +0.000 HD
ATOM     24  H   UNL     1     -16.466 -12.614  -4.764  0.00  0.00    +0.000 HD
BRANCH  22  25
ATOM     25  C   UNL     1     -16.093 -11.308  -6.425  0.00  0.00    +0.000 C 
ATOM     26  H   UNL     1     -15.110 -11.589  -6.815  0.00  0.00    +0.000 HD
ATOM     27  H   UNL     1     -16.251 -10.246  -6.634  0.00  0.00    +0.000 HD
ATOM     28  H   UNL     1     -16.854 -11.879  -6.967  0.00  0.00    +0.000 HD
ENDBRANCH  22  25
ENDBRANCH  19  22
ENDBRANCH  16  19
ENDBRANCH  13  16
ENDBRANCH   3  13
BRANCH   2  29
ATOM     29  C   UNL     1     -16.718  -9.133   0.277  0.00  0.00    +0.000 C 
ATOM     30  H   UNL     1     -17.649  -9.346   0.817  0.00  0.00    +0.000 HD
ATOM     31  H   UNL     1     -16.603  -8.045   0.227  0.00  0.00    +0.000 HD
BRANCH  29  33
ATOM     32  O   UNL     1     -14.438  -9.892   0.641  0.00  0.00    +0.000 OA
ATOM     33  C   UNL     1     -15.561  -9.680   1.077  0.00  0.00    +0.000 C 
BRANCH  33  34
ATOM     34  O   UNL     1     -15.975  -9.895   2.360  0.00  0.00    +0.000 OA
BRANCH  34  35
ATOM     35  C   UNL     1     -17.310  -9.472   2.656  0.00  0.00    +0.000 C 
ATOM     36  H   UNL     1     -17.957  -9.624   1.786  0.00  0.00    +0.000 HD
ATOM     37  H   UNL     1     -17.696 -10.014   3.524  0.00  0.00    +0.000 HD
ATOM     38  H   UNL     1     -17.285  -8.404   2.892  0.00  0.00    +0.000 HD
ENDBRANCH  34  35
ENDBRANCH  33  34
ENDBRANCH  29  33
ENDBRANCH   2  29
TORSDOF 9
ENDMDL
MODEL 9
REMARK VINA RESULT:    -4.044      2.686      5.336
REMARK INTER + INTRA:          -6.816
REMARK INTER:                  -6.146
REMARK INTRA:                  -0.670
REMARK UNBOUND:                -0.881
REMARK  Name = 102861
REMARK  9 active torsions:
REMARK  status: ('A' for Active; 'I' for Inactive)
REMARK    1  A    between atoms: O_2  and  C_13
REMARK    2  A    between atoms: O_2  and  C_16
REMARK    3  A    between atoms: C_4  and  C_10
REMARK    4  A    between atoms: C_5  and  C_7
REMARK    5  A    between atoms: C_7  and  C_11
REMARK    6  A    between atoms: C_10  and  C_13
REMARK    7  A    between atoms: C_11  and  C_12
REMARK    8  A    between atoms: C_12  and  C_14
REMARK    9  A    between atoms: C_14  and  C_15
REMARK                            x       y       z     vdW  Elec       q    Type
REMARK                         _______ _______ _______ _____ _____    ______ ____
ROOT
ATOM      1  O   UNL     1     -18.273 -12.205  -3.632  0.00  0.00    +0.000 OA
ATOM      2  C   UNL     1     -16.808  -9.869  -1.379  0.00  0.00    +0.000 C 
ATOM      3  C   UNL     1     -16.571 -10.982  -2.416  0.00  0.00    +0.000 C 
ATOM      4  C   UNL     1     -18.062  -9.143  -1.877  0.00  0.00    +0.000 C 
ATOM      5  C   UNL     1     -18.970 -10.234  -2.432  0.00  0.00    +0.000 C 
ATOM      6  C   UNL     1     -17.975 -11.257  -2.915  0.00  0.00    +0.000 C 
ATOM      7  H   UNL     1     -15.983  -9.152  -1.327  0.00  0.00    +0.000 HD
ATOM      8  H   UNL     1     -16.176 -11.901  -1.969  0.00  0.00    +0.000 HD
ATOM      9  H   UNL     1     -18.559  -8.559  -1.096  0.00  0.00    +0.000 HD
ATOM     10  H   UNL     1     -17.791  -8.448  -2.682  0.00  0.00    +0.000 HD
ATOM     11  H   UNL     1     -19.591 -10.680  -1.650  0.00  0.00    +0.000 HD
ATOM     12  H   UNL     1     -19.589  -9.867  -3.253  0.00  0.00    +0.000 HD
ENDROOT
BRANCH   3  13
ATOM     13  C   UNL     1     -15.692 -10.533  -3.574  0.00  0.00    +0.000 C 
ATOM     14  H   UNL     1     -15.448  -9.466  -3.488  0.00  0.00    +0.000 HD
ATOM     15  H   UNL     1     -16.247 -10.640  -4.515  0.00  0.00    +0.000 HD
BRANCH  13  16
ATOM     16  C   UNL     1     -14.403 -11.353  -3.655  0.00  0.00    +0.000 C 
ATOM     17  H   UNL     1     -13.600 -10.732  -4.072  0.00  0.00    +0.000 HD
ATOM     18  H   UNL     1     -14.524 -12.212  -4.321  0.00  0.00    +0.000 HD
BRANCH  16  19
ATOM     19  C   UNL     1     -13.981 -11.869  -2.278  0.00  0.00    +0.000 C 
ATOM     20  H   UNL     1     -14.525 -11.323  -1.497  0.00  0.00    +0.000 HD
ATOM     21  H   UNL     1     -14.255 -12.927  -2.184  0.00  0.00    +0.000 HD
BRANCH  19  22
ATOM     22  C   UNL     1     -12.476 -11.711  -2.063  0.00  0.00    +0.000 C 
ATOM     23  H   UNL     1     -12.274 -11.473  -1.012  0.00  0.00    +0.000 HD
ATOM     24  H   UNL     1     -12.098 -10.876  -2.663  0.00  0.00    +0.000 HD
BRANCH  22  25
ATOM     25  C   UNL     1     -11.724 -12.977  -2.443  0.00  0.00    +0.000 C 
ATOM     26  H   UNL     1     -12.360 -13.860  -2.332  0.00  0.00    +0.000 HD
ATOM     27  H   UNL     1     -10.849 -13.105  -1.797  0.00  0.00    +0.000 HD
ATOM     28  H   UNL     1     -11.377 -12.929  -3.480  0.00  0.00    +0.000 HD
ENDBRANCH  22  25
ENDBRANCH  19  22
ENDBRANCH  16  19
ENDBRANCH  13  16
ENDBRANCH   3  13
BRANCH   2  29
ATOM     29  C   UNL     1     -17.013 -10.442   0.025  0.00  0.00    +0.000 C 
ATOM     30  H   UNL     1     -17.131 -11.531  -0.024  0.00  0.00    +0.000 HD
ATOM     31  H   UNL     1     -17.919 -10.027   0.480  0.00  0.00    +0.000 HD
BRANCH  29  33
ATOM     32  O   UNL     1     -14.721  -9.847   0.576  0.00  0.00    +0.000 OA
ATOM     33  C   UNL     1     -15.855 -10.124   0.940  0.00  0.00    +0.000 C 
BRANCH  33  34
ATOM     34  O   UNL     1     -16.285 -10.197   2.235  0.00  0.00    +0.000 OA
BRANCH  34  35
ATOM     35  C   UNL     1     -17.048  -9.078   2.695  0.00  0.00    +0.000 C 
ATOM     36  H   UNL     1     -16.639  -8.704   3.639  0.00  0.00    +0.000 HD
ATOM     37  H   UNL     1     -17.058  -8.288   1.938  0.00  0.00    +0.000 HD
ATOM     38  H   UNL     1     -18.075  -9.413   2.866  0.00  0.00    +0.000 HD
ENDBRANCH  34  35
ENDBRANCH  33  34
ENDBRANCH  29  33
ENDBRANCH   2  29
TORSDOF 9
ENDMDL
MODEL 10
REMARK VINA RESULT:    -4.035      3.238      5.772
REMARK INTER + INTRA:          -6.804
REMARK INTER:                  -6.067
REMARK INTRA:                  -0.737
REMARK UNBOUND:                -0.881
REMARK  Name = 102861
REMARK  9 active torsions:
REMARK  status: ('A' for Active; 'I' for Inactive)
REMARK    1  A    between atoms: O_2  and  C_13
REMARK    2  A    between atoms: O_2  and  C_16
REMARK    3  A    between atoms: C_4  and  C_10
REMARK    4  A    between atoms: C_5  and  C_7
REMARK    5  A    between atoms: C_7  and  C_11
REMARK    6  A    between atoms: C_10  and  C_13
REMARK    7  A    between atoms: C_11  and  C_12
REMARK    8  A    between atoms: C_12  and  C_14
REMARK    9  A    between atoms: C_14  and  C_15
REMARK                            x       y       z     vdW  Elec       q    Type
REMARK                         _______ _______ _______ _____ _____    ______ ____
ROOT
ATOM      1  O   UNL     1     -21.294 -14.361   4.028  0.00  0.00    +0.000 OA
ATOM      2  C   UNL     1     -18.282 -12.495   4.379  0.00  0.00    +0.000 C 
ATOM      3  C   UNL     1     -19.600 -12.950   5.033  0.00  0.00    +0.000 C 
ATOM      4  C   UNL     1     -17.868 -13.674   3.492  0.00  0.00    +0.000 C 
ATOM      5  C   UNL     1     -19.166 -14.217   2.907  0.00  0.00    +0.000 C 
ATOM      6  C   UNL     1     -20.160 -13.900   3.994  0.00  0.00    +0.000 C 
ATOM      7  H   UNL     1     -17.488 -12.306   5.108  0.00  0.00    +0.000 HD
ATOM      8  H   UNL     1     -20.311 -12.129   5.170  0.00  0.00    +0.000 HD
ATOM      9  H   UNL     1     -17.155 -13.394   2.710  0.00  0.00    +0.000 HD
ATOM     10  H   UNL     1     -17.392 -14.449   4.106  0.00  0.00    +0.000 HD
ATOM     11  H   UNL     1     -19.452 -13.687   1.994  0.00  0.00    +0.000 HD
ATOM     12  H   UNL     1     -19.109 -15.293   2.725  0.00  0.00    +0.000 HD
ENDROOT
BRANCH   3  13
ATOM     13  C   UNL     1     -19.384 -13.692   6.344  0.00  0.00    +0.000 C 
ATOM     14  H   UNL     1     -18.314 -13.872   6.518  0.00  0.00    +0.000 HD
ATOM     15  H   UNL     1     -19.851 -14.683   6.283  0.00  0.00    +0.000 HD
BRANCH  13  16
ATOM     16  C   UNL     1     -19.978 -12.928   7.528  0.00  0.00    +0.000 C 
ATOM     17  H   UNL     1     -19.275 -12.152   7.854  0.00  0.00    +0.000 HD
ATOM     18  H   UNL     1     -20.144 -13.592   8.382  0.00  0.00    +0.000 HD
BRANCH  16  19
ATOM     19  C   UNL     1     -21.314 -12.278   7.161  0.00  0.00    +0.000 C 
ATOM     20  H   UNL     1     -21.456 -11.366   7.754  0.00  0.00    +0.000 HD
ATOM     21  H   UNL     1     -21.296 -11.977   6.106  0.00  0.00    +0.000 HD
BRANCH  19  22
ATOM     22  C   UNL     1     -22.482 -13.234   7.399  0.00  0.00    +0.000 C 
ATOM     23  H   UNL     1     -22.831 -13.144   8.434  0.00  0.00    +0.000 HD
ATOM     24  H   UNL     1     -22.152 -14.269   7.256  0.00  0.00    +0.000 HD
BRANCH  22  25
ATOM     25  C   UNL     1     -23.639 -12.946   6.455  0.00  0.00    +0.000 C 
ATOM     26  H   UNL     1     -24.141 -13.871   6.156  0.00  0.00    +0.000 HD
ATOM     27  H   UNL     1     -23.274 -12.450   5.550  0.00  0.00    +0.000 HD
ATOM     28  H   UNL     1     -24.377 -12.291   6.929  0.00  0.00    +0.000 HD
ENDBRANCH  22  25
ENDBRANCH  19  22
ENDBRANCH  16  19
ENDBRANCH  13  16
ENDBRANCH   3  13
BRANCH   2  29
ATOM     29  C   UNL     1     -18.473 -11.217   3.559  0.00  0.00    +0.000 C 
ATOM     30  H   UNL     1     -19.322 -10.642   3.947  0.00  0.00    +0.000 HD
ATOM     31  H   UNL     1     -18.684 -11.461   2.512  0.00  0.00    +0.000 HD
BRANCH  29  33
ATOM     32  O   UNL     1     -16.181 -10.628   4.117  0.00  0.00    +0.000 OA
ATOM     33  C   UNL     1     -17.244 -10.340   3.586  0.00  0.00    +0.000 C 
BRANCH  33  34
ATOM     34  O   UNL     1     -17.519  -9.178   2.921  0.00  0.00    +0.000 OA
BRANCH  34  35
ATOM     35  C   UNL     1     -16.526  -8.757   1.981  0.00  0.00    +0.000 C 
ATOM     36  H   UNL     1     -15.668  -9.436   2.007  0.00  0.00    +0.000 HD
ATOM     37  H   UNL     1     -16.952  -8.710   0.975  0.00  0.00    +0.000 HD
ATOM     38  H   UNL     1     -16.190  -7.755   2.266  0.00  0.00    +0.000 HD
ENDBRANCH  34  35
ENDBRANCH  33  34
ENDBRANCH  29  33
ENDBRANCH   2  29
TORSDOF 9
ENDMDL
