MODEL 1
REMARK VINA RESULT:    -4.696      0.000      0.000
REMARK INTER + INTRA:          -6.474
REMARK INTER:                  -6.327
REMARK INTRA:                  -0.147
REMARK UNBOUND:                -0.131
REMARK  Name = 8094
REMARK  7 active torsions:
REMARK  status: ('A' for Active; 'I' for Inactive)
REMARK    1  A    between atoms: O_1  and  C_9
REMARK    2  A    between atoms: C_3  and  C_4
REMARK    3  A    between atoms: C_3  and  C_5
REMARK    4  A    between atoms: C_4  and  C_6
REMARK    5  A    between atoms: C_5  and  C_7
REMARK    6  A    between atoms: C_6  and  C_8
REMARK    7  A    between atoms: C_7  and  C_9
REMARK                            x       y       z     vdW  Elec       q    Type
REMARK                         _______ _______ _______ _____ _____    ______ ____
ROOT
ATOM      1  C   UNL     1      11.232   7.882  -3.224  0.00  0.00    +0.000 C 
ATOM      2  H   UNL     1      11.628   8.903  -3.163  0.00  0.00    +0.000 HD
ATOM      3  H   UNL     1      11.901   7.312  -3.881  0.00  0.00    +0.000 HD
ENDROOT
BRANCH   1   4
ATOM      4  C   UNL     1       9.826   7.911  -3.827  0.00  0.00    +0.000 C 
ATOM      5  H   UNL     1       9.269   7.027  -3.492  0.00  0.00    +0.000 HD
ATOM      6  H   UNL     1       9.288   8.786  -3.445  0.00  0.00    +0.000 HD
BRANCH   4   7
ATOM      7  C   UNL     1       9.822   7.948  -5.357  0.00  0.00    +0.000 C 
ATOM      8  H   UNL     1      10.776   7.555  -5.732  0.00  0.00    +0.000 HD
ATOM      9  H   UNL     1       9.754   8.990  -5.694  0.00  0.00    +0.000 HD
BRANCH   7  10
ATOM     10  C   UNL     1       8.685   7.156  -5.981  0.00  0.00    +0.000 C 
ATOM     11  H   UNL     1       9.060   6.529  -6.797  0.00  0.00    +0.000 HD
ATOM     12  H   UNL     1       7.921   7.825  -6.389  0.00  0.00    +0.000 HD
ATOM     13  H   UNL     1       8.211   6.504  -5.241  0.00  0.00    +0.000 HD
ENDBRANCH   7  10
ENDBRANCH   4   7
ENDBRANCH   1   4
BRANCH   1  14
ATOM     14  C   UNL     1      11.222   7.247  -1.828  0.00  0.00    +0.000 C 
ATOM     15  H   UNL     1      12.206   6.814  -1.614  0.00  0.00    +0.000 HD
ATOM     16  H   UNL     1      10.505   6.417  -1.810  0.00  0.00    +0.000 HD
BRANCH  14  17
ATOM     17  C   UNL     1      10.864   8.252  -0.732  0.00  0.00    +0.000 C 
ATOM     18  H   UNL     1      10.940   9.272  -1.129  0.00  0.00    +0.000 HD
ATOM     19  H   UNL     1      11.567   8.145   0.101  0.00  0.00    +0.000 HD
BRANCH  17  21
ATOM     20  O   UNL     1       9.056   7.086   0.411  0.00  0.00    +0.000 OA
ATOM     21  C   UNL     1       9.464   8.070  -0.190  0.00  0.00    +0.000 C 
BRANCH  21  22
ATOM     22  O   UNL     1       8.694   9.164  -0.428  0.00  0.00    +0.000 OA
ATOM     23  H   UNL     1       9.235   9.978  -0.520  0.00  0.00    +0.000 HD
ENDBRANCH  21  22
ENDBRANCH  17  21
ENDBRANCH  14  17
ENDBRANCH   1  14
TORSDOF 7
ENDMDL
MODEL 2
REMARK VINA RESULT:    -4.680      8.696      9.317
REMARK INTER + INTRA:          -6.452
REMARK INTER:                  -6.175
REMARK INTRA:                  -0.278
REMARK UNBOUND:                -0.131
REMARK  Name = 8094
REMARK  7 active torsions:
REMARK  status: ('A' for Active; 'I' for Inactive)
REMARK    1  A    between atoms: O_1  and  C_9
REMARK    2  A    between atoms: C_3  and  C_4
REMARK    3  A    between atoms: C_3  and  C_5
REMARK    4  A    between atoms: C_4  and  C_6
REMARK    5  A    between atoms: C_5  and  C_7
REMARK    6  A    between atoms: C_6  and  C_8
REMARK    7  A    between atoms: C_7  and  C_9
REMARK                            x       y       z     vdW  Elec       q    Type
REMARK                         _______ _______ _______ _____ _____    ______ ____
ROOT
ATOM      1  C   UNL     1       6.747   0.916  -2.439  0.00  0.00    +0.000 C 
ATOM      2  H   UNL     1       6.399   1.168  -1.429  0.00  0.00    +0.000 HD
ATOM      3  H   UNL     1       6.785   1.851  -3.012  0.00  0.00    +0.000 HD
ENDROOT
BRANCH   1   4
ATOM      4  C   UNL     1       5.757  -0.048  -3.099  0.00  0.00    +0.000 C 
ATOM      5  H   UNL     1       6.305  -0.908  -3.504  0.00  0.00    +0.000 HD
ATOM      6  H   UNL     1       5.074  -0.439  -2.337  0.00  0.00    +0.000 HD
BRANCH   4   7
ATOM      7  C   UNL     1       4.941   0.596  -4.222  0.00  0.00    +0.000 C 
ATOM      8  H   UNL     1       4.971   1.687  -4.113  0.00  0.00    +0.000 HD
ATOM      9  H   UNL     1       3.891   0.296  -4.124  0.00  0.00    +0.000 HD
BRANCH   7  10
ATOM     10  C   UNL     1       5.428   0.226  -5.614  0.00  0.00    +0.000 C 
ATOM     11  H   UNL     1       6.287  -0.449  -5.550  0.00  0.00    +0.000 HD
ATOM     12  H   UNL     1       5.735   1.118  -6.169  0.00  0.00    +0.000 HD
ATOM     13  H   UNL     1       4.640  -0.277  -6.182  0.00  0.00    +0.000 HD
ENDBRANCH   7  10
ENDBRANCH   4   7
ENDBRANCH   1   4
BRANCH   1  14
ATOM     14  C   UNL     1       8.149   0.303  -2.364  0.00  0.00    +0.000 C 
ATOM     15  H   UNL     1       8.241  -0.295  -1.450  0.00  0.00    +0.000 HD
ATOM     16  H   UNL     1       8.895   1.104  -2.289  0.00  0.00    +0.000 HD
BRANCH  14  17
ATOM     17  C   UNL     1       8.468  -0.577  -3.575  0.00  0.00    +0.000 C 
ATOM     18  H   UNL     1       8.912   0.036  -4.368  0.00  0.00    +0.000 HD
ATOM     19  H   UNL     1       7.541  -1.023  -3.952  0.00  0.00    +0.000 HD
BRANCH  17  21
ATOM     20  O   UNL     1      10.479  -1.924  -3.853  0.00  0.00    +0.000 OA
ATOM     21  C   UNL     1       9.433  -1.697  -3.260  0.00  0.00    +0.000 C 
BRANCH  21  22
ATOM     22  O   UNL     1       9.009  -2.432  -2.198  0.00  0.00    +0.000 OA
ATOM     23  H   UNL     1       9.524  -3.262  -2.100  0.00  0.00    +0.000 HD
ENDBRANCH  21  22
ENDBRANCH  17  21
ENDBRANCH  14  17
ENDBRANCH   1  14
TORSDOF 7
ENDMDL
MODEL 3
REMARK VINA RESULT:    -4.664      3.994      4.633
REMARK INTER + INTRA:          -6.432
REMARK INTER:                  -6.219
REMARK INTRA:                  -0.213
REMARK UNBOUND:                -0.131
REMARK  Name = 8094
REMARK  7 active torsions:
REMARK  status: ('A' for Active; 'I' for Inactive)
REMARK    1  A    between atoms: O_1  and  C_9
REMARK    2  A    between atoms: C_3  and  C_4
REMARK    3  A    between atoms: C_3  and  C_5
REMARK    4  A    between atoms: C_4  and  C_6
REMARK    5  A    between atoms: C_5  and  C_7
REMARK    6  A    between atoms: C_6  and  C_8
REMARK    7  A    between atoms: C_7  and  C_9
REMARK                            x       y       z     vdW  Elec       q    Type
REMARK                         _______ _______ _______ _____ _____    ______ ____
ROOT
ATOM      1  C   UNL     1      11.051   8.081  -3.220  0.00  0.00    +0.000 C 
ATOM      2  H   UNL     1      10.591   8.028  -2.225  0.00  0.00    +0.000 HD
ATOM      3  H   UNL     1      11.000   9.127  -3.547  0.00  0.00    +0.000 HD
ENDROOT
BRANCH   1   4
ATOM      4  C   UNL     1      10.266   7.202  -4.197  0.00  0.00    +0.000 C 
ATOM      5  H   UNL     1      10.965   6.567  -4.756  0.00  0.00    +0.000 HD
ATOM      6  H   UNL     1       9.612   6.529  -3.631  0.00  0.00    +0.000 HD
BRANCH   4   7
ATOM      7  C   UNL     1       9.421   8.003  -5.190  0.00  0.00    +0.000 C 
ATOM      8  H   UNL     1      10.083   8.585  -5.843  0.00  0.00    +0.000 HD
ATOM      9  H   UNL     1       8.803   8.724  -4.641  0.00  0.00    +0.000 HD
BRANCH   7  10
ATOM     10  C   UNL     1       8.515   7.139  -6.053  0.00  0.00    +0.000 C 
ATOM     11  H   UNL     1       9.047   6.811  -6.952  0.00  0.00    +0.000 HD
ATOM     12  H   UNL     1       7.627   7.695  -6.365  0.00  0.00    +0.000 HD
ATOM     13  H   UNL     1       8.189   6.249  -5.506  0.00  0.00    +0.000 HD
ENDBRANCH   7  10
ENDBRANCH   4   7
ENDBRANCH   1   4
BRANCH   1  14
ATOM     14  C   UNL     1      12.516   7.640  -3.135  0.00  0.00    +0.000 C 
ATOM     15  H   UNL     1      12.697   7.145  -2.173  0.00  0.00    +0.000 HD
ATOM     16  H   UNL     1      13.166   8.524  -3.158  0.00  0.00    +0.000 HD
BRANCH  14  17
ATOM     17  C   UNL     1      12.908   6.692  -4.270  0.00  0.00    +0.000 C 
ATOM     18  H   UNL     1      12.047   6.534  -4.930  0.00  0.00    +0.000 HD
ATOM     19  H   UNL     1      13.211   5.728  -3.849  0.00  0.00    +0.000 HD
BRANCH  17  21
ATOM     20  O   UNL     1      14.729   6.546  -5.883  0.00  0.00    +0.000 OA
ATOM     21  C   UNL     1      14.049   7.213  -5.115  0.00  0.00    +0.000 C 
BRANCH  21  22
ATOM     22  O   UNL     1      14.225   8.549  -4.940  0.00  0.00    +0.000 OA
ATOM     23  H   UNL     1      13.592   8.918  -4.287  0.00  0.00    +0.000 HD
ENDBRANCH  21  22
ENDBRANCH  17  21
ENDBRANCH  14  17
ENDBRANCH   1  14
TORSDOF 7
ENDMDL
MODEL 4
REMARK VINA RESULT:    -4.366      5.600      6.554
REMARK INTER + INTRA:          -6.029
REMARK INTER:                  -5.754
REMARK INTRA:                  -0.275
REMARK UNBOUND:                -0.131
REMARK  Name = 8094
REMARK  7 active torsions:
REMARK  status: ('A' for Active; 'I' for Inactive)
REMARK    1  A    between atoms: O_1  and  C_9
REMARK    2  A    between atoms: C_3  and  C_4
REMARK    3  A    between atoms: C_3  and  C_5
REMARK    4  A    between atoms: C_4  and  C_6
REMARK    5  A    between atoms: C_5  and  C_7
REMARK    6  A    between atoms: C_6  and  C_8
REMARK    7  A    between atoms: C_7  and  C_9
REMARK                            x       y       z     vdW  Elec       q    Type
REMARK                         _______ _______ _______ _____ _____    ______ ____
ROOT
ATOM      1  C   UNL     1      15.692   4.224  -5.011  0.00  0.00    +0.000 C 
ATOM      2  H   UNL     1      16.252   3.522  -5.641  0.00  0.00    +0.000 HD
ATOM      3  H   UNL     1      16.418   4.924  -4.579  0.00  0.00    +0.000 HD
ENDROOT
BRANCH   1   4
ATOM      4  C   UNL     1      14.990   3.459  -3.887  0.00  0.00    +0.000 C 
ATOM      5  H   UNL     1      15.583   2.574  -3.624  0.00  0.00    +0.000 HD
ATOM      6  H   UNL     1      14.950   4.090  -2.992  0.00  0.00    +0.000 HD
BRANCH   4   7
ATOM      7  C   UNL     1      13.571   3.015  -4.250  0.00  0.00    +0.000 C 
ATOM      8  H   UNL     1      13.526   2.784  -5.322  0.00  0.00    +0.000 HD
ATOM      9  H   UNL     1      12.875   3.844  -4.074  0.00  0.00    +0.000 HD
BRANCH   7  10
ATOM     10  C   UNL     1      13.096   1.801  -3.466  0.00  0.00    +0.000 C 
ATOM     11  H   UNL     1      12.626   2.115  -2.528  0.00  0.00    +0.000 HD
ATOM     12  H   UNL     1      13.933   1.140  -3.224  0.00  0.00    +0.000 HD
ATOM     13  H   UNL     1      12.361   1.229  -4.040  0.00  0.00    +0.000 HD
ENDBRANCH   7  10
ENDBRANCH   4   7
ENDBRANCH   1   4
BRANCH   1  14
ATOM     14  C   UNL     1      14.683   4.996  -5.868  0.00  0.00    +0.000 C 
ATOM     15  H   UNL     1      13.664   4.767  -5.534  0.00  0.00    +0.000 HD
ATOM     16  H   UNL     1      14.753   4.658  -6.910  0.00  0.00    +0.000 HD
BRANCH  14  17
ATOM     17  C   UNL     1      14.903   6.509  -5.810  0.00  0.00    +0.000 C 
ATOM     18  H   UNL     1      14.848   6.928  -6.822  0.00  0.00    +0.000 HD
ATOM     19  H   UNL     1      15.896   6.715  -5.397  0.00  0.00    +0.000 HD
BRANCH  17  21
ATOM     20  O   UNL     1      12.953   6.699  -4.362  0.00  0.00    +0.000 OA
ATOM     21  C   UNL     1      13.883   7.227  -4.956  0.00  0.00    +0.000 C 
BRANCH  21  22
ATOM     22  O   UNL     1      14.136   8.561  -4.898  0.00  0.00    +0.000 OA
ATOM     23  H   UNL     1      14.209   8.958  -5.792  0.00  0.00    +0.000 HD
ENDBRANCH  21  22
ENDBRANCH  17  21
ENDBRANCH  14  17
ENDBRANCH   1  14
TORSDOF 7
ENDMDL
MODEL 5
REMARK VINA RESULT:    -4.233      8.601      9.570
REMARK INTER + INTRA:          -5.848
REMARK INTER:                  -5.550
REMARK INTRA:                  -0.298
REMARK UNBOUND:                -0.131
REMARK  Name = 8094
REMARK  7 active torsions:
REMARK  status: ('A' for Active; 'I' for Inactive)
REMARK    1  A    between atoms: O_1  and  C_9
REMARK    2  A    between atoms: C_3  and  C_4
REMARK    3  A    between atoms: C_3  and  C_5
REMARK    4  A    between atoms: C_4  and  C_6
REMARK    5  A    between atoms: C_5  and  C_7
REMARK    6  A    between atoms: C_6  and  C_8
REMARK    7  A    between atoms: C_7  and  C_9
REMARK                            x       y       z     vdW  Elec       q    Type
REMARK                         _______ _______ _______ _____ _____    ______ ____
ROOT
ATOM      1  C   UNL     1       5.886  -0.613  -3.124  0.00  0.00    +0.000 C 
ATOM      2  H   UNL     1       4.881  -0.752  -3.542  0.00  0.00    +0.000 HD
ATOM      3  H   UNL     1       5.842  -0.905  -2.068  0.00  0.00    +0.000 HD
ENDROOT
BRANCH   1   4
ATOM      4  C   UNL     1       6.288   0.860  -3.231  0.00  0.00    +0.000 C 
ATOM      5  H   UNL     1       7.293   0.931  -3.664  0.00  0.00    +0.000 HD
ATOM      6  H   UNL     1       5.609   1.370  -3.924  0.00  0.00    +0.000 HD
BRANCH   4   7
ATOM      7  C   UNL     1       6.274   1.591  -1.886  0.00  0.00    +0.000 C 
ATOM      8  H   UNL     1       5.444   1.214  -1.276  0.00  0.00    +0.000 HD
ATOM      9  H   UNL     1       6.083   2.658  -2.056  0.00  0.00    +0.000 HD
BRANCH   7  10
ATOM     10  C   UNL     1       7.569   1.444  -1.102  0.00  0.00    +0.000 C 
ATOM     11  H   UNL     1       8.138   2.379  -1.130  0.00  0.00    +0.000 HD
ATOM     12  H   UNL     1       8.193   0.652  -1.525  0.00  0.00    +0.000 HD
ATOM     13  H   UNL     1       7.365   1.200  -0.056  0.00  0.00    +0.000 HD
ENDBRANCH   7  10
ENDBRANCH   4   7
ENDBRANCH   1   4
BRANCH   1  14
ATOM     14  C   UNL     1       6.883  -1.512  -3.864  0.00  0.00    +0.000 C 
ATOM     15  H   UNL     1       6.808  -1.335  -4.944  0.00  0.00    +0.000 HD
ATOM     16  H   UNL     1       6.616  -2.564  -3.702  0.00  0.00    +0.000 HD
BRANCH  14  17
ATOM     17  C   UNL     1       8.326  -1.278  -3.415  0.00  0.00    +0.000 C 
ATOM     18  H   UNL     1       8.624  -2.063  -2.709  0.00  0.00    +0.000 HD
ATOM     19  H   UNL     1       8.396  -0.308  -2.912  0.00  0.00    +0.000 HD
BRANCH  17  21
ATOM     20  O   UNL     1      10.325  -1.973  -4.623  0.00  0.00    +0.000 OA
ATOM     21  C   UNL     1       9.315  -1.285  -4.559  0.00  0.00    +0.000 C 
BRANCH  21  22
ATOM     22  O   UNL     1       8.933  -0.436  -5.548  0.00  0.00    +0.000 OA
ATOM     23  H   UNL     1       8.117   0.056  -5.313  0.00  0.00    +0.000 HD
ENDBRANCH  21  22
ENDBRANCH  17  21
ENDBRANCH  14  17
ENDBRANCH   1  14
TORSDOF 7
ENDMDL
MODEL 6
REMARK VINA RESULT:    -4.159      5.790      6.325
REMARK INTER + INTRA:          -5.749
REMARK INTER:                  -5.617
REMARK INTRA:                  -0.131
REMARK UNBOUND:                -0.131
REMARK  Name = 8094
REMARK  7 active torsions:
REMARK  status: ('A' for Active; 'I' for Inactive)
REMARK    1  A    between atoms: O_1  and  C_9
REMARK    2  A    between atoms: C_3  and  C_4
REMARK    3  A    between atoms: C_3  and  C_5
REMARK    4  A    between atoms: C_4  and  C_6
REMARK    5  A    between atoms: C_5  and  C_7
REMARK    6  A    between atoms: C_6  and  C_8
REMARK    7  A    between atoms: C_7  and  C_9
REMARK                            x       y       z     vdW  Elec       q    Type
REMARK                         _______ _______ _______ _____ _____    ______ ____
ROOT
ATOM      1  C   UNL     1       6.994   1.299  -0.354  0.00  0.00    +0.000 C 
ATOM      2  H   UNL     1       7.864   0.929   0.202  0.00  0.00    +0.000 HD
ATOM      3  H   UNL     1       6.101   0.860   0.107  0.00  0.00    +0.000 HD
ENDROOT
BRANCH   1   4
ATOM      4  C   UNL     1       7.087   0.850  -1.815  0.00  0.00    +0.000 C 
ATOM      5  H   UNL     1       8.061   1.147  -2.224  0.00  0.00    +0.000 HD
ATOM      6  H   UNL     1       7.047  -0.245  -1.858  0.00  0.00    +0.000 HD
BRANCH   4   7
ATOM      7  C   UNL     1       5.980   1.427  -2.699  0.00  0.00    +0.000 C 
ATOM      8  H   UNL     1       6.354   2.321  -3.212  0.00  0.00    +0.000 HD
ATOM      9  H   UNL     1       5.143   1.750  -2.068  0.00  0.00    +0.000 HD
BRANCH   7  10
ATOM     10  C   UNL     1       5.459   0.445  -3.738  0.00  0.00    +0.000 C 
ATOM     11  H   UNL     1       6.058   0.506  -4.652  0.00  0.00    +0.000 HD
ATOM     12  H   UNL     1       4.419   0.666  -3.996  0.00  0.00    +0.000 HD
ATOM     13  H   UNL     1       5.510  -0.581  -3.364  0.00  0.00    +0.000 HD
ENDBRANCH   7  10
ENDBRANCH   4   7
ENDBRANCH   1   4
BRANCH   1  14
ATOM     14  C   UNL     1       6.927   2.827  -0.250  0.00  0.00    +0.000 C 
ATOM     15  H   UNL     1       6.057   3.117   0.352  0.00  0.00    +0.000 HD
ATOM     16  H   UNL     1       6.771   3.255  -1.248  0.00  0.00    +0.000 HD
BRANCH  14  17
ATOM     17  C   UNL     1       8.190   3.427   0.369  0.00  0.00    +0.000 C 
ATOM     18  H   UNL     1       9.024   3.340  -0.338  0.00  0.00    +0.000 HD
ATOM     19  H   UNL     1       8.443   2.876   1.282  0.00  0.00    +0.000 HD
BRANCH  17  21
ATOM     20  O   UNL     1       7.684   5.320   1.818  0.00  0.00    +0.000 OA
ATOM     21  C   UNL     1       8.041   4.888   0.731  0.00  0.00    +0.000 C 
BRANCH  21  22
ATOM     22  O   UNL     1       8.384   5.692  -0.310  0.00  0.00    +0.000 OA
ATOM     23  H   UNL     1       7.630   5.839  -0.921  0.00  0.00    +0.000 HD
ENDBRANCH  21  22
ENDBRANCH  17  21
ENDBRANCH  14  17
ENDBRANCH   1  14
TORSDOF 7
ENDMDL
MODEL 7
REMARK VINA RESULT:    -4.127      8.341      9.370
REMARK INTER + INTRA:          -5.705
REMARK INTER:                  -5.528
REMARK INTRA:                  -0.177
REMARK UNBOUND:                -0.131
REMARK  Name = 8094
REMARK  7 active torsions:
REMARK  status: ('A' for Active; 'I' for Inactive)
REMARK    1  A    between atoms: O_1  and  C_9
REMARK    2  A    between atoms: C_3  and  C_4
REMARK    3  A    between atoms: C_3  and  C_5
REMARK    4  A    between atoms: C_4  and  C_6
REMARK    5  A    between atoms: C_5  and  C_7
REMARK    6  A    between atoms: C_6  and  C_8
REMARK    7  A    between atoms: C_7  and  C_9
REMARK                            x       y       z     vdW  Elec       q    Type
REMARK                         _______ _______ _______ _____ _____    ______ ____
ROOT
ATOM      1  C   UNL     1       6.213   1.474  -2.379  0.00  0.00    +0.000 C 
ATOM      2  H   UNL     1       6.661   2.143  -3.124  0.00  0.00    +0.000 HD
ATOM      3  H   UNL     1       5.297   1.957  -2.018  0.00  0.00    +0.000 HD
ENDROOT
BRANCH   1   4
ATOM      4  C   UNL     1       7.183   1.280  -1.211  0.00  0.00    +0.000 C 
ATOM      5  H   UNL     1       6.823   0.463  -0.573  0.00  0.00    +0.000 HD
ATOM      6  H   UNL     1       8.159   0.970  -1.601  0.00  0.00    +0.000 HD
BRANCH   4   7
ATOM      7  C   UNL     1       7.361   2.536  -0.355  0.00  0.00    +0.000 C 
ATOM      8  H   UNL     1       8.222   3.108  -0.724  0.00  0.00    +0.000 HD
ATOM      9  H   UNL     1       7.593   2.243   0.676  0.00  0.00    +0.000 HD
BRANCH   7  10
ATOM     10  C   UNL     1       6.139   3.441  -0.343  0.00  0.00    +0.000 C 
ATOM     11  H   UNL     1       5.844   3.696  -1.367  0.00  0.00    +0.000 HD
ATOM     12  H   UNL     1       6.347   4.372   0.193  0.00  0.00    +0.000 HD
ATOM     13  H   UNL     1       5.292   2.947   0.142  0.00  0.00    +0.000 HD
ENDBRANCH   7  10
ENDBRANCH   4   7
ENDBRANCH   1   4
BRANCH   1  14
ATOM     14  C   UNL     1       5.862   0.133  -3.033  0.00  0.00    +0.000 C 
ATOM     15  H   UNL     1       5.423   0.311  -4.023  0.00  0.00    +0.000 HD
ATOM     16  H   UNL     1       5.092  -0.374  -2.438  0.00  0.00    +0.000 HD
BRANCH  14  17
ATOM     17  C   UNL     1       7.078  -0.783  -3.179  0.00  0.00    +0.000 C 
ATOM     18  H   UNL     1       7.960  -0.294  -2.748  0.00  0.00    +0.000 HD
ATOM     19  H   UNL     1       7.264  -0.972  -4.241  0.00  0.00    +0.000 HD
BRANCH  17  21
ATOM     20  O   UNL     1       5.896  -2.807  -2.514  0.00  0.00    +0.000 OA
ATOM     21  C   UNL     1       6.906  -2.117  -2.489  0.00  0.00    +0.000 C 
BRANCH  21  22
ATOM     22  O   UNL     1       8.040  -2.489  -1.839  0.00  0.00    +0.000 OA
ATOM     23  H   UNL     1       8.322  -1.816  -1.183  0.00  0.00    +0.000 HD
ENDBRANCH  21  22
ENDBRANCH  17  21
ENDBRANCH  14  17
ENDBRANCH   1  14
TORSDOF 7
ENDMDL
MODEL 8
REMARK VINA RESULT:    -4.099      4.482      5.220
REMARK INTER + INTRA:          -5.667
REMARK INTER:                  -5.480
REMARK INTRA:                  -0.187
REMARK UNBOUND:                -0.131
REMARK  Name = 8094
REMARK  7 active torsions:
REMARK  status: ('A' for Active; 'I' for Inactive)
REMARK    1  A    between atoms: O_1  and  C_9
REMARK    2  A    between atoms: C_3  and  C_4
REMARK    3  A    between atoms: C_3  and  C_5
REMARK    4  A    between atoms: C_4  and  C_6
REMARK    5  A    between atoms: C_5  and  C_7
REMARK    6  A    between atoms: C_6  and  C_8
REMARK    7  A    between atoms: C_7  and  C_9
REMARK                            x       y       z     vdW  Elec       q    Type
REMARK                         _______ _______ _______ _____ _____    ______ ____
ROOT
ATOM      1  C   UNL     1      12.141   7.211  -3.344  0.00  0.00    +0.000 C 
ATOM      2  H   UNL     1      12.332   6.894  -2.311  0.00  0.00    +0.000 HD
ATOM      3  H   UNL     1      12.542   8.226  -3.452  0.00  0.00    +0.000 HD
ENDROOT
BRANCH   1   4
ATOM      4  C   UNL     1      10.633   7.228  -3.607  0.00  0.00    +0.000 C 
ATOM      5  H   UNL     1      10.246   6.202  -3.558  0.00  0.00    +0.000 HD
ATOM      6  H   UNL     1      10.135   7.792  -2.811  0.00  0.00    +0.000 HD
BRANCH   4   7
ATOM      7  C   UNL     1      10.261   7.835  -4.961  0.00  0.00    +0.000 C 
ATOM      8  H   UNL     1      11.123   7.774  -5.637  0.00  0.00    +0.000 HD
ATOM      9  H   UNL     1      10.035   8.900  -4.831  0.00  0.00    +0.000 HD
BRANCH   7  10
ATOM     10  C   UNL     1       9.069   7.160  -5.622  0.00  0.00    +0.000 C 
ATOM     11  H   UNL     1       8.380   6.776  -4.863  0.00  0.00    +0.000 HD
ATOM     12  H   UNL     1       9.392   6.320  -6.245  0.00  0.00    +0.000 HD
ATOM     13  H   UNL     1       8.522   7.865  -6.254  0.00  0.00    +0.000 HD
ENDBRANCH   7  10
ENDBRANCH   4   7
ENDBRANCH   1   4
BRANCH   1  14
ATOM     14  C   UNL     1      12.862   6.270  -4.315  0.00  0.00    +0.000 C 
ATOM     15  H   UNL     1      13.919   6.553  -4.386  0.00  0.00    +0.000 HD
ATOM     16  H   UNL     1      12.439   6.388  -5.321  0.00  0.00    +0.000 HD
BRANCH  14  17
ATOM     17  C   UNL     1      12.761   4.803  -3.891  0.00  0.00    +0.000 C 
ATOM     18  H   UNL     1      11.710   4.491  -3.894  0.00  0.00    +0.000 HD
ATOM     19  H   UNL     1      13.158   4.692  -2.876  0.00  0.00    +0.000 HD
BRANCH  17  21
ATOM     20  O   UNL     1      14.700   3.984  -5.118  0.00  0.00    +0.000 OA
ATOM     21  C   UNL     1      13.525   3.866  -4.798  0.00  0.00    +0.000 C 
BRANCH  21  22
ATOM     22  O   UNL     1      12.745   2.833  -5.213  0.00  0.00    +0.000 OA
ATOM     23  H   UNL     1      12.491   2.923  -6.156  0.00  0.00    +0.000 HD
ENDBRANCH  21  22
ENDBRANCH  17  21
ENDBRANCH  14  17
ENDBRANCH   1  14
TORSDOF 7
ENDMDL
MODEL 9
REMARK VINA RESULT:    -4.063      1.442      2.549
REMARK INTER + INTRA:          -5.619
REMARK INTER:                  -5.427
REMARK INTRA:                  -0.192
REMARK UNBOUND:                -0.131
REMARK  Name = 8094
REMARK  7 active torsions:
REMARK  status: ('A' for Active; 'I' for Inactive)
REMARK    1  A    between atoms: O_1  and  C_9
REMARK    2  A    between atoms: C_3  and  C_4
REMARK    3  A    between atoms: C_3  and  C_5
REMARK    4  A    between atoms: C_4  and  C_6
REMARK    5  A    between atoms: C_5  and  C_7
REMARK    6  A    between atoms: C_6  and  C_8
REMARK    7  A    between atoms: C_7  and  C_9
REMARK                            x       y       z     vdW  Elec       q    Type
REMARK                         _______ _______ _______ _____ _____    ______ ____
ROOT
ATOM      1  C   UNL     1      10.666   7.939  -3.589  0.00  0.00    +0.000 C 
ATOM      2  H   UNL     1      10.208   8.434  -4.454  0.00  0.00    +0.000 HD
ATOM      3  H   UNL     1      11.473   8.589  -3.231  0.00  0.00    +0.000 HD
ENDROOT
BRANCH   1   4
ATOM      4  C   UNL     1      11.249   6.590  -4.017  0.00  0.00    +0.000 C 
ATOM      5  H   UNL     1      10.797   5.792  -3.415  0.00  0.00    +0.000 HD
ATOM      6  H   UNL     1      10.973   6.393  -5.060  0.00  0.00    +0.000 HD
BRANCH   4   7
ATOM      7  C   UNL     1      12.771   6.515  -3.879  0.00  0.00    +0.000 C 
ATOM      8  H   UNL     1      13.144   5.644  -4.432  0.00  0.00    +0.000 HD
ATOM      9  H   UNL     1      13.032   6.359  -2.826  0.00  0.00    +0.000 HD
BRANCH   7  10
ATOM     10  C   UNL     1      13.487   7.759  -4.382  0.00  0.00    +0.000 C 
ATOM     11  H   UNL     1      12.941   8.199  -5.223  0.00  0.00    +0.000 HD
ATOM     12  H   UNL     1      14.499   7.516  -4.722  0.00  0.00    +0.000 HD
ATOM     13  H   UNL     1      13.562   8.512  -3.592  0.00  0.00    +0.000 HD
ENDBRANCH   7  10
ENDBRANCH   4   7
ENDBRANCH   1   4
BRANCH   1  14
ATOM     14  C   UNL     1       9.621   7.762  -2.481  0.00  0.00    +0.000 C 
ATOM     15  H   UNL     1       8.977   6.906  -2.716  0.00  0.00    +0.000 HD
ATOM     16  H   UNL     1       8.968   8.643  -2.450  0.00  0.00    +0.000 HD
BRANCH  14  17
ATOM     17  C   UNL     1      10.256   7.551  -1.106  0.00  0.00    +0.000 C 
ATOM     18  H   UNL     1      11.156   8.171  -1.018  0.00  0.00    +0.000 HD
ATOM     19  H   UNL     1      10.541   6.499  -0.996  0.00  0.00    +0.000 HD
BRANCH  17  21
ATOM     20  O   UNL     1       8.866   9.017   0.255  0.00  0.00    +0.000 OA
ATOM     21  C   UNL     1       9.334   7.908   0.038  0.00  0.00    +0.000 C 
BRANCH  21  22
ATOM     22  O   UNL     1       9.056   6.823   0.807  0.00  0.00    +0.000 OA
ATOM     23  H   UNL     1       8.153   6.868   1.188  0.00  0.00    +0.000 HD
ENDBRANCH  21  22
ENDBRANCH  17  21
ENDBRANCH  14  17
ENDBRANCH   1  14
TORSDOF 7
ENDMDL
MODEL 10
REMARK VINA RESULT:    -4.061      2.706      4.462
REMARK INTER + INTRA:          -5.617
REMARK INTER:                  -5.353
REMARK INTRA:                  -0.263
REMARK UNBOUND:                -0.131
REMARK  Name = 8094
REMARK  7 active torsions:
REMARK  status: ('A' for Active; 'I' for Inactive)
REMARK    1  A    between atoms: O_1  and  C_9
REMARK    2  A    between atoms: C_3  and  C_4
REMARK    3  A    between atoms: C_3  and  C_5
REMARK    4  A    between atoms: C_4  and  C_6
REMARK    5  A    between atoms: C_5  and  C_7
REMARK    6  A    between atoms: C_6  and  C_8
REMARK    7  A    between atoms: C_7  and  C_9
REMARK                            x       y       z     vdW  Elec       q    Type
REMARK                         _______ _______ _______ _____ _____    ______ ____
ROOT
ATOM      1  C   UNL     1      11.639   7.570  -2.048  0.00  0.00    +0.000 C 
ATOM      2  H   UNL     1      12.643   7.182  -1.837  0.00  0.00    +0.000 HD
ATOM      3  H   UNL     1      11.484   8.442  -1.401  0.00  0.00    +0.000 HD
ENDROOT
BRANCH   1   4
ATOM      4  C   UNL     1      10.595   6.500  -1.723  0.00  0.00    +0.000 C 
ATOM      5  H   UNL     1      10.010   6.278  -2.625  0.00  0.00    +0.000 HD
ATOM      6  H   UNL     1      11.106   5.571  -1.442  0.00  0.00    +0.000 HD
BRANCH   4   7
ATOM      7  C   UNL     1       9.639   6.906  -0.599  0.00  0.00    +0.000 C 
ATOM      8  H   UNL     1       9.941   6.409   0.332  0.00  0.00    +0.000 HD
ATOM      9  H   UNL     1       8.629   6.550  -0.835  0.00  0.00    +0.000 HD
BRANCH   7  10
ATOM     10  C   UNL     1       9.586   8.407  -0.361  0.00  0.00    +0.000 C 
ATOM     11  H   UNL     1      10.561   8.859  -0.568  0.00  0.00    +0.000 HD
ATOM     12  H   UNL     1       9.321   8.628   0.677  0.00  0.00    +0.000 HD
ATOM     13  H   UNL     1       8.846   8.880  -1.012  0.00  0.00    +0.000 HD
ENDBRANCH   7  10
ENDBRANCH   4   7
ENDBRANCH   1   4
BRANCH   1  14
ATOM     14  C   UNL     1      11.551   8.000  -3.517  0.00  0.00    +0.000 C 
ATOM     15  H   UNL     1      12.554   8.005  -3.960  0.00  0.00    +0.000 HD
ATOM     16  H   UNL     1      11.179   9.031  -3.575  0.00  0.00    +0.000 HD
BRANCH  14  17
ATOM     17  C   UNL     1      10.642   7.085  -4.340  0.00  0.00    +0.000 C 
ATOM     18  H   UNL     1      10.101   6.406  -3.671  0.00  0.00    +0.000 HD
ATOM     19  H   UNL     1      11.253   6.489  -5.027  0.00  0.00    +0.000 HD
BRANCH  17  21
ATOM     20  O   UNL     1       9.522   9.057  -5.230  0.00  0.00    +0.000 OA
ATOM     21  C   UNL     1       9.620   7.840  -5.159  0.00  0.00    +0.000 C 
BRANCH  21  22
ATOM     22  O   UNL     1       8.812   6.991  -5.848  0.00  0.00    +0.000 OA
ATOM     23  H   UNL     1       8.829   7.173  -6.812  0.00  0.00    +0.000 HD
ENDBRANCH  21  22
ENDBRANCH  17  21
ENDBRANCH  14  17
ENDBRANCH   1  14
TORSDOF 7
ENDMDL
