MODEL 1
REMARK VINA RESULT:    -3.915      0.000      0.000
REMARK INTER + INTRA:          -4.991
REMARK INTER:                  -4.918
REMARK INTRA:                  -0.073
REMARK UNBOUND:                -0.046
REMARK  Name = 6184
REMARK  5 active torsions:
REMARK  status: ('A' for Active; 'I' for Inactive)
REMARK    1  A    between atoms: C_2  and  C_3
REMARK    2  A    between atoms: C_2  and  C_4
REMARK    3  A    between atoms: C_3  and  C_5
REMARK    4  A    between atoms: C_4  and  C_6
REMARK    5  A    between atoms: C_5  and  C_7
REMARK                            x       y       z     vdW  Elec       q    Type
REMARK                         _______ _______ _______ _____ _____    ______ ____
ROOT
ATOM      1  C   UNL     1       9.844   8.590  -4.161  0.00  0.00    +0.000 C 
ATOM      2  H   UNL     1       8.895   9.115  -3.999  0.00  0.00    +0.000 HD
ATOM      3  H   UNL     1      10.647   9.330  -4.051  0.00  0.00    +0.000 HD
ENDROOT
BRANCH   1   4
ATOM      4  C   UNL     1      10.013   7.494  -3.103  0.00  0.00    +0.000 C 
ATOM      5  H   UNL     1      11.080   7.326  -2.914  0.00  0.00    +0.000 HD
ATOM      6  H   UNL     1       9.613   6.548  -3.492  0.00  0.00    +0.000 HD
BRANCH   4   7
ATOM      7  C   UNL     1       9.315   7.839  -1.791  0.00  0.00    +0.000 C 
ATOM      8  H   UNL     1       9.640   8.823  -1.435  0.00  0.00    +0.000 HD
ATOM      9  H   UNL     1       8.231   7.876  -1.941  0.00  0.00    +0.000 HD
BRANCH   7  11
ATOM     10  O   UNL     1       9.054   6.887   0.431  0.00  0.00    +0.000 OA
ATOM     11  C   UNL     1       9.573   6.848  -0.679  0.00  0.00    +0.000 C 
ATOM     12  H   UNL     1      10.278   6.039  -0.935  0.00  0.00    +0.000 HD
ENDBRANCH   7  11
ENDBRANCH   4   7
ENDBRANCH   1   4
BRANCH   1  13
ATOM     13  C   UNL     1       9.875   8.006  -5.573  0.00  0.00    +0.000 C 
ATOM     14  H   UNL     1      10.005   8.809  -6.307  0.00  0.00    +0.000 HD
ATOM     15  H   UNL     1      10.733   7.331  -5.677  0.00  0.00    +0.000 HD
BRANCH  13  16
ATOM     16  C   UNL     1       8.598   7.244  -5.891  0.00  0.00    +0.000 C 
ATOM     17  H   UNL     1       7.723   7.843  -5.623  0.00  0.00    +0.000 HD
ATOM     18  H   UNL     1       8.553   6.305  -5.330  0.00  0.00    +0.000 HD
ATOM     19  H   UNL     1       8.536   7.011  -6.958  0.00  0.00    +0.000 HD
ENDBRANCH  13  16
ENDBRANCH   1  13
TORSDOF 5
ENDMDL
MODEL 2
REMARK VINA RESULT:    -3.781      8.433      8.929
REMARK INTER + INTRA:          -4.821
REMARK INTER:                  -4.757
REMARK INTRA:                  -0.064
REMARK UNBOUND:                -0.046
REMARK  Name = 6184
REMARK  5 active torsions:
REMARK  status: ('A' for Active; 'I' for Inactive)
REMARK    1  A    between atoms: C_2  and  C_3
REMARK    2  A    between atoms: C_2  and  C_4
REMARK    3  A    between atoms: C_3  and  C_5
REMARK    4  A    between atoms: C_4  and  C_6
REMARK    5  A    between atoms: C_5  and  C_7
REMARK                            x       y       z     vdW  Elec       q    Type
REMARK                         _______ _______ _______ _____ _____    ______ ____
ROOT
ATOM      1  C   UNL     1       6.006   0.715  -3.337  0.00  0.00    +0.000 C 
ATOM      2  H   UNL     1       5.632   0.502  -2.329  0.00  0.00    +0.000 HD
ATOM      3  H   UNL     1       6.400   1.740  -3.326  0.00  0.00    +0.000 HD
ENDROOT
BRANCH   1   4
ATOM      4  C   UNL     1       7.135  -0.260  -3.685  0.00  0.00    +0.000 C 
ATOM      5  H   UNL     1       8.095   0.152  -3.350  0.00  0.00    +0.000 HD
ATOM      6  H   UNL     1       7.205  -0.363  -4.776  0.00  0.00    +0.000 HD
BRANCH   4   7
ATOM      7  C   UNL     1       6.930  -1.636  -3.057  0.00  0.00    +0.000 C 
ATOM      8  H   UNL     1       6.028  -1.640  -2.436  0.00  0.00    +0.000 HD
ATOM      9  H   UNL     1       6.803  -2.390  -3.842  0.00  0.00    +0.000 HD
BRANCH   7  11
ATOM     10  O   UNL     1       9.253  -2.129  -2.540  0.00  0.00    +0.000 OA
ATOM     11  C   UNL     1       8.080  -2.093  -2.189  0.00  0.00    +0.000 C 
ATOM     12  H   UNL     1       7.796  -2.394  -1.166  0.00  0.00    +0.000 HD
ENDBRANCH   7  11
ENDBRANCH   4   7
ENDBRANCH   1   4
BRANCH   1  13
ATOM     13  C   UNL     1       4.860   0.618  -4.344  0.00  0.00    +0.000 C 
ATOM     14  H   UNL     1       4.144  -0.147  -4.023  0.00  0.00    +0.000 HD
ATOM     15  H   UNL     1       4.319   1.571  -4.384  0.00  0.00    +0.000 HD
BRANCH  13  16
ATOM     16  C   UNL     1       5.367   0.273  -5.735  0.00  0.00    +0.000 C 
ATOM     17  H   UNL     1       4.559  -0.151  -6.339  0.00  0.00    +0.000 HD
ATOM     18  H   UNL     1       6.176  -0.463  -5.685  0.00  0.00    +0.000 HD
ATOM     19  H   UNL     1       5.744   1.163  -6.248  0.00  0.00    +0.000 HD
ENDBRANCH  13  16
ENDBRANCH   1  13
TORSDOF 5
ENDMDL
MODEL 3
REMARK VINA RESULT:    -3.750      8.398      9.176
REMARK INTER + INTRA:          -4.783
REMARK INTER:                  -4.583
REMARK INTRA:                  -0.200
REMARK UNBOUND:                -0.046
REMARK  Name = 6184
REMARK  5 active torsions:
REMARK  status: ('A' for Active; 'I' for Inactive)
REMARK    1  A    between atoms: C_2  and  C_3
REMARK    2  A    between atoms: C_2  and  C_4
REMARK    3  A    between atoms: C_3  and  C_5
REMARK    4  A    between atoms: C_4  and  C_6
REMARK    5  A    between atoms: C_5  and  C_7
REMARK                            x       y       z     vdW  Elec       q    Type
REMARK                         _______ _______ _______ _____ _____    ______ ____
ROOT
ATOM      1  C   UNL     1       5.235   0.389  -3.350  0.00  0.00    +0.000 C 
ATOM      2  H   UNL     1       4.229   0.732  -3.618  0.00  0.00    +0.000 HD
ATOM      3  H   UNL     1       5.117  -0.436  -2.635  0.00  0.00    +0.000 HD
ENDROOT
BRANCH   1   4
ATOM      4  C   UNL     1       5.954  -0.123  -4.602  0.00  0.00    +0.000 C 
ATOM      5  H   UNL     1       6.659   0.638  -4.960  0.00  0.00    +0.000 HD
ATOM      6  H   UNL     1       5.222  -0.272  -5.407  0.00  0.00    +0.000 HD
BRANCH   4   7
ATOM      7  C   UNL     1       6.705  -1.428  -4.352  0.00  0.00    +0.000 C 
ATOM      8  H   UNL     1       6.583  -2.106  -5.203  0.00  0.00    +0.000 HD
ATOM      9  H   UNL     1       7.774  -1.227  -4.230  0.00  0.00    +0.000 HD
BRANCH   7  11
ATOM     10  O   UNL     1       6.984  -2.512  -2.194  0.00  0.00    +0.000 OA
ATOM     11  C   UNL     1       6.251  -2.169  -3.115  0.00  0.00    +0.000 C 
ATOM     12  H   UNL     1       5.170  -2.385  -3.075  0.00  0.00    +0.000 HD
ENDBRANCH   7  11
ENDBRANCH   4   7
ENDBRANCH   1   4
BRANCH   1  13
ATOM     13  C   UNL     1       6.012   1.530  -2.693  0.00  0.00    +0.000 C 
ATOM     14  H   UNL     1       6.719   1.962  -3.409  0.00  0.00    +0.000 HD
ATOM     15  H   UNL     1       5.320   2.328  -2.398  0.00  0.00    +0.000 HD
BRANCH  13  16
ATOM     16  C   UNL     1       6.775   1.052  -1.468  0.00  0.00    +0.000 C 
ATOM     17  H   UNL     1       6.654  -0.028  -1.342  0.00  0.00    +0.000 HD
ATOM     18  H   UNL     1       6.407   1.543  -0.561  0.00  0.00    +0.000 HD
ATOM     19  H   UNL     1       7.844   1.265  -1.564  0.00  0.00    +0.000 HD
ENDBRANCH  13  16
ENDBRANCH   1  13
TORSDOF 5
ENDMDL
MODEL 4
REMARK VINA RESULT:    -3.705      7.540      7.944
REMARK INTER + INTRA:          -4.725
REMARK INTER:                  -4.683
REMARK INTRA:                  -0.042
REMARK UNBOUND:                -0.046
REMARK  Name = 6184
REMARK  5 active torsions:
REMARK  status: ('A' for Active; 'I' for Inactive)
REMARK    1  A    between atoms: C_2  and  C_3
REMARK    2  A    between atoms: C_2  and  C_4
REMARK    3  A    between atoms: C_3  and  C_5
REMARK    4  A    between atoms: C_4  and  C_6
REMARK    5  A    between atoms: C_5  and  C_7
REMARK                            x       y       z     vdW  Elec       q    Type
REMARK                         _______ _______ _______ _____ _____    ______ ____
ROOT
ATOM      1  C   UNL     1       5.693   1.029  -3.233  0.00  0.00    +0.000 C 
ATOM      2  H   UNL     1       4.717   0.764  -2.810  0.00  0.00    +0.000 HD
ATOM      3  H   UNL     1       5.592   2.027  -3.680  0.00  0.00    +0.000 HD
ENDROOT
BRANCH   1   4
ATOM      4  C   UNL     1       6.743   1.075  -2.118  0.00  0.00    +0.000 C 
ATOM      5  H   UNL     1       6.746   2.070  -1.656  0.00  0.00    +0.000 HD
ATOM      6  H   UNL     1       7.741   0.930  -2.552  0.00  0.00    +0.000 HD
BRANCH   4   7
ATOM      7  C   UNL     1       6.497   0.020  -1.043  0.00  0.00    +0.000 C 
ATOM      8  H   UNL     1       5.504  -0.423  -1.166  0.00  0.00    +0.000 HD
ATOM      9  H   UNL     1       7.239  -0.781  -1.129  0.00  0.00    +0.000 HD
BRANCH   7  11
ATOM     10  O   UNL     1       5.802   0.274   1.273  0.00  0.00    +0.000 OA
ATOM     11  C   UNL     1       6.584   0.551   0.370  0.00  0.00    +0.000 C 
ATOM     12  H   UNL     1       7.436   1.225   0.559  0.00  0.00    +0.000 HD
ENDBRANCH   7  11
ENDBRANCH   4   7
ENDBRANCH   1   4
BRANCH   1  13
ATOM     13  C   UNL     1       6.078   0.020  -4.315  0.00  0.00    +0.000 C 
ATOM     14  H   UNL     1       7.153   0.081  -4.518  0.00  0.00    +0.000 HD
ATOM     15  H   UNL     1       5.872  -0.998  -3.963  0.00  0.00    +0.000 HD
BRANCH  13  16
ATOM     16  C   UNL     1       5.313   0.266  -5.605  0.00  0.00    +0.000 C 
ATOM     17  H   UNL     1       4.409  -0.349  -5.634  0.00  0.00    +0.000 HD
ATOM     18  H   UNL     1       5.924   0.012  -6.477  0.00  0.00    +0.000 HD
ATOM     19  H   UNL     1       5.014   1.315  -5.690  0.00  0.00    +0.000 HD
ENDBRANCH  13  16
ENDBRANCH   1  13
TORSDOF 5
ENDMDL
MODEL 5
REMARK VINA RESULT:    -3.689     23.212     24.422
REMARK INTER + INTRA:          -4.705
REMARK INTER:                  -4.591
REMARK INTRA:                  -0.114
REMARK UNBOUND:                -0.046
REMARK  Name = 6184
REMARK  5 active torsions:
REMARK  status: ('A' for Active; 'I' for Inactive)
REMARK    1  A    between atoms: C_2  and  C_3
REMARK    2  A    between atoms: C_2  and  C_4
REMARK    3  A    between atoms: C_3  and  C_5
REMARK    4  A    between atoms: C_4  and  C_6
REMARK    5  A    between atoms: C_5  and  C_7
REMARK                            x       y       z     vdW  Elec       q    Type
REMARK                         _______ _______ _______ _____ _____    ______ ____
ROOT
ATOM      1  C   UNL     1      -0.336 -12.362  -9.578  0.00  0.00    +0.000 C 
ATOM      2  H   UNL     1       0.706 -12.569  -9.848  0.00  0.00    +0.000 HD
ATOM      3  H   UNL     1      -0.619 -11.424 -10.073  0.00  0.00    +0.000 HD
ENDROOT
BRANCH   1   4
ATOM      4  C   UNL     1      -1.234 -13.495 -10.084  0.00  0.00    +0.000 C 
ATOM      5  H   UNL     1      -2.287 -13.201  -9.992  0.00  0.00    +0.000 HD
ATOM      6  H   UNL     1      -1.101 -14.378  -9.445  0.00  0.00    +0.000 HD
BRANCH   4   7
ATOM      7  C   UNL     1      -0.939 -13.869 -11.534  0.00  0.00    +0.000 C 
ATOM      8  H   UNL     1      -0.714 -14.938 -11.613  0.00  0.00    +0.000 HD
ATOM      9  H   UNL     1      -1.814 -13.661 -12.160  0.00  0.00    +0.000 HD
BRANCH   7  11
ATOM     10  O   UNL     1       0.385 -12.917 -13.337  0.00  0.00    +0.000 OA
ATOM     11  C   UNL     1       0.225 -13.117 -12.138  0.00  0.00    +0.000 C 
ATOM     12  H   UNL     1       0.952 -12.725 -11.407  0.00  0.00    +0.000 HD
ENDBRANCH   7  11
ENDBRANCH   4   7
ENDBRANCH   1   4
BRANCH   1  13
ATOM     13  C   UNL     1      -0.453 -12.197  -8.063  0.00  0.00    +0.000 C 
ATOM     14  H   UNL     1       0.529 -12.331  -7.596  0.00  0.00    +0.000 HD
ATOM     15  H   UNL     1      -0.789 -11.181  -7.825  0.00  0.00    +0.000 HD
BRANCH  13  16
ATOM     16  C   UNL     1      -1.428 -13.199  -7.466  0.00  0.00    +0.000 C 
ATOM     17  H   UNL     1      -2.427 -13.053  -7.888  0.00  0.00    +0.000 HD
ATOM     18  H   UNL     1      -1.496 -13.080  -6.380  0.00  0.00    +0.000 HD
ATOM     19  H   UNL     1      -1.116 -14.226  -7.680  0.00  0.00    +0.000 HD
ENDBRANCH  13  16
ENDBRANCH   1  13
TORSDOF 5
ENDMDL
MODEL 6
REMARK VINA RESULT:    -3.645      3.258      3.780
REMARK INTER + INTRA:          -4.650
REMARK INTER:                  -4.554
REMARK INTRA:                  -0.096
REMARK UNBOUND:                -0.046
REMARK  Name = 6184
REMARK  5 active torsions:
REMARK  status: ('A' for Active; 'I' for Inactive)
REMARK    1  A    between atoms: C_2  and  C_3
REMARK    2  A    between atoms: C_2  and  C_4
REMARK    3  A    between atoms: C_3  and  C_5
REMARK    4  A    between atoms: C_4  and  C_6
REMARK    5  A    between atoms: C_5  and  C_7
REMARK                            x       y       z     vdW  Elec       q    Type
REMARK                         _______ _______ _______ _____ _____    ______ ____
ROOT
ATOM      1  C   UNL     1       9.740   7.714  -3.712  0.00  0.00    +0.000 C 
ATOM      2  H   UNL     1       8.906   7.105  -3.342  0.00  0.00    +0.000 HD
ATOM      3  H   UNL     1       9.868   8.548  -3.010  0.00  0.00    +0.000 HD
ENDROOT
BRANCH   1   4
ATOM      4  C   UNL     1      11.019   6.872  -3.741  0.00  0.00    +0.000 C 
ATOM      5  H   UNL     1      11.012   6.219  -4.623  0.00  0.00    +0.000 HD
ATOM      6  H   UNL     1      11.039   6.210  -2.865  0.00  0.00    +0.000 HD
BRANCH   4   7
ATOM      7  C   UNL     1      12.281   7.729  -3.759  0.00  0.00    +0.000 C 
ATOM      8  H   UNL     1      12.027   8.775  -3.961  0.00  0.00    +0.000 HD
ATOM      9  H   UNL     1      12.777   7.685  -2.783  0.00  0.00    +0.000 HD
BRANCH   7  11
ATOM     10  O   UNL     1      14.374   6.770  -4.539  0.00  0.00    +0.000 OA
ATOM     11  C   UNL     1      13.299   7.303  -4.791  0.00  0.00    +0.000 C 
ATOM     12  H   UNL     1      13.005   7.494  -5.837  0.00  0.00    +0.000 HD
ENDBRANCH   7  11
ENDBRANCH   4   7
ENDBRANCH   1   4
BRANCH   1  13
ATOM     13  C   UNL     1       9.404   8.260  -5.100  0.00  0.00    +0.000 C 
ATOM     14  H   UNL     1       8.757   9.140  -5.009  0.00  0.00    +0.000 HD
ATOM     15  H   UNL     1      10.322   8.584  -5.604  0.00  0.00    +0.000 HD
BRANCH  13  16
ATOM     16  C   UNL     1       8.705   7.215  -5.956  0.00  0.00    +0.000 C 
ATOM     17  H   UNL     1       9.353   6.345  -6.097  0.00  0.00    +0.000 HD
ATOM     18  H   UNL     1       8.460   7.619  -6.943  0.00  0.00    +0.000 HD
ATOM     19  H   UNL     1       7.778   6.876  -5.483  0.00  0.00    +0.000 HD
ENDBRANCH  13  16
ENDBRANCH   1  13
TORSDOF 5
ENDMDL
MODEL 7
REMARK VINA RESULT:    -3.519     27.544     29.034
REMARK INTER + INTRA:          -4.490
REMARK INTER:                  -4.431
REMARK INTRA:                  -0.059
REMARK UNBOUND:                -0.046
REMARK  Name = 6184
REMARK  5 active torsions:
REMARK  status: ('A' for Active; 'I' for Inactive)
REMARK    1  A    between atoms: C_2  and  C_3
REMARK    2  A    between atoms: C_2  and  C_4
REMARK    3  A    between atoms: C_3  and  C_5
REMARK    4  A    between atoms: C_4  and  C_6
REMARK    5  A    between atoms: C_5  and  C_7
REMARK                            x       y       z     vdW  Elec       q    Type
REMARK                         _______ _______ _______ _____ _____    ______ ____
ROOT
ATOM      1  C   UNL     1      -0.474  -7.409  21.032  0.00  0.00    +0.000 C 
ATOM      2  H   UNL     1      -0.216  -8.473  20.966  0.00  0.00    +0.000 HD
ATOM      3  H   UNL     1      -0.441  -7.133  22.094  0.00  0.00    +0.000 HD
ENDROOT
BRANCH   1   4
ATOM      4  C   UNL     1       0.559  -6.582  20.259  0.00  0.00    +0.000 C 
ATOM      5  H   UNL     1       0.072  -5.705  19.815  0.00  0.00    +0.000 HD
ATOM      6  H   UNL     1       0.951  -7.177  19.424  0.00  0.00    +0.000 HD
BRANCH   4   7
ATOM      7  C   UNL     1       1.716  -6.122  21.142  0.00  0.00    +0.000 C 
ATOM      8  H   UNL     1       1.356  -5.428  21.909  0.00  0.00    +0.000 HD
ATOM      9  H   UNL     1       2.164  -6.983  21.649  0.00  0.00    +0.000 HD
BRANCH   7  11
ATOM     10  O   UNL     1       2.926  -4.214  20.246  0.00  0.00    +0.000 OA
ATOM     11  C   UNL     1       2.826  -5.427  20.387  0.00  0.00    +0.000 C 
ATOM     12  H   UNL     1       3.587  -6.101  19.959  0.00  0.00    +0.000 HD
ENDBRANCH   7  11
ENDBRANCH   4   7
ENDBRANCH   1   4
BRANCH   1  13
ATOM     13  C   UNL     1      -1.884  -7.184  20.487  0.00  0.00    +0.000 C 
ATOM     14  H   UNL     1      -1.831  -6.791  19.465  0.00  0.00    +0.000 HD
ATOM     15  H   UNL     1      -2.421  -8.139  20.439  0.00  0.00    +0.000 HD
BRANCH  13  16
ATOM     16  C   UNL     1      -2.668  -6.212  21.354  0.00  0.00    +0.000 C 
ATOM     17  H   UNL     1      -2.125  -6.007  22.281  0.00  0.00    +0.000 HD
ATOM     18  H   UNL     1      -3.647  -6.625  21.618  0.00  0.00    +0.000 HD
ATOM     19  H   UNL     1      -2.825  -5.262  20.834  0.00  0.00    +0.000 HD
ENDBRANCH  13  16
ENDBRANCH   1  13
TORSDOF 5
ENDMDL
MODEL 8
REMARK VINA RESULT:    -3.462      3.536      5.072
REMARK INTER + INTRA:          -4.419
REMARK INTER:                  -4.373
REMARK INTRA:                  -0.046
REMARK UNBOUND:                -0.046
REMARK  Name = 6184
REMARK  5 active torsions:
REMARK  status: ('A' for Active; 'I' for Inactive)
REMARK    1  A    between atoms: C_2  and  C_3
REMARK    2  A    between atoms: C_2  and  C_4
REMARK    3  A    between atoms: C_3  and  C_5
REMARK    4  A    between atoms: C_4  and  C_6
REMARK    5  A    between atoms: C_5  and  C_7
REMARK                            x       y       z     vdW  Elec       q    Type
REMARK                         _______ _______ _______ _____ _____    ______ ____
ROOT
ATOM      1  C   UNL     1       8.276   4.419   0.122  0.00  0.00    +0.000 C 
ATOM      2  H   UNL     1       8.287   4.341  -0.972  0.00  0.00    +0.000 HD
ATOM      3  H   UNL     1       9.036   3.724   0.503  0.00  0.00    +0.000 HD
ENDROOT
BRANCH   1   4
ATOM      4  C   UNL     1       8.638   5.848   0.540  0.00  0.00    +0.000 C 
ATOM      5  H   UNL     1       9.249   5.823   1.450  0.00  0.00    +0.000 HD
ATOM      6  H   UNL     1       7.721   6.395   0.796  0.00  0.00    +0.000 HD
BRANCH   4   7
ATOM      7  C   UNL     1       9.390   6.602  -0.553  0.00  0.00    +0.000 C 
ATOM      8  H   UNL     1      10.410   6.214  -0.648  0.00  0.00    +0.000 HD
ATOM      9  H   UNL     1       8.886   6.467  -1.516  0.00  0.00    +0.000 HD
BRANCH   7  11
ATOM     10  O   UNL     1       8.622   8.908  -0.589  0.00  0.00    +0.000 OA
ATOM     11  C   UNL     1       9.493   8.090  -0.313  0.00  0.00    +0.000 C 
ATOM     12  H   UNL     1      10.434   8.419   0.159  0.00  0.00    +0.000 HD
ENDBRANCH   7  11
ENDBRANCH   4   7
ENDBRANCH   1   4
BRANCH   1  13
ATOM     13  C   UNL     1       6.901   4.017   0.655  0.00  0.00    +0.000 C 
ATOM     14  H   UNL     1       7.010   3.243   1.424  0.00  0.00    +0.000 HD
ATOM     15  H   UNL     1       6.420   4.880   1.130  0.00  0.00    +0.000 HD
BRANCH  13  16
ATOM     16  C   UNL     1       6.004   3.492  -0.455  0.00  0.00    +0.000 C 
ATOM     17  H   UNL     1       5.847   2.415  -0.338  0.00  0.00    +0.000 HD
ATOM     18  H   UNL     1       6.454   3.665  -1.437  0.00  0.00    +0.000 HD
ATOM     19  H   UNL     1       5.026   3.982  -0.433  0.00  0.00    +0.000 HD
ENDBRANCH  13  16
ENDBRANCH   1  13
TORSDOF 5
ENDMDL
MODEL 9
REMARK VINA RESULT:    -3.442      5.612      6.448
REMARK INTER + INTRA:          -4.393
REMARK INTER:                  -4.348
REMARK INTRA:                  -0.045
REMARK UNBOUND:                -0.046
REMARK  Name = 6184
REMARK  5 active torsions:
REMARK  status: ('A' for Active; 'I' for Inactive)
REMARK    1  A    between atoms: C_2  and  C_3
REMARK    2  A    between atoms: C_2  and  C_4
REMARK    3  A    between atoms: C_3  and  C_5
REMARK    4  A    between atoms: C_4  and  C_6
REMARK    5  A    between atoms: C_5  and  C_7
REMARK                            x       y       z     vdW  Elec       q    Type
REMARK                         _______ _______ _______ _____ _____    ______ ____
ROOT
ATOM      1  C   UNL     1       7.311   1.206  -1.694  0.00  0.00    +0.000 C 
ATOM      2  H   UNL     1       8.170   1.733  -2.125  0.00  0.00    +0.000 HD
ATOM      3  H   UNL     1       7.588   0.146  -1.616  0.00  0.00    +0.000 HD
ENDROOT
BRANCH   1   4
ATOM      4  C   UNL     1       7.016   1.759  -0.296  0.00  0.00    +0.000 C 
ATOM      5  H   UNL     1       7.080   0.949   0.442  0.00  0.00    +0.000 HD
ATOM      6  H   UNL     1       5.983   2.130  -0.262  0.00  0.00    +0.000 HD
BRANCH   4   7
ATOM      7  C   UNL     1       7.972   2.880   0.101  0.00  0.00    +0.000 C 
ATOM      8  H   UNL     1       8.491   2.626   1.031  0.00  0.00    +0.000 HD
ATOM      9  H   UNL     1       8.727   3.022  -0.680  0.00  0.00    +0.000 HD
BRANCH   7  11
ATOM     10  O   UNL     1       7.686   5.085   1.083  0.00  0.00    +0.000 OA
ATOM     11  C   UNL     1       7.298   4.217   0.310  0.00  0.00    +0.000 C 
ATOM     12  H   UNL     1       6.401   4.384  -0.310  0.00  0.00    +0.000 HD
ENDBRANCH   7  11
ENDBRANCH   4   7
ENDBRANCH   1   4
BRANCH   1  13
ATOM     13  C   UNL     1       6.100   1.353  -2.615  0.00  0.00    +0.000 C 
ATOM     14  H   UNL     1       5.176   1.222  -2.041  0.00  0.00    +0.000 HD
ATOM     15  H   UNL     1       6.077   2.363  -3.040  0.00  0.00    +0.000 HD
BRANCH  13  16
ATOM     16  C   UNL     1       6.132   0.336  -3.745  0.00  0.00    +0.000 C 
ATOM     17  H   UNL     1       6.662  -0.567  -3.428  0.00  0.00    +0.000 HD
ATOM     18  H   UNL     1       6.644   0.742  -4.623  0.00  0.00    +0.000 HD
ATOM     19  H   UNL     1       5.118   0.048  -4.041  0.00  0.00    +0.000 HD
ENDBRANCH  13  16
ENDBRANCH   1  13
TORSDOF 5
ENDMDL
MODEL 10
REMARK VINA RESULT:    -3.370      6.536      7.876
REMARK INTER + INTRA:          -4.303
REMARK INTER:                  -4.265
REMARK INTRA:                  -0.038
REMARK UNBOUND:                -0.046
REMARK  Name = 6184
REMARK  5 active torsions:
REMARK  status: ('A' for Active; 'I' for Inactive)
REMARK    1  A    between atoms: C_2  and  C_3
REMARK    2  A    between atoms: C_2  and  C_4
REMARK    3  A    between atoms: C_3  and  C_5
REMARK    4  A    between atoms: C_4  and  C_6
REMARK    5  A    between atoms: C_5  and  C_7
REMARK                            x       y       z     vdW  Elec       q    Type
REMARK                         _______ _______ _______ _____ _____    ______ ____
ROOT
ATOM      1  C   UNL     1       6.829   2.389  -0.512  0.00  0.00    +0.000 C 
ATOM      2  H   UNL     1       6.288   3.139  -1.100  0.00  0.00    +0.000 HD
ATOM      3  H   UNL     1       6.218   2.170   0.374  0.00  0.00    +0.000 HD
ENDROOT
BRANCH   1   4
ATOM      4  C   UNL     1       7.001   1.112  -1.340  0.00  0.00    +0.000 C 
ATOM      5  H   UNL     1       6.642   0.248  -0.766  0.00  0.00    +0.000 HD
ATOM      6  H   UNL     1       8.070   0.939  -1.525  0.00  0.00    +0.000 HD
BRANCH   4   7
ATOM      7  C   UNL     1       6.260   1.176  -2.672  0.00  0.00    +0.000 C 
ATOM      8  H   UNL     1       5.568   2.026  -2.681  0.00  0.00    +0.000 HD
ATOM      9  H   UNL     1       6.973   1.314  -3.491  0.00  0.00    +0.000 HD
BRANCH   7  11
ATOM     10  O   UNL     1       5.869  -1.214  -2.880  0.00  0.00    +0.000 OA
ATOM     11  C   UNL     1       5.456  -0.064  -2.989  0.00  0.00    +0.000 C 
ATOM     12  H   UNL     1       4.424   0.127  -3.327  0.00  0.00    +0.000 HD
ENDBRANCH   7  11
ENDBRANCH   4   7
ENDBRANCH   1   4
BRANCH   1  13
ATOM     13  C   UNL     1       8.181   2.953  -0.075  0.00  0.00    +0.000 C 
ATOM     14  H   UNL     1       8.654   2.274   0.644  0.00  0.00    +0.000 HD
ATOM     15  H   UNL     1       8.850   3.026  -0.940  0.00  0.00    +0.000 HD
BRANCH  13  16
ATOM     16  C   UNL     1       8.034   4.326   0.561  0.00  0.00    +0.000 C 
ATOM     17  H   UNL     1       8.661   4.399   1.455  0.00  0.00    +0.000 HD
ATOM     18  H   UNL     1       6.996   4.511   0.858  0.00  0.00    +0.000 HD
ATOM     19  H   UNL     1       8.338   5.115  -0.133  0.00  0.00    +0.000 HD
ENDBRANCH  13  16
ENDBRANCH   1  13
TORSDOF 5
ENDMDL
