MODEL 1
REMARK VINA RESULT:    -4.703      0.000      0.000
REMARK INTER + INTRA:          -4.703
REMARK INTER:                  -4.703
REMARK INTRA:                   0.000
REMARK UNBOUND:                 0.000
REMARK  Name = 798
REMARK  0 active torsions:
REMARK  status: ('A' for Active; 'I' for Inactive)
REMARK                            x       y       z     vdW  Elec       q    Type
REMARK                         _______ _______ _______ _____ _____    ______ ____
ROOT
ATOM      1  N   UNL     1       4.825 -13.179 -24.845  0.00  0.00    +0.000 N 
ATOM      2  C   UNL     1       5.006 -11.816 -24.783  0.00  0.00    +0.000 A 
ATOM      3  C   UNL     1       6.328 -11.560 -25.156  0.00  0.00    +0.000 A 
ATOM      4  C   UNL     1       6.932 -12.817 -25.442  0.00  0.00    +0.000 A 
ATOM      5  C   UNL     1       4.112 -10.800 -24.431  0.00  0.00    +0.000 A 
ATOM      6  C   UNL     1       6.780 -10.226 -25.177  0.00  0.00    +0.000 A 
ATOM      7  C   UNL     1       5.982 -13.793 -25.242  0.00  0.00    +0.000 A 
ATOM      8  C   UNL     1       4.582  -9.485 -24.459  0.00  0.00    +0.000 A 
ATOM      9  C   UNL     1       5.896  -9.199 -24.827  0.00  0.00    +0.000 A 
ATOM     10  H   UNL     1       3.961 -13.657 -24.628  0.00  0.00    +0.000 HD
ATOM     11  H   UNL     1       7.950 -12.990 -25.760  0.00  0.00    +0.000 HD
ATOM     12  H   UNL     1       3.088 -11.020 -24.144  0.00  0.00    +0.000 HD
ATOM     13  H   UNL     1       7.802  -9.990 -25.462  0.00  0.00    +0.000 HD
ATOM     14  H   UNL     1       6.028 -14.868 -25.347  0.00  0.00    +0.000 HD
ATOM     15  H   UNL     1       3.912  -8.671 -24.191  0.00  0.00    +0.000 HD
ATOM     16  H   UNL     1       6.239  -8.168 -24.842  0.00  0.00    +0.000 HD
ENDROOT
TORSDOF 0
ENDMDL
MODEL 2
REMARK VINA RESULT:    -4.596     17.333     18.232
REMARK INTER + INTRA:          -4.596
REMARK INTER:                  -4.596
REMARK INTRA:                   0.000
REMARK UNBOUND:                 0.000
REMARK  Name = 798
REMARK  0 active torsions:
REMARK  status: ('A' for Active; 'I' for Inactive)
REMARK                            x       y       z     vdW  Elec       q    Type
REMARK                         _______ _______ _______ _____ _____    ______ ____
ROOT
ATOM      1  N   UNL     1      -2.594 -15.544  -8.494  0.00  0.00    +0.000 N 
ATOM      2  C   UNL     1      -1.843 -14.462  -8.891  0.00  0.00    +0.000 A 
ATOM      3  C   UNL     1      -1.561 -13.713  -7.745  0.00  0.00    +0.000 A 
ATOM      4  C   UNL     1      -2.171 -14.385  -6.648  0.00  0.00    +0.000 A 
ATOM      5  C   UNL     1      -1.394 -14.090 -10.163  0.00  0.00    +0.000 A 
ATOM      6  C   UNL     1      -0.796 -12.537  -7.874  0.00  0.00    +0.000 A 
ATOM      7  C   UNL     1      -2.798 -15.507  -7.141  0.00  0.00    +0.000 A 
ATOM      8  C   UNL     1      -0.637 -12.920 -10.266  0.00  0.00    +0.000 A 
ATOM      9  C   UNL     1      -0.341 -12.154  -9.140  0.00  0.00    +0.000 A 
ATOM     10  H   UNL     1      -2.945 -16.262  -9.113  0.00  0.00    +0.000 HD
ATOM     11  H   UNL     1      -2.153 -14.082  -5.611  0.00  0.00    +0.000 HD
ATOM     12  H   UNL     1      -1.623 -14.685 -11.041  0.00  0.00    +0.000 HD
ATOM     13  H   UNL     1      -0.559 -11.931  -7.004  0.00  0.00    +0.000 HD
ATOM     14  H   UNL     1      -3.370 -16.281  -6.648  0.00  0.00    +0.000 HD
ATOM     15  H   UNL     1      -0.273 -12.604 -11.241  0.00  0.00    +0.000 HD
ATOM     16  H   UNL     1       0.250 -11.248  -9.246  0.00  0.00    +0.000 HD
ENDROOT
TORSDOF 0
ENDMDL
MODEL 3
REMARK VINA RESULT:    -4.438     16.944     17.748
REMARK INTER + INTRA:          -4.438
REMARK INTER:                  -4.438
REMARK INTRA:                   0.000
REMARK UNBOUND:                 0.000
REMARK  Name = 798
REMARK  0 active torsions:
REMARK  status: ('A' for Active; 'I' for Inactive)
REMARK                            x       y       z     vdW  Elec       q    Type
REMARK                         _______ _______ _______ _____ _____    ______ ____
ROOT
ATOM      1  N   UNL     1      -1.912 -16.023  -8.367  0.00  0.00    +0.000 N 
ATOM      2  C   UNL     1      -1.530 -14.701  -8.333  0.00  0.00    +0.000 A 
ATOM      3  C   UNL     1      -1.235 -14.323  -9.645  0.00  0.00    +0.000 A 
ATOM      4  C   UNL     1      -1.454 -15.465 -10.467  0.00  0.00    +0.000 A 
ATOM      5  C   UNL     1      -1.423 -13.819  -7.252  0.00  0.00    +0.000 A 
ATOM      6  C   UNL     1      -0.813 -13.002  -9.893  0.00  0.00    +0.000 A 
ATOM      7  C   UNL     1      -1.870 -16.493  -9.652  0.00  0.00    +0.000 A 
ATOM      8  C   UNL     1      -1.002 -12.513  -7.522  0.00  0.00    +0.000 A 
ATOM      9  C   UNL     1      -0.701 -12.109  -8.821  0.00  0.00    +0.000 A 
ATOM     10  H   UNL     1      -2.185 -16.566  -7.560  0.00  0.00    +0.000 HD
ATOM     11  H   UNL     1      -1.323 -15.529 -11.537  0.00  0.00    +0.000 HD
ATOM     12  H   UNL     1      -1.656 -14.131  -6.240  0.00  0.00    +0.000 HD
ATOM     13  H   UNL     1      -0.576 -12.675 -10.901  0.00  0.00    +0.000 HD
ATOM     14  H   UNL     1      -2.139 -17.517  -9.872  0.00  0.00    +0.000 HD
ATOM     15  H   UNL     1      -0.909 -11.803  -6.704  0.00  0.00    +0.000 HD
ATOM     16  H   UNL     1      -0.377 -11.089  -9.006  0.00  0.00    +0.000 HD
ENDROOT
TORSDOF 0
ENDMDL
MODEL 4
REMARK VINA RESULT:    -4.357     42.439     43.512
REMARK INTER + INTRA:          -4.357
REMARK INTER:                  -4.357
REMARK INTRA:                   0.000
REMARK UNBOUND:                 0.000
REMARK  Name = 798
REMARK  0 active torsions:
REMARK  status: ('A' for Active; 'I' for Inactive)
REMARK                            x       y       z     vdW  Elec       q    Type
REMARK                         _______ _______ _______ _____ _____    ______ ____
ROOT
ATOM      1  N   UNL     1      -1.426   9.433  10.839  0.00  0.00    +0.000 N 
ATOM      2  C   UNL     1      -2.109   8.943  11.929  0.00  0.00    +0.000 A 
ATOM      3  C   UNL     1      -3.019   9.928  12.321  0.00  0.00    +0.000 A 
ATOM      4  C   UNL     1      -2.857  11.024  11.427  0.00  0.00    +0.000 A 
ATOM      5  C   UNL     1      -1.993   7.717  12.593  0.00  0.00    +0.000 A 
ATOM      6  C   UNL     1      -3.854   9.679  13.427  0.00  0.00    +0.000 A 
ATOM      7  C   UNL     1      -1.870  10.689  10.528  0.00  0.00    +0.000 A 
ATOM      8  C   UNL     1      -2.832   7.492  13.688  0.00  0.00    +0.000 A 
ATOM      9  C   UNL     1      -3.750   8.456  14.101  0.00  0.00    +0.000 A 
ATOM     10  H   UNL     1      -0.700   8.935  10.341  0.00  0.00    +0.000 HD
ATOM     11  H   UNL     1      -3.402  11.957  11.439  0.00  0.00    +0.000 HD
ATOM     12  H   UNL     1      -1.280   6.965  12.273  0.00  0.00    +0.000 HD
ATOM     13  H   UNL     1      -4.574  10.422  13.759  0.00  0.00    +0.000 HD
ATOM     14  H   UNL     1      -1.446  11.233   9.696  0.00  0.00    +0.000 HD
ATOM     15  H   UNL     1      -2.767   6.549  14.225  0.00  0.00    +0.000 HD
ATOM     16  H   UNL     1      -4.391   8.258  14.955  0.00  0.00    +0.000 HD
ENDROOT
TORSDOF 0
ENDMDL
MODEL 5
REMARK VINA RESULT:    -4.265     27.944     29.586
REMARK INTER + INTRA:          -4.265
REMARK INTER:                  -4.265
REMARK INTRA:                   0.000
REMARK UNBOUND:                 0.000
REMARK  Name = 798
REMARK  0 active torsions:
REMARK  status: ('A' for Active; 'I' for Inactive)
REMARK                            x       y       z     vdW  Elec       q    Type
REMARK                         _______ _______ _______ _____ _____    ______ ____
ROOT
ATOM      1  N   UNL     1       2.262  14.932  -8.373  0.00  0.00    +0.000 N 
ATOM      2  C   UNL     1       2.160  13.936  -9.317  0.00  0.00    +0.000 A 
ATOM      3  C   UNL     1       3.461  13.550  -9.650  0.00  0.00    +0.000 A 
ATOM      4  C   UNL     1       4.345  14.350  -8.873  0.00  0.00    +0.000 A 
ATOM      5  C   UNL     1       1.028  13.352  -9.897  0.00  0.00    +0.000 A 
ATOM      6  C   UNL     1       3.642  12.533 -10.608  0.00  0.00    +0.000 A 
ATOM      7  C   UNL     1       3.577  15.190  -8.098  0.00  0.00    +0.000 A 
ATOM      8  C   UNL     1       1.233  12.345 -10.844  0.00  0.00    +0.000 A 
ATOM      9  C   UNL     1       2.519  11.940 -11.196  0.00  0.00    +0.000 A 
ATOM     10  H   UNL     1       1.477  15.405  -7.945  0.00  0.00    +0.000 HD
ATOM     11  H   UNL     1       5.425  14.316  -8.878  0.00  0.00    +0.000 HD
ATOM     12  H   UNL     1       0.026  13.666  -9.625  0.00  0.00    +0.000 HD
ATOM     13  H   UNL     1       4.639  12.208 -10.890  0.00  0.00    +0.000 HD
ATOM     14  H   UNL     1       3.851  15.946  -7.376  0.00  0.00    +0.000 HD
ATOM     15  H   UNL     1       0.374  11.871 -11.314  0.00  0.00    +0.000 HD
ATOM     16  H   UNL     1       2.653  11.155 -11.935  0.00  0.00    +0.000 HD
ENDROOT
TORSDOF 0
ENDMDL
MODEL 6
REMARK VINA RESULT:    -4.192     50.078     51.028
REMARK INTER + INTRA:          -4.192
REMARK INTER:                  -4.192
REMARK INTRA:                   0.000
REMARK UNBOUND:                 0.000
REMARK  Name = 798
REMARK  0 active torsions:
REMARK  status: ('A' for Active; 'I' for Inactive)
REMARK                            x       y       z     vdW  Elec       q    Type
REMARK                         _______ _______ _______ _____ _____    ______ ____
ROOT
ATOM      1  N   UNL     1     -15.792 -13.741  23.111  0.00  0.00    +0.000 N 
ATOM      2  C   UNL     1     -15.032 -13.838  21.968  0.00  0.00    +0.000 A 
ATOM      3  C   UNL     1     -13.834 -14.464  22.322  0.00  0.00    +0.000 A 
ATOM      4  C   UNL     1     -13.904 -14.738  23.717  0.00  0.00    +0.000 A 
ATOM      5  C   UNL     1     -15.308 -13.423  20.660  0.00  0.00    +0.000 A 
ATOM      6  C   UNL     1     -12.865 -14.688  21.324  0.00  0.00    +0.000 A 
ATOM      7  C   UNL     1     -15.120 -14.282  24.173  0.00  0.00    +0.000 A 
ATOM      8  C   UNL     1     -14.332 -13.656  19.687  0.00  0.00    +0.000 A 
ATOM      9  C   UNL     1     -13.128 -14.279  20.012  0.00  0.00    +0.000 A 
ATOM     10  H   UNL     1     -16.715 -13.329  23.158  0.00  0.00    +0.000 HD
ATOM     11  H   UNL     1     -13.148 -15.218  24.322  0.00  0.00    +0.000 HD
ATOM     12  H   UNL     1     -16.245 -12.939  20.405  0.00  0.00    +0.000 HD
ATOM     13  H   UNL     1     -11.923 -15.172  21.564  0.00  0.00    +0.000 HD
ATOM     14  H   UNL     1     -15.565 -14.295  25.158  0.00  0.00    +0.000 HD
ATOM     15  H   UNL     1     -14.516 -13.347  18.661  0.00  0.00    +0.000 HD
ATOM     16  H   UNL     1     -12.385 -14.449  19.239  0.00  0.00    +0.000 HD
ENDROOT
TORSDOF 0
ENDMDL
MODEL 7
REMARK VINA RESULT:    -4.126     27.047     28.737
REMARK INTER + INTRA:          -4.126
REMARK INTER:                  -4.126
REMARK INTRA:                   0.000
REMARK UNBOUND:                 0.000
REMARK  Name = 798
REMARK  0 active torsions:
REMARK  status: ('A' for Active; 'I' for Inactive)
REMARK                            x       y       z     vdW  Elec       q    Type
REMARK                         _______ _______ _______ _____ _____    ______ ____
ROOT
ATOM      1  N   UNL     1       4.826  15.177 -10.412  0.00  0.00    +0.000 N 
ATOM      2  C   UNL     1       4.636  14.105 -11.255  0.00  0.00    +0.000 A 
ATOM      3  C   UNL     1       3.754  13.230 -10.615  0.00  0.00    +0.000 A 
ATOM      4  C   UNL     1       3.424  13.815  -9.360  0.00  0.00    +0.000 A 
ATOM      5  C   UNL     1       5.171  13.845 -12.521  0.00  0.00    +0.000 A 
ATOM      6  C   UNL     1       3.388  12.038 -11.270  0.00  0.00    +0.000 A 
ATOM      7  C   UNL     1       4.098  15.011  -9.265  0.00  0.00    +0.000 A 
ATOM      8  C   UNL     1       4.793  12.656 -13.151  0.00  0.00    +0.000 A 
ATOM      9  C   UNL     1       3.915  11.765 -12.537  0.00  0.00    +0.000 A 
ATOM     10  H   UNL     1       5.419  15.971 -10.612  0.00  0.00    +0.000 HD
ATOM     11  H   UNL     1       2.764  13.406  -8.608  0.00  0.00    +0.000 HD
ATOM     12  H   UNL     1       5.854  14.538 -13.001  0.00  0.00    +0.000 HD
ATOM     13  H   UNL     1       2.705  11.335 -10.802  0.00  0.00    +0.000 HD
ATOM     14  H   UNL     1       4.124  15.757  -8.483  0.00  0.00    +0.000 HD
ATOM     15  H   UNL     1       5.190  12.424 -14.137  0.00  0.00    +0.000 HD
ATOM     16  H   UNL     1       3.636  10.847 -13.047  0.00  0.00    +0.000 HD
ENDROOT
TORSDOF 0
ENDMDL
MODEL 8
REMARK VINA RESULT:    -4.118     25.854     27.165
REMARK INTER + INTRA:          -4.118
REMARK INTER:                  -4.118
REMARK INTRA:                   0.000
REMARK UNBOUND:                 0.000
REMARK  Name = 798
REMARK  0 active torsions:
REMARK  status: ('A' for Active; 'I' for Inactive)
REMARK                            x       y       z     vdW  Elec       q    Type
REMARK                         _______ _______ _______ _____ _____    ______ ____
ROOT
ATOM      1  N   UNL     1       4.224  11.651 -14.347  0.00  0.00    +0.000 N 
ATOM      2  C   UNL     1       4.076  12.154 -13.075  0.00  0.00    +0.000 A 
ATOM      3  C   UNL     1       4.840  13.321 -13.002  0.00  0.00    +0.000 A 
ATOM      4  C   UNL     1       5.451  13.499 -14.275  0.00  0.00    +0.000 A 
ATOM      5  C   UNL     1       3.331  11.672 -11.993  0.00  0.00    +0.000 A 
ATOM      6  C   UNL     1       4.863  14.043 -11.792  0.00  0.00    +0.000 A 
ATOM      7  C   UNL     1       5.053  12.456 -15.080  0.00  0.00    +0.000 A 
ATOM      8  C   UNL     1       3.369  12.404 -10.803  0.00  0.00    +0.000 A 
ATOM      9  C   UNL     1       4.124  13.572 -10.702  0.00  0.00    +0.000 A 
ATOM     10  H   UNL     1       3.784  10.807 -14.690  0.00  0.00    +0.000 HD
ATOM     11  H   UNL     1       6.111  14.302 -14.572  0.00  0.00    +0.000 HD
ATOM     12  H   UNL     1       2.743  10.763 -12.069  0.00  0.00    +0.000 HD
ATOM     13  H   UNL     1       5.447  14.954 -11.700  0.00  0.00    +0.000 HD
ATOM     14  H   UNL     1       5.287  12.216 -16.108  0.00  0.00    +0.000 HD
ATOM     15  H   UNL     1       2.802  12.056  -9.943  0.00  0.00    +0.000 HD
ATOM     16  H   UNL     1       4.138  14.124  -9.766  0.00  0.00    +0.000 HD
ENDROOT
TORSDOF 0
ENDMDL
MODEL 9
REMARK VINA RESULT:    -4.015     43.792     45.094
REMARK INTER + INTRA:          -4.015
REMARK INTER:                  -4.015
REMARK INTRA:                   0.000
REMARK UNBOUND:                 0.000
REMARK  Name = 798
REMARK  0 active torsions:
REMARK  status: ('A' for Active; 'I' for Inactive)
REMARK                            x       y       z     vdW  Elec       q    Type
REMARK                         _______ _______ _______ _____ _____    ______ ____
ROOT
ATOM      1  N   UNL     1      -2.253  11.410  14.518  0.00  0.00    +0.000 N 
ATOM      2  C   UNL     1      -2.222  10.235  13.801  0.00  0.00    +0.000 A 
ATOM      3  C   UNL     1      -2.762   9.239  14.619  0.00  0.00    +0.000 A 
ATOM      4  C   UNL     1      -3.118   9.858  15.850  0.00  0.00    +0.000 A 
ATOM      5  C   UNL     1      -1.761   9.980  12.505  0.00  0.00    +0.000 A 
ATOM      6  C   UNL     1      -2.847   7.925  14.120  0.00  0.00    +0.000 A 
ATOM      7  C   UNL     1      -2.793  11.192  15.757  0.00  0.00    +0.000 A 
ATOM      8  C   UNL     1      -1.856   8.668  12.031  0.00  0.00    +0.000 A 
ATOM      9  C   UNL     1      -2.390   7.654  12.825  0.00  0.00    +0.000 A 
ATOM     10  H   UNL     1      -1.925  12.303  14.178  0.00  0.00    +0.000 HD
ATOM     11  H   UNL     1      -3.563   9.381  16.711  0.00  0.00    +0.000 HD
ATOM     12  H   UNL     1      -1.345  10.767  11.886  0.00  0.00    +0.000 HD
ATOM     13  H   UNL     1      -3.261   7.126  14.728  0.00  0.00    +0.000 HD
ATOM     14  H   UNL     1      -2.898  12.005  16.462  0.00  0.00    +0.000 HD
ATOM     15  H   UNL     1      -1.507   8.436  11.028  0.00  0.00    +0.000 HD
ATOM     16  H   UNL     1      -2.454   6.642  12.435  0.00  0.00    +0.000 HD
ENDROOT
TORSDOF 0
ENDMDL
MODEL 10
REMARK VINA RESULT:    -3.980     27.145     28.754
REMARK INTER + INTRA:          -3.980
REMARK INTER:                  -3.980
REMARK INTRA:                   0.000
REMARK UNBOUND:                 0.000
REMARK  Name = 798
REMARK  0 active torsions:
REMARK  status: ('A' for Active; 'I' for Inactive)
REMARK                            x       y       z     vdW  Elec       q    Type
REMARK                         _______ _______ _______ _____ _____    ______ ____
ROOT
ATOM      1  N   UNL     1       4.373  12.899 -12.772  0.00  0.00    +0.000 N 
ATOM      2  C   UNL     1       4.584  13.649 -11.637  0.00  0.00    +0.000 A 
ATOM      3  C   UNL     1       3.749  13.134 -10.642  0.00  0.00    +0.000 A 
ATOM      4  C   UNL     1       3.031  12.050 -11.221  0.00  0.00    +0.000 A 
ATOM      5  C   UNL     1       5.440  14.733 -11.416  0.00  0.00    +0.000 A 
ATOM      6  C   UNL     1       3.769  13.729  -9.366  0.00  0.00    +0.000 A 
ATOM      7  C   UNL     1       3.437  11.930 -12.531  0.00  0.00    +0.000 A 
ATOM      8  C   UNL     1       5.443  15.307 -10.142  0.00  0.00    +0.000 A 
ATOM      9  C   UNL     1       4.621  14.813  -9.130  0.00  0.00    +0.000 A 
ATOM     10  H   UNL     1       4.843  13.044 -13.656  0.00  0.00    +0.000 HD
ATOM     11  H   UNL     1       2.297  11.424 -10.734  0.00  0.00    +0.000 HD
ATOM     12  H   UNL     1       6.081  15.119 -12.202  0.00  0.00    +0.000 HD
ATOM     13  H   UNL     1       3.133  13.354  -8.569  0.00  0.00    +0.000 HD
ATOM     14  H   UNL     1       3.142  11.243 -13.311  0.00  0.00    +0.000 HD
ATOM     15  H   UNL     1       6.097  16.151  -9.937  0.00  0.00    +0.000 HD
ATOM     16  H   UNL     1       4.640  15.276  -8.147  0.00  0.00    +0.000 HD
ENDROOT
TORSDOF 0
ENDMDL
