MODEL 1
REMARK VINA RESULT:    -3.644      0.000      0.000
REMARK INTER + INTRA:          -4.177
REMARK INTER:                  -4.177
REMARK INTRA:                   0.000
REMARK UNBOUND:                 0.000
REMARK  Name = 6590
REMARK  4 active torsions:
REMARK  status: ('A' for Active; 'I' for Inactive)
REMARK    1  A    between atoms: O_1  and  C_6
REMARK    2  A    between atoms: C_3  and  C_4
REMARK    3  A    between atoms: C_3  and  C_5
REMARK    4  A    between atoms: C_3  and  C_6
REMARK                            x       y       z     vdW  Elec       q    Type
REMARK                         _______ _______ _______ _____ _____    ______ ____
ROOT
ATOM      1  C   UNL     1       6.781  -1.166  -4.531  0.00  0.00    +0.000 C 
ATOM      2  H   UNL     1       6.831  -1.912  -5.335  0.00  0.00    +0.000 HD
ENDROOT
BRANCH   1   3
ATOM      3  C   UNL     1       6.293  -1.831  -3.251  0.00  0.00    +0.000 C 
ATOM      4  H   UNL     1       6.233  -2.917  -3.371  0.00  0.00    +0.000 HD
ATOM      5  H   UNL     1       5.302  -1.462  -2.964  0.00  0.00    +0.000 HD
ATOM      6  H   UNL     1       6.973  -1.621  -2.418  0.00  0.00    +0.000 HD
ENDBRANCH   1   3
BRANCH   1   7
ATOM      7  C   UNL     1       5.817  -0.071  -4.980  0.00  0.00    +0.000 C 
ATOM      8  H   UNL     1       6.227   0.507  -5.816  0.00  0.00    +0.000 HD
ATOM      9  H   UNL     1       5.606   0.623  -4.159  0.00  0.00    +0.000 HD
ATOM     10  H   UNL     1       4.867  -0.502  -5.313  0.00  0.00    +0.000 HD
ENDBRANCH   1   7
BRANCH   1  12
ATOM     11  O   UNL     1       8.662  -0.291  -3.246  0.00  0.00    +0.000 OA
ATOM     12  C   UNL     1       8.172  -0.602  -4.321  0.00  0.00    +0.000 C 
BRANCH  12  13
ATOM     13  O   UNL     1       8.827  -0.492  -5.505  0.00  0.00    +0.000 OA
ATOM     14  H   UNL     1       9.486  -1.207  -5.626  0.00  0.00    +0.000 HD
ENDBRANCH  12  13
ENDBRANCH   1  12
TORSDOF 4
ENDMDL
MODEL 2
REMARK VINA RESULT:    -3.529      2.237      2.908
REMARK INTER + INTRA:          -4.044
REMARK INTER:                  -4.044
REMARK INTRA:                   0.000
REMARK UNBOUND:                 0.000
REMARK  Name = 6590
REMARK  4 active torsions:
REMARK  status: ('A' for Active; 'I' for Inactive)
REMARK    1  A    between atoms: O_1  and  C_6
REMARK    2  A    between atoms: C_3  and  C_4
REMARK    3  A    between atoms: C_3  and  C_5
REMARK    4  A    between atoms: C_3  and  C_6
REMARK                            x       y       z     vdW  Elec       q    Type
REMARK                         _______ _______ _______ _____ _____    ______ ____
ROOT
ATOM      1  C   UNL     1       6.308  -0.836  -4.166  0.00  0.00    +0.000 C 
ATOM      2  H   UNL     1       5.668  -1.197  -4.982  0.00  0.00    +0.000 HD
ENDROOT
BRANCH   1   3
ATOM      3  C   UNL     1       7.726  -0.633  -4.684  0.00  0.00    +0.000 C 
ATOM      4  H   UNL     1       8.374  -1.464  -4.388  0.00  0.00    +0.000 HD
ATOM      5  H   UNL     1       8.161   0.295  -4.298  0.00  0.00    +0.000 HD
ATOM      6  H   UNL     1       7.737  -0.569  -5.777  0.00  0.00    +0.000 HD
ENDBRANCH   1   3
BRANCH   1   7
ATOM      7  C   UNL     1       6.275  -1.886  -3.059  0.00  0.00    +0.000 C 
ATOM      8  H   UNL     1       7.285  -2.155  -2.732  0.00  0.00    +0.000 HD
ATOM      9  H   UNL     1       5.775  -2.798  -3.401  0.00  0.00    +0.000 HD
ATOM     10  H   UNL     1       5.736  -1.510  -2.183  0.00  0.00    +0.000 HD
ENDBRANCH   1   7
BRANCH   1  12
ATOM     11  O   UNL     1       6.332   1.286  -2.961  0.00  0.00    +0.000 OA
ATOM     12  C   UNL     1       5.747   0.482  -3.671  0.00  0.00    +0.000 C 
BRANCH  12  13
ATOM     13  O   UNL     1       4.484   0.667  -4.134  0.00  0.00    +0.000 OA
ATOM     14  H   UNL     1       3.978  -0.172  -4.162  0.00  0.00    +0.000 HD
ENDBRANCH  12  13
ENDBRANCH   1  12
TORSDOF 4
ENDMDL
MODEL 3
REMARK VINA RESULT:    -3.444      2.309      2.983
REMARK INTER + INTRA:          -3.947
REMARK INTER:                  -3.947
REMARK INTRA:                   0.000
REMARK UNBOUND:                 0.000
REMARK  Name = 6590
REMARK  4 active torsions:
REMARK  status: ('A' for Active; 'I' for Inactive)
REMARK    1  A    between atoms: O_1  and  C_6
REMARK    2  A    between atoms: C_3  and  C_4
REMARK    3  A    between atoms: C_3  and  C_5
REMARK    4  A    between atoms: C_3  and  C_6
REMARK                            x       y       z     vdW  Elec       q    Type
REMARK                         _______ _______ _______ _____ _____    ______ ____
ROOT
ATOM      1  C   UNL     1       6.686  -0.347  -3.897  0.00  0.00    +0.000 C 
ATOM      2  H   UNL     1       7.020   0.348  -3.116  0.00  0.00    +0.000 HD
ENDROOT
BRANCH   1   3
ATOM      3  C   UNL     1       6.221  -1.648  -3.255  0.00  0.00    +0.000 C 
ATOM      4  H   UNL     1       5.208  -1.906  -3.581  0.00  0.00    +0.000 HD
ATOM      5  H   UNL     1       6.220  -1.573  -2.162  0.00  0.00    +0.000 HD
ATOM      6  H   UNL     1       6.885  -2.476  -3.526  0.00  0.00    +0.000 HD
ENDBRANCH   1   3
BRANCH   1   7
ATOM      7  C   UNL     1       7.867  -0.591  -4.831  0.00  0.00    +0.000 C 
ATOM      8  H   UNL     1       8.794  -0.753  -4.272  0.00  0.00    +0.000 HD
ATOM      9  H   UNL     1       8.019   0.264  -5.500  0.00  0.00    +0.000 HD
ATOM     10  H   UNL     1       7.697  -1.480  -5.449  0.00  0.00    +0.000 HD
ENDBRANCH   1   7
BRANCH   1  12
ATOM     11  O   UNL     1       5.304   0.181  -5.838  0.00  0.00    +0.000 OA
ATOM     12  C   UNL     1       5.536   0.297  -4.644  0.00  0.00    +0.000 C 
BRANCH  12  13
ATOM     13  O   UNL     1       4.769   1.032  -3.798  0.00  0.00    +0.000 OA
ATOM     14  H   UNL     1       4.310   0.470  -3.139  0.00  0.00    +0.000 HD
ENDBRANCH  12  13
ENDBRANCH   1  12
TORSDOF 4
ENDMDL
MODEL 4
REMARK VINA RESULT:    -3.402      8.835      9.291
REMARK INTER + INTRA:          -3.900
REMARK INTER:                  -3.900
REMARK INTRA:                   0.000
REMARK UNBOUND:                 0.000
REMARK  Name = 6590
REMARK  4 active torsions:
REMARK  status: ('A' for Active; 'I' for Inactive)
REMARK    1  A    between atoms: O_1  and  C_6
REMARK    2  A    between atoms: C_3  and  C_4
REMARK    3  A    between atoms: C_3  and  C_5
REMARK    4  A    between atoms: C_3  and  C_6
REMARK                            x       y       z     vdW  Elec       q    Type
REMARK                         _______ _______ _______ _____ _____    ______ ____
ROOT
ATOM      1  C   UNL     1      10.251   7.238  -4.270  0.00  0.00    +0.000 C 
ATOM      2  H   UNL     1      10.388   6.150  -4.227  0.00  0.00    +0.000 HD
ENDROOT
BRANCH   1   3
ATOM      3  C   UNL     1       9.699   7.733  -2.939  0.00  0.00    +0.000 C 
ATOM      4  H   UNL     1      10.504   8.098  -2.292  0.00  0.00    +0.000 HD
ATOM      5  H   UNL     1       9.167   6.936  -2.409  0.00  0.00    +0.000 HD
ATOM      6  H   UNL     1       8.991   8.554  -3.092  0.00  0.00    +0.000 HD
ENDBRANCH   1   3
BRANCH   1   7
ATOM      7  C   UNL     1       9.279   7.534  -5.409  0.00  0.00    +0.000 C 
ATOM      8  H   UNL     1       9.670   8.308  -6.078  0.00  0.00    +0.000 HD
ATOM      9  H   UNL     1       8.315   7.878  -5.019  0.00  0.00    +0.000 HD
ATOM     10  H   UNL     1       9.102   6.637  -6.012  0.00  0.00    +0.000 HD
ENDBRANCH   1   7
BRANCH   1  12
ATOM     11  O   UNL     1      12.628   7.281  -4.823  0.00  0.00    +0.000 OA
ATOM     12  C   UNL     1      11.599   7.876  -4.537  0.00  0.00    +0.000 C 
BRANCH  12  13
ATOM     13  O   UNL     1      11.519   9.227  -4.425  0.00  0.00    +0.000 OA
ATOM     14  H   UNL     1      11.769   9.678  -5.259  0.00  0.00    +0.000 HD
ENDBRANCH  12  13
ENDBRANCH   1  12
TORSDOF 4
ENDMDL
MODEL 5
REMARK VINA RESULT:    -3.390      9.555     10.228
REMARK INTER + INTRA:          -3.886
REMARK INTER:                  -3.886
REMARK INTRA:                   0.000
REMARK UNBOUND:                 0.000
REMARK  Name = 6590
REMARK  4 active torsions:
REMARK  status: ('A' for Active; 'I' for Inactive)
REMARK    1  A    between atoms: O_1  and  C_6
REMARK    2  A    between atoms: C_3  and  C_4
REMARK    3  A    between atoms: C_3  and  C_5
REMARK    4  A    between atoms: C_3  and  C_6
REMARK                            x       y       z     vdW  Elec       q    Type
REMARK                         _______ _______ _______ _____ _____    ______ ____
ROOT
ATOM      1  C   UNL     1      12.201   8.151  -3.849  0.00  0.00    +0.000 C 
ATOM      2  H   UNL     1      12.159   9.248  -3.835  0.00  0.00    +0.000 HD
ENDROOT
BRANCH   1   3
ATOM      3  C   UNL     1      11.074   7.611  -4.720  0.00  0.00    +0.000 C 
ATOM      4  H   UNL     1      10.102   7.752  -4.237  0.00  0.00    +0.000 HD
ATOM      5  H   UNL     1      11.204   6.542  -4.921  0.00  0.00    +0.000 HD
ATOM      6  H   UNL     1      11.048   8.124  -5.687  0.00  0.00    +0.000 HD
ENDBRANCH   1   3
BRANCH   1   7
ATOM      7  C   UNL     1      12.057   7.667  -2.409  0.00  0.00    +0.000 C 
ATOM      8  H   UNL     1      12.832   6.936  -2.152  0.00  0.00    +0.000 HD
ATOM      9  H   UNL     1      11.080   7.196  -2.251  0.00  0.00    +0.000 HD
ATOM     10  H   UNL     1      12.149   8.503  -1.707  0.00  0.00    +0.000 HD
ENDBRANCH   1   7
BRANCH   1  12
ATOM     11  O   UNL     1      13.966   6.591  -4.488  0.00  0.00    +0.000 OA
ATOM     12  C   UNL     1      13.539   7.735  -4.423  0.00  0.00    +0.000 C 
BRANCH  12  13
ATOM     13  O   UNL     1      14.222   8.818  -4.877  0.00  0.00    +0.000 OA
ATOM     14  H   UNL     1      13.679   9.363  -5.485  0.00  0.00    +0.000 HD
ENDBRANCH  12  13
ENDBRANCH   1  12
TORSDOF 4
ENDMDL
MODEL 6
REMARK VINA RESULT:    -3.386      2.364      2.908
REMARK INTER + INTRA:          -3.881
REMARK INTER:                  -3.881
REMARK INTRA:                   0.000
REMARK UNBOUND:                 0.000
REMARK  Name = 6590
REMARK  4 active torsions:
REMARK  status: ('A' for Active; 'I' for Inactive)
REMARK    1  A    between atoms: O_1  and  C_6
REMARK    2  A    between atoms: C_3  and  C_4
REMARK    3  A    between atoms: C_3  and  C_5
REMARK    4  A    between atoms: C_3  and  C_6
REMARK                            x       y       z     vdW  Elec       q    Type
REMARK                         _______ _______ _______ _____ _____    ______ ____
ROOT
ATOM      1  C   UNL     1       5.991  -0.741  -4.284  0.00  0.00    +0.000 C 
ATOM      2  H   UNL     1       5.584  -1.461  -5.006  0.00  0.00    +0.000 HD
ENDROOT
BRANCH   1   3
ATOM      3  C   UNL     1       5.215   0.566  -4.378  0.00  0.00    +0.000 C 
ATOM      4  H   UNL     1       4.460   0.632  -3.588  0.00  0.00    +0.000 HD
ATOM      5  H   UNL     1       4.709   0.660  -5.345  0.00  0.00    +0.000 HD
ATOM      6  H   UNL     1       5.886   1.426  -4.276  0.00  0.00    +0.000 HD
ENDBRANCH   1   3
BRANCH   1   7
ATOM      7  C   UNL     1       7.463  -0.529  -4.626  0.00  0.00    +0.000 C 
ATOM      8  H   UNL     1       8.081  -0.473  -3.724  0.00  0.00    +0.000 HD
ATOM      9  H   UNL     1       7.602   0.399  -5.191  0.00  0.00    +0.000 HD
ATOM     10  H   UNL     1       7.844  -1.357  -5.234  0.00  0.00    +0.000 HD
ENDBRANCH   1   7
BRANCH   1  12
ATOM     11  O   UNL     1       5.485  -0.722  -1.897  0.00  0.00    +0.000 OA
ATOM     12  C   UNL     1       5.843  -1.328  -2.895  0.00  0.00    +0.000 C 
BRANCH  12  13
ATOM     13  O   UNL     1       6.158  -2.650  -2.899  0.00  0.00    +0.000 OA
ATOM     14  H   UNL     1       6.581  -2.922  -3.741  0.00  0.00    +0.000 HD
ENDBRANCH  12  13
ENDBRANCH   1  12
TORSDOF 4
ENDMDL
MODEL 7
REMARK VINA RESULT:    -3.295      9.111      9.847
REMARK INTER + INTRA:          -3.776
REMARK INTER:                  -3.776
REMARK INTRA:                   0.000
REMARK UNBOUND:                 0.000
REMARK  Name = 6590
REMARK  4 active torsions:
REMARK  status: ('A' for Active; 'I' for Inactive)
REMARK    1  A    between atoms: O_1  and  C_6
REMARK    2  A    between atoms: C_3  and  C_4
REMARK    3  A    between atoms: C_3  and  C_5
REMARK    4  A    between atoms: C_3  and  C_6
REMARK                            x       y       z     vdW  Elec       q    Type
REMARK                         _______ _______ _______ _____ _____    ______ ____
ROOT
ATOM      1  C   UNL     1      10.268   8.071  -1.114  0.00  0.00    +0.000 C 
ATOM      2  H   UNL     1      10.441   9.154  -1.065  0.00  0.00    +0.000 HD
ENDROOT
BRANCH   1   3
ATOM      3  C   UNL     1      11.594   7.337  -0.961  0.00  0.00    +0.000 C 
ATOM      4  H   UNL     1      12.408   8.038  -0.750  0.00  0.00    +0.000 HD
ATOM      5  H   UNL     1      11.848   6.781  -1.870  0.00  0.00    +0.000 HD
ATOM      6  H   UNL     1      11.548   6.615  -0.139  0.00  0.00    +0.000 HD
ENDBRANCH   1   3
BRANCH   1   7
ATOM      7  C   UNL     1       9.629   7.768  -2.467  0.00  0.00    +0.000 C 
ATOM      8  H   UNL     1      10.377   7.742  -3.267  0.00  0.00    +0.000 HD
ATOM      9  H   UNL     1       8.882   8.527  -2.724  0.00  0.00    +0.000 HD
ATOM     10  H   UNL     1       9.131   6.792  -2.452  0.00  0.00    +0.000 HD
ENDBRANCH   1   7
BRANCH   1  12
ATOM     11  O   UNL     1       9.012   6.550   0.324  0.00  0.00    +0.000 OA
ATOM     12  C   UNL     1       9.335   7.688   0.016  0.00  0.00    +0.000 C 
BRANCH  12  13
ATOM     13  O   UNL     1       8.896   8.795   0.669  0.00  0.00    +0.000 OA
ATOM     14  H   UNL     1       9.021   8.721   1.639  0.00  0.00    +0.000 HD
ENDBRANCH  12  13
ENDBRANCH   1  12
TORSDOF 4
ENDMDL
MODEL 8
REMARK VINA RESULT:    -3.243      1.511      1.707
REMARK INTER + INTRA:          -3.717
REMARK INTER:                  -3.717
REMARK INTRA:                   0.000
REMARK UNBOUND:                 0.000
REMARK  Name = 6590
REMARK  4 active torsions:
REMARK  status: ('A' for Active; 'I' for Inactive)
REMARK    1  A    between atoms: O_1  and  C_6
REMARK    2  A    between atoms: C_3  and  C_4
REMARK    3  A    between atoms: C_3  and  C_5
REMARK    4  A    between atoms: C_3  and  C_6
REMARK                            x       y       z     vdW  Elec       q    Type
REMARK                         _______ _______ _______ _____ _____    ______ ____
ROOT
ATOM      1  C   UNL     1       6.203  -0.408  -3.522  0.00  0.00    +0.000 C 
ATOM      2  H   UNL     1       6.524  -0.927  -4.434  0.00  0.00    +0.000 HD
ENDROOT
BRANCH   1   3
ATOM      3  C   UNL     1       5.665  -1.423  -2.522  0.00  0.00    +0.000 C 
ATOM      4  H   UNL     1       4.625  -1.202  -2.261  0.00  0.00    +0.000 HD
ATOM      5  H   UNL     1       6.256  -1.425  -1.600  0.00  0.00    +0.000 HD
ATOM      6  H   UNL     1       5.702  -2.436  -2.936  0.00  0.00    +0.000 HD
ENDBRANCH   1   3
BRANCH   1   7
ATOM      7  C   UNL     1       5.122   0.593  -3.920  0.00  0.00    +0.000 C 
ATOM      8  H   UNL     1       4.136   0.118  -3.975  0.00  0.00    +0.000 HD
ATOM      9  H   UNL     1       5.341   1.035  -4.899  0.00  0.00    +0.000 HD
ATOM     10  H   UNL     1       5.055   1.405  -3.188  0.00  0.00    +0.000 HD
ENDBRANCH   1   7
BRANCH   1  12
ATOM     11  O   UNL     1       7.380   1.101  -2.007  0.00  0.00    +0.000 OA
ATOM     12  C   UNL     1       7.403   0.306  -2.935  0.00  0.00    +0.000 C 
BRANCH  12  13
ATOM     13  O   UNL     1       8.541  -0.063  -3.579  0.00  0.00    +0.000 OA
ATOM     14  H   UNL     1       9.328   0.008  -3.000  0.00  0.00    +0.000 HD
ENDBRANCH  12  13
ENDBRANCH   1  12
TORSDOF 4
ENDMDL
MODEL 9
REMARK VINA RESULT:    -3.211     12.412     12.983
REMARK INTER + INTRA:          -3.681
REMARK INTER:                  -3.681
REMARK INTRA:                   0.000
REMARK UNBOUND:                 0.000
REMARK  Name = 6590
REMARK  4 active torsions:
REMARK  status: ('A' for Active; 'I' for Inactive)
REMARK    1  A    between atoms: O_1  and  C_6
REMARK    2  A    between atoms: C_3  and  C_4
REMARK    3  A    between atoms: C_3  and  C_5
REMARK    4  A    between atoms: C_3  and  C_6
REMARK                            x       y       z     vdW  Elec       q    Type
REMARK                         _______ _______ _______ _____ _____    ______ ____
ROOT
ATOM      1  C   UNL     1      -3.581   6.908  -6.035  0.00  0.00    +0.000 C 
ATOM      2  H   UNL     1      -4.541   7.346  -5.731  0.00  0.00    +0.000 HD
ENDROOT
BRANCH   1   3
ATOM      3  C   UNL     1      -2.553   8.017  -6.220  0.00  0.00    +0.000 C 
ATOM      4  H   UNL     1      -2.054   8.251  -5.275  0.00  0.00    +0.000 HD
ATOM      5  H   UNL     1      -3.021   8.933  -6.597  0.00  0.00    +0.000 HD
ATOM      6  H   UNL     1      -1.786   7.720  -6.943  0.00  0.00    +0.000 HD
ENDBRANCH   1   3
BRANCH   1   7
ATOM      7  C   UNL     1      -3.814   6.154  -7.341  0.00  0.00    +0.000 C 
ATOM      8  H   UNL     1      -4.438   6.731  -8.031  0.00  0.00    +0.000 HD
ATOM      9  H   UNL     1      -4.309   5.195  -7.155  0.00  0.00    +0.000 HD
ATOM     10  H   UNL     1      -2.863   5.953  -7.847  0.00  0.00    +0.000 HD
ENDBRANCH   1   7
BRANCH   1  12
ATOM     11  O   UNL     1      -2.849   6.274  -3.795  0.00  0.00    +0.000 OA
ATOM     12  C   UNL     1      -3.126   5.962  -4.943  0.00  0.00    +0.000 C 
BRANCH  12  13
ATOM     13  O   UNL     1      -3.070   4.687  -5.409  0.00  0.00    +0.000 OA
ATOM     14  H   UNL     1      -2.204   4.487  -5.824  0.00  0.00    +0.000 HD
ENDBRANCH  12  13
ENDBRANCH   1  12
TORSDOF 4
ENDMDL
MODEL 10
REMARK VINA RESULT:    -3.199     19.338     20.235
REMARK INTER + INTRA:          -3.666
REMARK INTER:                  -3.666
REMARK INTRA:                   0.000
REMARK UNBOUND:                 0.000
REMARK  Name = 6590
REMARK  4 active torsions:
REMARK  status: ('A' for Active; 'I' for Inactive)
REMARK    1  A    between atoms: O_1  and  C_6
REMARK    2  A    between atoms: C_3  and  C_4
REMARK    3  A    between atoms: C_3  and  C_5
REMARK    4  A    between atoms: C_3  and  C_6
REMARK                            x       y       z     vdW  Elec       q    Type
REMARK                         _______ _______ _______ _____ _____    ______ ____
ROOT
ATOM      1  C   UNL     1      18.948  15.095 -11.027  0.00  0.00    +0.000 C 
ATOM      2  H   UNL     1      19.932  15.063 -10.542  0.00  0.00    +0.000 HD
ENDROOT
BRANCH   1   3
ATOM      3  C   UNL     1      19.019  15.982 -12.263  0.00  0.00    +0.000 C 
ATOM      4  H   UNL     1      19.924  15.775 -12.843  0.00  0.00    +0.000 HD
ATOM      5  H   UNL     1      19.022  17.043 -11.990  0.00  0.00    +0.000 HD
ATOM      6  H   UNL     1      18.154  15.815 -12.914  0.00  0.00    +0.000 HD
ENDBRANCH   1   3
BRANCH   1   7
ATOM      7  C   UNL     1      17.954  15.651 -10.011  0.00  0.00    +0.000 C 
ATOM      8  H   UNL     1      17.358  16.465 -10.437  0.00  0.00    +0.000 HD
ATOM      9  H   UNL     1      18.473  16.036  -9.127  0.00  0.00    +0.000 HD
ATOM     10  H   UNL     1      17.257  14.872  -9.683  0.00  0.00    +0.000 HD
ENDBRANCH   1   7
BRANCH   1  12
ATOM     11  O   UNL     1      19.127  13.010 -12.283  0.00  0.00    +0.000 OA
ATOM     12  C   UNL     1      18.571  13.683 -11.428  0.00  0.00    +0.000 C 
BRANCH  12  13
ATOM     13  O   UNL     1      17.516  13.244 -10.694  0.00  0.00    +0.000 OA
ATOM     14  H   UNL     1      16.688  13.715 -10.926  0.00  0.00    +0.000 HD
ENDBRANCH  12  13
ENDBRANCH   1  12
TORSDOF 4
ENDMDL
