MODEL 1
REMARK VINA RESULT:    -3.266      0.000      0.000
REMARK INTER + INTRA:          -4.243
REMARK INTER:                  -3.985
REMARK INTRA:                  -0.258
REMARK UNBOUND:                -0.117
REMARK  Name = 8038
REMARK  6 active torsions:
REMARK  status: ('A' for Active; 'I' for Inactive)
REMARK    1  A    between atoms: O_1  and  C_4
REMARK    2  A    between atoms: O_1  and  C_7
REMARK    3  A    between atoms: C_3  and  C_4
REMARK    4  A    between atoms: C_3  and  C_5
REMARK    5  A    between atoms: C_3  and  C_6
REMARK    6  A    between atoms: C_7  and  C_8
REMARK                            x       y       z     vdW  Elec       q    Type
REMARK                         _______ _______ _______ _____ _____    ______ ____
ROOT
ATOM      1  C   UNL     1     -15.430  -9.692   1.168  0.00  0.00    +0.000 C 
ATOM      2  H   UNL     1     -14.377  -9.405   1.284  0.00  0.00    +0.000 HD
ENDROOT
BRANCH   1   3
ATOM      3  C   UNL     1     -15.512 -10.658  -0.016  0.00  0.00    +0.000 C 
ATOM      4  H   UNL     1     -14.915 -11.556   0.173  0.00  0.00    +0.000 HD
ATOM      5  H   UNL     1     -15.138 -10.191  -0.934  0.00  0.00    +0.000 HD
ATOM      6  H   UNL     1     -16.543 -10.978  -0.195  0.00  0.00    +0.000 HD
ENDBRANCH   1   3
BRANCH   1   7
ATOM      7  C   UNL     1     -16.252  -8.437   0.887  0.00  0.00    +0.000 C 
ATOM      8  H   UNL     1     -16.841  -8.153   1.767  0.00  0.00    +0.000 HD
ATOM      9  H   UNL     1     -16.949  -8.606   0.060  0.00  0.00    +0.000 HD
ATOM     10  H   UNL     1     -15.610  -7.590   0.622  0.00  0.00    +0.000 HD
ENDBRANCH   1   7
BRANCH   1  11
ATOM     11  C   UNL     1     -15.899 -10.359   2.465  0.00  0.00    +0.000 C 
ATOM     12  H   UNL     1     -16.172 -11.401   2.264  0.00  0.00    +0.000 HD
ATOM     13  H   UNL     1     -15.095 -10.343   3.210  0.00  0.00    +0.000 HD
BRANCH  11  14
ATOM     14  O   UNL     1     -17.034  -9.673   2.977  0.00  0.00    +0.000 OA
BRANCH  14  16
ATOM     15  O   UNL     1     -18.295 -10.713   4.610  0.00  0.00    +0.000 OA
ATOM     16  C   UNL     1     -18.050 -10.465   3.437  0.00  0.00    +0.000 C 
BRANCH  16  17
ATOM     17  C   UNL     1     -18.840 -11.001   2.283  0.00  0.00    +0.000 C 
ATOM     18  H   UNL     1     -18.272 -10.883   1.357  0.00  0.00    +0.000 HD
ATOM     19  H   UNL     1     -19.798 -10.478   2.216  0.00  0.00    +0.000 HD
ATOM     20  H   UNL     1     -19.035 -12.065   2.439  0.00  0.00    +0.000 HD
ENDBRANCH  16  17
ENDBRANCH  14  16
ENDBRANCH  11  14
ENDBRANCH   1  11
TORSDOF 6
ENDMDL
MODEL 2
REMARK VINA RESULT:    -3.258     33.975     35.238
REMARK INTER + INTRA:          -4.232
REMARK INTER:                  -4.020
REMARK INTRA:                  -0.212
REMARK UNBOUND:                -0.117
REMARK  Name = 8038
REMARK  6 active torsions:
REMARK  status: ('A' for Active; 'I' for Inactive)
REMARK    1  A    between atoms: O_1  and  C_4
REMARK    2  A    between atoms: O_1  and  C_7
REMARK    3  A    between atoms: C_3  and  C_4
REMARK    4  A    between atoms: C_3  and  C_5
REMARK    5  A    between atoms: C_3  and  C_6
REMARK    6  A    between atoms: C_7  and  C_8
REMARK                            x       y       z     vdW  Elec       q    Type
REMARK                         _______ _______ _______ _____ _____    ______ ____
ROOT
ATOM      1  C   UNL     1       4.949  -9.808 -25.275  0.00  0.00    +0.000 C 
ATOM      2  H   UNL     1       4.798  -9.030 -26.034  0.00  0.00    +0.000 HD
ENDROOT
BRANCH   1   3
ATOM      3  C   UNL     1       3.909  -9.582 -24.176  0.00  0.00    +0.000 C 
ATOM      4  H   UNL     1       3.447 -10.530 -23.878  0.00  0.00    +0.000 HD
ATOM      5  H   UNL     1       3.112  -8.912 -24.516  0.00  0.00    +0.000 HD
ATOM      6  H   UNL     1       4.365  -9.142 -23.284  0.00  0.00    +0.000 HD
ENDBRANCH   1   3
BRANCH   1   7
ATOM      7  C   UNL     1       6.360  -9.671 -24.707  0.00  0.00    +0.000 C 
ATOM      8  H   UNL     1       7.090  -9.522 -25.510  0.00  0.00    +0.000 HD
ATOM      9  H   UNL     1       6.647 -10.575 -24.159  0.00  0.00    +0.000 HD
ATOM     10  H   UNL     1       6.433  -8.821 -24.021  0.00  0.00    +0.000 HD
ENDBRANCH   1   7
BRANCH   1  11
ATOM     11  C   UNL     1       4.771 -11.176 -25.939  0.00  0.00    +0.000 C 
ATOM     12  H   UNL     1       3.893 -11.155 -26.596  0.00  0.00    +0.000 HD
ATOM     13  H   UNL     1       5.655 -11.423 -26.540  0.00  0.00    +0.000 HD
BRANCH  11  14
ATOM     14  O   UNL     1       4.581 -12.175 -24.946  0.00  0.00    +0.000 OA
BRANCH  14  16
ATOM     15  O   UNL     1       4.298 -14.335 -25.715  0.00  0.00    +0.000 OA
ATOM     16  C   UNL     1       5.001 -13.433 -25.278  0.00  0.00    +0.000 C 
BRANCH  16  17
ATOM     17  C   UNL     1       6.473 -13.562 -25.031  0.00  0.00    +0.000 C 
ATOM     18  H   UNL     1       7.020 -12.875 -25.681  0.00  0.00    +0.000 HD
ATOM     19  H   UNL     1       6.789 -14.593 -25.209  0.00  0.00    +0.000 HD
ATOM     20  H   UNL     1       6.690 -13.306 -23.990  0.00  0.00    +0.000 HD
ENDBRANCH  16  17
ENDBRANCH  14  16
ENDBRANCH  11  14
ENDBRANCH   1  11
TORSDOF 6
ENDMDL
MODEL 3
REMARK VINA RESULT:    -3.221      1.543      3.900
REMARK INTER + INTRA:          -4.186
REMARK INTER:                  -3.986
REMARK INTRA:                  -0.200
REMARK UNBOUND:                -0.117
REMARK  Name = 8038
REMARK  6 active torsions:
REMARK  status: ('A' for Active; 'I' for Inactive)
REMARK    1  A    between atoms: O_1  and  C_4
REMARK    2  A    between atoms: O_1  and  C_7
REMARK    3  A    between atoms: C_3  and  C_4
REMARK    4  A    between atoms: C_3  and  C_5
REMARK    5  A    between atoms: C_3  and  C_6
REMARK    6  A    between atoms: C_7  and  C_8
REMARK                            x       y       z     vdW  Elec       q    Type
REMARK                         _______ _______ _______ _____ _____    ______ ____
ROOT
ATOM      1  C   UNL     1     -17.863 -11.132   3.319  0.00  0.00    +0.000 C 
ATOM      2  H   UNL     1     -17.281 -12.047   3.152  0.00  0.00    +0.000 HD
ENDROOT
BRANCH   1   3
ATOM      3  C   UNL     1     -18.425 -11.200   4.740  0.00  0.00    +0.000 C 
ATOM      4  H   UNL     1     -18.685 -12.230   5.006  0.00  0.00    +0.000 HD
ATOM      5  H   UNL     1     -19.327 -10.588   4.839  0.00  0.00    +0.000 HD
ATOM      6  H   UNL     1     -17.692 -10.845   5.473  0.00  0.00    +0.000 HD
ENDBRANCH   1   3
BRANCH   1   7
ATOM      7  C   UNL     1     -19.001 -11.082   2.301  0.00  0.00    +0.000 C 
ATOM      8  H   UNL     1     -19.927 -10.733   2.770  0.00  0.00    +0.000 HD
ATOM      9  H   UNL     1     -19.192 -12.076   1.883  0.00  0.00    +0.000 HD
ATOM     10  H   UNL     1     -18.765 -10.405   1.473  0.00  0.00    +0.000 HD
ENDBRANCH   1   7
BRANCH   1  11
ATOM     11  C   UNL     1     -16.936  -9.926   3.142  0.00  0.00    +0.000 C 
ATOM     12  H   UNL     1     -17.448  -9.151   2.560  0.00  0.00    +0.000 HD
ATOM     13  H   UNL     1     -16.665  -9.511   4.120  0.00  0.00    +0.000 HD
BRANCH  11  14
ATOM     14  O   UNL     1     -15.757 -10.320   2.452  0.00  0.00    +0.000 OA
BRANCH  14  16
ATOM     15  O   UNL     1     -14.703  -9.988   0.423  0.00  0.00    +0.000 OA
ATOM     16  C   UNL     1     -15.490  -9.642   1.294  0.00  0.00    +0.000 C 
BRANCH  16  17
ATOM     17  C   UNL     1     -16.312  -8.391   1.235  0.00  0.00    +0.000 C 
ATOM     18  H   UNL     1     -15.690  -7.527   1.480  0.00  0.00    +0.000 HD
ATOM     19  H   UNL     1     -17.154  -8.468   1.928  0.00  0.00    +0.000 HD
ATOM     20  H   UNL     1     -16.705  -8.262   0.223  0.00  0.00    +0.000 HD
ENDBRANCH  16  17
ENDBRANCH  14  16
ENDBRANCH  11  14
ENDBRANCH   1  11
TORSDOF 6
ENDMDL
MODEL 4
REMARK VINA RESULT:    -3.136     32.896     34.194
REMARK INTER + INTRA:          -4.078
REMARK INTER:                  -3.965
REMARK INTRA:                  -0.113
REMARK UNBOUND:                -0.117
REMARK  Name = 8038
REMARK  6 active torsions:
REMARK  status: ('A' for Active; 'I' for Inactive)
REMARK    1  A    between atoms: O_1  and  C_4
REMARK    2  A    between atoms: O_1  and  C_7
REMARK    3  A    between atoms: C_3  and  C_4
REMARK    4  A    between atoms: C_3  and  C_5
REMARK    5  A    between atoms: C_3  and  C_6
REMARK    6  A    between atoms: C_7  and  C_8
REMARK                            x       y       z     vdW  Elec       q    Type
REMARK                         _______ _______ _______ _____ _____    ______ ____
ROOT
ATOM      1  C   UNL     1       3.491  13.262  -9.883  0.00  0.00    +0.000 C 
ATOM      2  H   UNL     1       3.743  12.260  -9.514  0.00  0.00    +0.000 HD
ENDROOT
BRANCH   1   3
ATOM      3  C   UNL     1       4.174  14.274  -8.961  0.00  0.00    +0.000 C 
ATOM      4  H   UNL     1       5.065  14.696  -9.439  0.00  0.00    +0.000 HD
ATOM      5  H   UNL     1       4.486  13.806  -8.021  0.00  0.00    +0.000 HD
ATOM      6  H   UNL     1       3.504  15.106  -8.721  0.00  0.00    +0.000 HD
ENDBRANCH   1   3
BRANCH   1   7
ATOM      7  C   UNL     1       1.974  13.437  -9.832  0.00  0.00    +0.000 C 
ATOM      8  H   UNL     1       1.472  12.640 -10.392  0.00  0.00    +0.000 HD
ATOM      9  H   UNL     1       1.678  14.393 -10.274  0.00  0.00    +0.000 HD
ATOM     10  H   UNL     1       1.605  13.410  -8.801  0.00  0.00    +0.000 HD
ENDBRANCH   1   7
BRANCH   1  11
ATOM     11  C   UNL     1       3.994  13.392 -11.324  0.00  0.00    +0.000 C 
ATOM     12  H   UNL     1       3.381  14.123 -11.863  0.00  0.00    +0.000 HD
ATOM     13  H   UNL     1       5.037  13.732 -11.332  0.00  0.00    +0.000 HD
BRANCH  11  14
ATOM     14  O   UNL     1       3.901  12.135 -11.983  0.00  0.00    +0.000 OA
BRANCH  14  16
ATOM     15  O   UNL     1       3.888  11.439 -14.186  0.00  0.00    +0.000 OA
ATOM     16  C   UNL     1       4.357  12.104 -13.272  0.00  0.00    +0.000 C 
BRANCH  16  17
ATOM     17  C   UNL     1       5.536  13.017 -13.419  0.00  0.00    +0.000 C 
ATOM     18  H   UNL     1       5.266  13.876 -14.038  0.00  0.00    +0.000 HD
ATOM     19  H   UNL     1       6.374  12.472 -13.861  0.00  0.00    +0.000 HD
ATOM     20  H   UNL     1       5.838  13.380 -12.432  0.00  0.00    +0.000 HD
ENDBRANCH  16  17
ENDBRANCH  14  16
ENDBRANCH  11  14
ENDBRANCH   1  11
TORSDOF 6
ENDMDL
MODEL 5
REMARK VINA RESULT:    -3.024     14.958     16.016
REMARK INTER + INTRA:          -3.937
REMARK INTER:                  -3.762
REMARK INTRA:                  -0.175
REMARK UNBOUND:                -0.117
REMARK  Name = 8038
REMARK  6 active torsions:
REMARK  status: ('A' for Active; 'I' for Inactive)
REMARK    1  A    between atoms: O_1  and  C_4
REMARK    2  A    between atoms: O_1  and  C_7
REMARK    3  A    between atoms: C_3  and  C_4
REMARK    4  A    between atoms: C_3  and  C_5
REMARK    5  A    between atoms: C_3  and  C_6
REMARK    6  A    between atoms: C_7  and  C_8
REMARK                            x       y       z     vdW  Elec       q    Type
REMARK                         _______ _______ _______ _____ _____    ______ ____
ROOT
ATOM      1  C   UNL     1     -27.224  -3.986  12.276  0.00  0.00    +0.000 C 
ATOM      2  H   UNL     1     -27.336  -4.828  12.971  0.00  0.00    +0.000 HD
ENDROOT
BRANCH   1   3
ATOM      3  C   UNL     1     -28.039  -2.820  12.838  0.00  0.00    +0.000 C 
ATOM      4  H   UNL     1     -28.964  -3.179  13.302  0.00  0.00    +0.000 HD
ATOM      5  H   UNL     1     -28.312  -2.111  12.048  0.00  0.00    +0.000 HD
ATOM      6  H   UNL     1     -27.476  -2.275  13.602  0.00  0.00    +0.000 HD
ENDBRANCH   1   3
BRANCH   1   7
ATOM      7  C   UNL     1     -27.766  -4.403  10.910  0.00  0.00    +0.000 C 
ATOM      8  H   UNL     1     -27.980  -5.478  10.888  0.00  0.00    +0.000 HD
ATOM      9  H   UNL     1     -27.036  -4.192  10.122  0.00  0.00    +0.000 HD
ATOM     10  H   UNL     1     -28.691  -3.869  10.668  0.00  0.00    +0.000 HD
ENDBRANCH   1   7
BRANCH   1  11
ATOM     11  C   UNL     1     -25.738  -3.632  12.175  0.00  0.00    +0.000 C 
ATOM     12  H   UNL     1     -25.312  -4.086  11.273  0.00  0.00    +0.000 HD
ATOM     13  H   UNL     1     -25.612  -2.544  12.115  0.00  0.00    +0.000 HD
BRANCH  11  14
ATOM     14  O   UNL     1     -25.045  -4.126  13.314  0.00  0.00    +0.000 OA
BRANCH  14  16
ATOM     15  O   UNL     1     -24.303  -2.087  14.106  0.00  0.00    +0.000 OA
ATOM     16  C   UNL     1     -24.763  -3.206  14.286  0.00  0.00    +0.000 C 
BRANCH  16  17
ATOM     17  C   UNL     1     -25.103  -3.767  15.633  0.00  0.00    +0.000 C 
ATOM     18  H   UNL     1     -24.357  -4.509  15.925  0.00  0.00    +0.000 HD
ATOM     19  H   UNL     1     -26.101  -4.214  15.606  0.00  0.00    +0.000 HD
ATOM     20  H   UNL     1     -25.102  -2.961  16.372  0.00  0.00    +0.000 HD
ENDBRANCH  16  17
ENDBRANCH  14  16
ENDBRANCH  11  14
ENDBRANCH   1  11
TORSDOF 6
ENDMDL
MODEL 6
REMARK VINA RESULT:    -2.975      2.581      4.146
REMARK INTER + INTRA:          -3.875
REMARK INTER:                  -3.682
REMARK INTRA:                  -0.193
REMARK UNBOUND:                -0.117
REMARK  Name = 8038
REMARK  6 active torsions:
REMARK  status: ('A' for Active; 'I' for Inactive)
REMARK    1  A    between atoms: O_1  and  C_4
REMARK    2  A    between atoms: O_1  and  C_7
REMARK    3  A    between atoms: C_3  and  C_4
REMARK    4  A    between atoms: C_3  and  C_5
REMARK    5  A    between atoms: C_3  and  C_6
REMARK    6  A    between atoms: C_7  and  C_8
REMARK                            x       y       z     vdW  Elec       q    Type
REMARK                         _______ _______ _______ _____ _____    ______ ____
ROOT
ATOM      1  C   UNL     1     -16.145  -9.313   1.975  0.00  0.00    +0.000 C 
ATOM      2  H   UNL     1     -15.299  -8.759   2.402  0.00  0.00    +0.000 HD
ENDROOT
BRANCH   1   3
ATOM      3  C   UNL     1     -17.354  -9.071   2.881  0.00  0.00    +0.000 C 
ATOM      4  H   UNL     1     -17.033  -8.802   3.893  0.00  0.00    +0.000 HD
ATOM      5  H   UNL     1     -17.981  -9.966   2.953  0.00  0.00    +0.000 HD
ATOM      6  H   UNL     1     -17.974  -8.252   2.503  0.00  0.00    +0.000 HD
ENDBRANCH   1   3
BRANCH   1   7
ATOM      7  C   UNL     1     -15.793 -10.799   1.945  0.00  0.00    +0.000 C 
ATOM      8  H   UNL     1     -15.115 -11.021   1.113  0.00  0.00    +0.000 HD
ATOM      9  H   UNL     1     -16.693 -11.408   1.814  0.00  0.00    +0.000 HD
ATOM     10  H   UNL     1     -15.303 -11.111   2.873  0.00  0.00    +0.000 HD
ENDBRANCH   1   7
BRANCH   1  11
ATOM     11  C   UNL     1     -16.398  -8.795   0.556  0.00  0.00    +0.000 C 
ATOM     12  H   UNL     1     -16.765  -7.763   0.601  0.00  0.00    +0.000 HD
ATOM     13  H   UNL     1     -15.469  -8.814  -0.025  0.00  0.00    +0.000 HD
BRANCH  11  14
ATOM     14  O   UNL     1     -17.375  -9.604  -0.086  0.00  0.00    +0.000 OA
BRANCH  14  16
ATOM     15  O   UNL     1     -18.043  -8.967  -2.204  0.00  0.00    +0.000 OA
ATOM     16  C   UNL     1     -17.330  -9.620  -1.453  0.00  0.00    +0.000 C 
BRANCH  16  17
ATOM     17  C   UNL     1     -16.265 -10.565  -1.917  0.00  0.00    +0.000 C 
ATOM     18  H   UNL     1     -15.939 -10.291  -2.923  0.00  0.00    +0.000 HD
ATOM     19  H   UNL     1     -16.647 -11.589  -1.902  0.00  0.00    +0.000 HD
ATOM     20  H   UNL     1     -15.406 -10.504  -1.243  0.00  0.00    +0.000 HD
ENDBRANCH  16  17
ENDBRANCH  14  16
ENDBRANCH  11  14
ENDBRANCH   1  11
TORSDOF 6
ENDMDL
MODEL 7
REMARK VINA RESULT:    -2.921      1.731      2.833
REMARK INTER + INTRA:          -3.807
REMARK INTER:                  -3.616
REMARK INTRA:                  -0.191
REMARK UNBOUND:                -0.117
REMARK  Name = 8038
REMARK  6 active torsions:
REMARK  status: ('A' for Active; 'I' for Inactive)
REMARK    1  A    between atoms: O_1  and  C_4
REMARK    2  A    between atoms: O_1  and  C_7
REMARK    3  A    between atoms: C_3  and  C_4
REMARK    4  A    between atoms: C_3  and  C_5
REMARK    5  A    between atoms: C_3  and  C_6
REMARK    6  A    between atoms: C_7  and  C_8
REMARK                            x       y       z     vdW  Elec       q    Type
REMARK                         _______ _______ _______ _____ _____    ______ ____
ROOT
ATOM      1  C   UNL     1     -15.123 -11.259  -0.479  0.00  0.00    +0.000 C 
ATOM      2  H   UNL     1     -15.347 -12.150   0.122  0.00  0.00    +0.000 HD
ENDROOT
BRANCH   1   3
ATOM      3  C   UNL     1     -16.339 -10.990  -1.367  0.00  0.00    +0.000 C 
ATOM      4  H   UNL     1     -17.085 -11.785  -1.257  0.00  0.00    +0.000 HD
ATOM      5  H   UNL     1     -16.055 -10.939  -2.424  0.00  0.00    +0.000 HD
ATOM      6  H   UNL     1     -16.823 -10.045  -1.100  0.00  0.00    +0.000 HD
ENDBRANCH   1   3
BRANCH   1   7
ATOM      7  C   UNL     1     -13.892 -11.543  -1.337  0.00  0.00    +0.000 C 
ATOM      8  H   UNL     1     -13.588 -12.592  -1.246  0.00  0.00    +0.000 HD
ATOM      9  H   UNL     1     -13.047 -10.923  -1.021  0.00  0.00    +0.000 HD
ATOM     10  H   UNL     1     -14.087 -11.338  -2.394  0.00  0.00    +0.000 HD
ENDBRANCH   1   7
BRANCH   1  11
ATOM     11  C   UNL     1     -14.854 -10.087   0.470  0.00  0.00    +0.000 C 
ATOM     12  H   UNL     1     -13.774  -9.980   0.624  0.00  0.00    +0.000 HD
ATOM     13  H   UNL     1     -15.243  -9.156   0.040  0.00  0.00    +0.000 HD
BRANCH  11  14
ATOM     14  O   UNL     1     -15.479 -10.327   1.724  0.00  0.00    +0.000 OA
BRANCH  14  16
ATOM     15  O   UNL     1     -16.941  -9.350   3.222  0.00  0.00    +0.000 OA
ATOM     16  C   UNL     1     -16.314  -9.340   2.171  0.00  0.00    +0.000 C 
BRANCH  16  17
ATOM     17  C   UNL     1     -16.358  -8.220   1.178  0.00  0.00    +0.000 C 
ATOM     18  H   UNL     1     -15.454  -7.612   1.264  0.00  0.00    +0.000 HD
ATOM     19  H   UNL     1     -17.250  -7.611   1.347  0.00  0.00    +0.000 HD
ATOM     20  H   UNL     1     -16.405  -8.634   0.166  0.00  0.00    +0.000 HD
ENDBRANCH  16  17
ENDBRANCH  14  16
ENDBRANCH  11  14
ENDBRANCH   1  11
TORSDOF 6
ENDMDL
MODEL 8
REMARK VINA RESULT:    -2.885      2.232      3.404
REMARK INTER + INTRA:          -3.761
REMARK INTER:                  -3.622
REMARK INTRA:                  -0.139
REMARK UNBOUND:                -0.117
REMARK  Name = 8038
REMARK  6 active torsions:
REMARK  status: ('A' for Active; 'I' for Inactive)
REMARK    1  A    between atoms: O_1  and  C_4
REMARK    2  A    between atoms: O_1  and  C_7
REMARK    3  A    between atoms: C_3  and  C_4
REMARK    4  A    between atoms: C_3  and  C_5
REMARK    5  A    between atoms: C_3  and  C_6
REMARK    6  A    between atoms: C_7  and  C_8
REMARK                            x       y       z     vdW  Elec       q    Type
REMARK                         _______ _______ _______ _____ _____    ______ ____
ROOT
ATOM      1  C   UNL     1     -18.108 -10.184   3.071  0.00  0.00    +0.000 C 
ATOM      2  H   UNL     1     -18.857  -9.455   3.408  0.00  0.00    +0.000 HD
ENDROOT
BRANCH   1   3
ATOM      3  C   UNL     1     -16.936  -9.396   2.483  0.00  0.00    +0.000 C 
ATOM      4  H   UNL     1     -16.001  -9.958   2.583  0.00  0.00    +0.000 HD
ATOM      5  H   UNL     1     -16.808  -8.436   2.994  0.00  0.00    +0.000 HD
ATOM      6  H   UNL     1     -17.089  -9.196   1.418  0.00  0.00    +0.000 HD
ENDBRANCH   1   3
BRANCH   1   7
ATOM      7  C   UNL     1     -18.738 -11.075   2.003  0.00  0.00    +0.000 C 
ATOM      8  H   UNL     1     -17.994 -11.761   1.581  0.00  0.00    +0.000 HD
ATOM      9  H   UNL     1     -19.140 -10.473   1.182  0.00  0.00    +0.000 HD
ATOM     10  H   UNL     1     -19.555 -11.676   2.416  0.00  0.00    +0.000 HD
ENDBRANCH   1   7
BRANCH   1  11
ATOM     11  C   UNL     1     -17.669 -11.023   4.275  0.00  0.00    +0.000 C 
ATOM     12  H   UNL     1     -17.381 -12.026   3.939  0.00  0.00    +0.000 HD
ATOM     13  H   UNL     1     -16.808 -10.555   4.768  0.00  0.00    +0.000 HD
BRANCH  11  14
ATOM     14  O   UNL     1     -18.741 -11.136   5.202  0.00  0.00    +0.000 OA
BRANCH  14  16
ATOM     15  O   UNL     1     -18.726 -13.438   5.006  0.00  0.00    +0.000 OA
ATOM     16  C   UNL     1     -19.078 -12.410   5.569  0.00  0.00    +0.000 C 
BRANCH  16  17
ATOM     17  C   UNL     1     -19.957 -12.376   6.782  0.00  0.00    +0.000 C 
ATOM     18  H   UNL     1     -19.415 -11.932   7.620  0.00  0.00    +0.000 HD
ATOM     19  H   UNL     1     -20.285 -13.389   7.029  0.00  0.00    +0.000 HD
ATOM     20  H   UNL     1     -20.839 -11.765   6.574  0.00  0.00    +0.000 HD
ENDBRANCH  16  17
ENDBRANCH  14  16
ENDBRANCH  11  14
ENDBRANCH   1  11
TORSDOF 6
ENDMDL
MODEL 9
REMARK VINA RESULT:    -2.869      2.218      2.999
REMARK INTER + INTRA:          -3.741
REMARK INTER:                  -3.516
REMARK INTRA:                  -0.225
REMARK UNBOUND:                -0.117
REMARK  Name = 8038
REMARK  6 active torsions:
REMARK  status: ('A' for Active; 'I' for Inactive)
REMARK    1  A    between atoms: O_1  and  C_4
REMARK    2  A    between atoms: O_1  and  C_7
REMARK    3  A    between atoms: C_3  and  C_4
REMARK    4  A    between atoms: C_3  and  C_5
REMARK    5  A    between atoms: C_3  and  C_6
REMARK    6  A    between atoms: C_7  and  C_8
REMARK                            x       y       z     vdW  Elec       q    Type
REMARK                         _______ _______ _______ _____ _____    ______ ____
ROOT
ATOM      1  C   UNL     1     -17.917  -9.681  -0.724  0.00  0.00    +0.000 C 
ATOM      2  H   UNL     1     -18.550  -9.019  -0.120  0.00  0.00    +0.000 HD
ENDROOT
BRANCH   1   3
ATOM      3  C   UNL     1     -18.010  -9.203  -2.175  0.00  0.00    +0.000 C 
ATOM      4  H   UNL     1     -18.721  -9.815  -2.740  0.00  0.00    +0.000 HD
ATOM      5  H   UNL     1     -17.038  -9.267  -2.676  0.00  0.00    +0.000 HD
ATOM      6  H   UNL     1     -18.352  -8.165  -2.229  0.00  0.00    +0.000 HD
ENDBRANCH   1   3
BRANCH   1   7
ATOM      7  C   UNL     1     -18.444 -11.109  -0.601  0.00  0.00    +0.000 C 
ATOM      8  H   UNL     1     -17.894 -11.785  -1.266  0.00  0.00    +0.000 HD
ATOM      9  H   UNL     1     -19.502 -11.158  -0.877  0.00  0.00    +0.000 HD
ATOM     10  H   UNL     1     -18.341 -11.485   0.422  0.00  0.00    +0.000 HD
ENDBRANCH   1   7
BRANCH   1  11
ATOM     11  C   UNL     1     -16.481  -9.594  -0.199  0.00  0.00    +0.000 C 
ATOM     12  H   UNL     1     -16.153 -10.584   0.139  0.00  0.00    +0.000 HD
ATOM     13  H   UNL     1     -15.808  -9.251  -0.993  0.00  0.00    +0.000 HD
BRANCH  11  14
ATOM     14  O   UNL     1     -16.421  -8.689   0.896  0.00  0.00    +0.000 OA
BRANCH  14  16
ATOM     15  O   UNL     1     -17.525  -8.775   2.924  0.00  0.00    +0.000 OA
ATOM     16  C   UNL     1     -16.713  -9.218   2.123  0.00  0.00    +0.000 C 
BRANCH  16  17
ATOM     17  C   UNL     1     -15.885 -10.445   2.359  0.00  0.00    +0.000 C 
ATOM     18  H   UNL     1     -14.886 -10.304   1.940  0.00  0.00    +0.000 HD
ATOM     19  H   UNL     1     -16.373 -11.313   1.908  0.00  0.00    +0.000 HD
ATOM     20  H   UNL     1     -15.791 -10.617   3.435  0.00  0.00    +0.000 HD
ENDBRANCH  16  17
ENDBRANCH  14  16
ENDBRANCH  11  14
ENDBRANCH   1  11
TORSDOF 6
ENDMDL
MODEL 10
REMARK VINA RESULT:    -2.820     25.154     25.570
REMARK INTER + INTRA:          -3.679
REMARK INTER:                  -3.562
REMARK INTRA:                  -0.117
REMARK UNBOUND:                -0.117
REMARK  Name = 8038
REMARK  6 active torsions:
REMARK  status: ('A' for Active; 'I' for Inactive)
REMARK    1  A    between atoms: O_1  and  C_4
REMARK    2  A    between atoms: O_1  and  C_7
REMARK    3  A    between atoms: C_3  and  C_4
REMARK    4  A    between atoms: C_3  and  C_5
REMARK    5  A    between atoms: C_3  and  C_6
REMARK    6  A    between atoms: C_7  and  C_8
REMARK                            x       y       z     vdW  Elec       q    Type
REMARK                         _______ _______ _______ _____ _____    ______ ____
ROOT
ATOM      1  C   UNL     1       5.048  -2.843  13.160  0.00  0.00    +0.000 C 
ATOM      2  H   UNL     1       4.150  -2.314  12.818  0.00  0.00    +0.000 HD
ENDROOT
BRANCH   1   3
ATOM      3  C   UNL     1       6.026  -1.790  13.686  0.00  0.00    +0.000 C 
ATOM      4  H   UNL     1       6.622  -2.193  14.512  0.00  0.00    +0.000 HD
ATOM      5  H   UNL     1       5.495  -0.905  14.054  0.00  0.00    +0.000 HD
ATOM      6  H   UNL     1       6.721  -1.469  12.904  0.00  0.00    +0.000 HD
ENDBRANCH   1   3
BRANCH   1   7
ATOM      7  C   UNL     1       5.659  -3.589  11.975  0.00  0.00    +0.000 C 
ATOM      8  H   UNL     1       5.154  -4.549  11.818  0.00  0.00    +0.000 HD
ATOM      9  H   UNL     1       6.719  -3.794  12.151  0.00  0.00    +0.000 HD
ATOM     10  H   UNL     1       5.573  -3.007  11.051  0.00  0.00    +0.000 HD
ENDBRANCH   1   7
BRANCH   1  11
ATOM     11  C   UNL     1       4.643  -3.828  14.260  0.00  0.00    +0.000 C 
ATOM     12  H   UNL     1       3.971  -4.588  13.844  0.00  0.00    +0.000 HD
ATOM     13  H   UNL     1       5.531  -4.328  14.666  0.00  0.00    +0.000 HD
BRANCH  11  14
ATOM     14  O   UNL     1       3.970  -3.137  15.304  0.00  0.00    +0.000 OA
BRANCH  14  16
ATOM     15  O   UNL     1       2.187  -3.605  16.698  0.00  0.00    +0.000 OA
ATOM     16  C   UNL     1       3.242  -3.917  16.161  0.00  0.00    +0.000 C 
BRANCH  16  17
ATOM     17  C   UNL     1       3.927  -5.234  16.358  0.00  0.00    +0.000 C 
ATOM     18  H   UNL     1       3.540  -5.723  17.256  0.00  0.00    +0.000 HD
ATOM     19  H   UNL     1       5.007  -5.082  16.438  0.00  0.00    +0.000 HD
ATOM     20  H   UNL     1       3.729  -5.879  15.497  0.00  0.00    +0.000 HD
ENDBRANCH  16  17
ENDBRANCH  14  16
ENDBRANCH  11  14
ENDBRANCH   1  11
TORSDOF 6
ENDMDL
