MODEL 1
REMARK VINA RESULT:    -4.178      0.000      0.000
REMARK INTER + INTRA:          -5.076
REMARK INTER:                  -4.995
REMARK INTRA:                  -0.081
REMARK UNBOUND:                -0.043
REMARK  Name = 10430
REMARK  5 active torsions:
REMARK  status: ('A' for Active; 'I' for Inactive)
REMARK    1  A    between atoms: O_1  and  C_7
REMARK    2  A    between atoms: C_3  and  C_4
REMARK    3  A    between atoms: C_3  and  C_5
REMARK    4  A    between atoms: C_3  and  C_6
REMARK    5  A    between atoms: C_4  and  C_7
REMARK                            x       y       z     vdW  Elec       q    Type
REMARK                         _______ _______ _______ _____ _____    ______ ____
ROOT
ATOM      1  C   UNL     1       9.916   7.811  -5.527  0.00  0.00    +0.000 C 
ATOM      2  H   UNL     1      10.526   7.999  -6.419  0.00  0.00    +0.000 HD
ENDROOT
BRANCH   1   3
ATOM      3  C   UNL     1       9.558   9.161  -4.901  0.00  0.00    +0.000 C 
ATOM      4  H   UNL     1       8.771   9.060  -4.148  0.00  0.00    +0.000 HD
ATOM      5  H   UNL     1       9.217   9.874  -5.659  0.00  0.00    +0.000 HD
ATOM      6  H   UNL     1      10.430   9.595  -4.399  0.00  0.00    +0.000 HD
ENDBRANCH   1   3
BRANCH   1   7
ATOM      7  C   UNL     1       8.640   7.089  -5.967  0.00  0.00    +0.000 C 
ATOM      8  H   UNL     1       8.497   6.158  -5.406  0.00  0.00    +0.000 HD
ATOM      9  H   UNL     1       7.760   7.721  -5.808  0.00  0.00    +0.000 HD
ATOM     10  H   UNL     1       8.686   6.839  -7.032  0.00  0.00    +0.000 HD
ENDBRANCH   1   7
BRANCH   1  11
ATOM     11  C   UNL     1      10.723   6.967  -4.529  0.00  0.00    +0.000 C 
ATOM     12  H   UNL     1      10.886   5.953  -4.915  0.00  0.00    +0.000 HD
ATOM     13  H   UNL     1      10.170   6.858  -3.588  0.00  0.00    +0.000 HD
BRANCH  11  15
ATOM     14  O   UNL     1      12.480   7.856  -3.087  0.00  0.00    +0.000 OA
ATOM     15  C   UNL     1      12.072   7.564  -4.201  0.00  0.00    +0.000 C 
BRANCH  15  16
ATOM     16  O   UNL     1      12.807   7.708  -5.333  0.00  0.00    +0.000 OA
ATOM     17  H   UNL     1      12.715   8.607  -5.716  0.00  0.00    +0.000 HD
ENDBRANCH  15  16
ENDBRANCH  11  15
ENDBRANCH   1  11
TORSDOF 5
ENDMDL
MODEL 2
REMARK VINA RESULT:    -4.127      9.595     10.311
REMARK INTER + INTRA:          -5.015
REMARK INTER:                  -4.956
REMARK INTRA:                  -0.059
REMARK UNBOUND:                -0.043
REMARK  Name = 10430
REMARK  5 active torsions:
REMARK  status: ('A' for Active; 'I' for Inactive)
REMARK    1  A    between atoms: O_1  and  C_7
REMARK    2  A    between atoms: C_3  and  C_4
REMARK    3  A    between atoms: C_3  and  C_5
REMARK    4  A    between atoms: C_3  and  C_6
REMARK    5  A    between atoms: C_4  and  C_7
REMARK                            x       y       z     vdW  Elec       q    Type
REMARK                         _______ _______ _______ _____ _____    ______ ____
ROOT
ATOM      1  C   UNL     1       5.667  -0.262  -4.003  0.00  0.00    +0.000 C 
ATOM      2  H   UNL     1       4.736  -0.722  -3.652  0.00  0.00    +0.000 HD
ENDROOT
BRANCH   1   3
ATOM      3  C   UNL     1       5.457   0.198  -5.448  0.00  0.00    +0.000 C 
ATOM      4  H   UNL     1       4.529  -0.204  -5.867  0.00  0.00    +0.000 HD
ATOM      5  H   UNL     1       6.286  -0.114  -6.091  0.00  0.00    +0.000 HD
ATOM      6  H   UNL     1       5.385   1.290  -5.497  0.00  0.00    +0.000 HD
ENDBRANCH   1   3
BRANCH   1   7
ATOM      7  C   UNL     1       5.965   0.947  -3.114  0.00  0.00    +0.000 C 
ATOM      8  H   UNL     1       5.981   0.666  -2.054  0.00  0.00    +0.000 HD
ATOM      9  H   UNL     1       6.937   1.387  -3.364  0.00  0.00    +0.000 HD
ATOM     10  H   UNL     1       5.202   1.722  -3.247  0.00  0.00    +0.000 HD
ENDBRANCH   1   7
BRANCH   1  11
ATOM     11  C   UNL     1       6.801  -1.297  -3.942  0.00  0.00    +0.000 C 
ATOM     12  H   UNL     1       7.779  -0.803  -3.884  0.00  0.00    +0.000 HD
ATOM     13  H   UNL     1       6.811  -1.905  -4.855  0.00  0.00    +0.000 HD
BRANCH  11  15
ATOM     14  O   UNL     1       5.657  -2.773  -2.372  0.00  0.00    +0.000 OA
ATOM     15  C   UNL     1       6.682  -2.238  -2.766  0.00  0.00    +0.000 C 
BRANCH  15  16
ATOM     16  O   UNL     1       7.901  -2.444  -2.207  0.00  0.00    +0.000 OA
ATOM     17  H   UNL     1       8.063  -1.842  -1.449  0.00  0.00    +0.000 HD
ENDBRANCH  15  16
ENDBRANCH  11  15
ENDBRANCH   1  11
TORSDOF 5
ENDMDL
MODEL 3
REMARK VINA RESULT:    -4.048      8.837      9.210
REMARK INTER + INTRA:          -4.920
REMARK INTER:                  -4.872
REMARK INTRA:                  -0.048
REMARK UNBOUND:                -0.043
REMARK  Name = 10430
REMARK  5 active torsions:
REMARK  status: ('A' for Active; 'I' for Inactive)
REMARK    1  A    between atoms: O_1  and  C_7
REMARK    2  A    between atoms: C_3  and  C_4
REMARK    3  A    between atoms: C_3  and  C_5
REMARK    4  A    between atoms: C_3  and  C_6
REMARK    5  A    between atoms: C_4  and  C_7
REMARK                            x       y       z     vdW  Elec       q    Type
REMARK                         _______ _______ _______ _____ _____    ______ ____
ROOT
ATOM      1  C   UNL     1       6.145  -0.133  -3.687  0.00  0.00    +0.000 C 
ATOM      2  H   UNL     1       6.806   0.633  -3.263  0.00  0.00    +0.000 HD
ENDROOT
BRANCH   1   3
ATOM      3  C   UNL     1       5.558  -0.946  -2.531  0.00  0.00    +0.000 C 
ATOM      4  H   UNL     1       5.869  -0.549  -1.560  0.00  0.00    +0.000 HD
ATOM      5  H   UNL     1       5.863  -1.997  -2.586  0.00  0.00    +0.000 HD
ATOM      6  H   UNL     1       4.463  -0.913  -2.555  0.00  0.00    +0.000 HD
ENDBRANCH   1   3
BRANCH   1   7
ATOM      7  C   UNL     1       5.021   0.576  -4.445  0.00  0.00    +0.000 C 
ATOM      8  H   UNL     1       4.979   1.641  -4.189  0.00  0.00    +0.000 HD
ATOM      9  H   UNL     1       5.167   0.492  -5.528  0.00  0.00    +0.000 HD
ATOM     10  H   UNL     1       4.051   0.131  -4.202  0.00  0.00    +0.000 HD
ENDBRANCH   1   7
BRANCH   1  11
ATOM     11  C   UNL     1       6.957  -1.050  -4.614  0.00  0.00    +0.000 C 
ATOM     12  H   UNL     1       6.642  -0.930  -5.658  0.00  0.00    +0.000 HD
ATOM     13  H   UNL     1       6.786  -2.102  -4.355  0.00  0.00    +0.000 HD
BRANCH  11  15
ATOM     14  O   UNL     1       9.160  -0.968  -3.567  0.00  0.00    +0.000 OA
ATOM     15  C   UNL     1       8.445  -0.797  -4.543  0.00  0.00    +0.000 C 
BRANCH  15  16
ATOM     16  O   UNL     1       8.906  -0.376  -5.749  0.00  0.00    +0.000 OA
ATOM     17  H   UNL     1       9.860  -0.152  -5.718  0.00  0.00    +0.000 HD
ENDBRANCH  15  16
ENDBRANCH  11  15
ENDBRANCH   1  11
TORSDOF 5
ENDMDL
MODEL 4
REMARK VINA RESULT:    -3.777      1.508      2.146
REMARK INTER + INTRA:          -4.593
REMARK INTER:                  -4.534
REMARK INTRA:                  -0.059
REMARK UNBOUND:                -0.043
REMARK  Name = 10430
REMARK  5 active torsions:
REMARK  status: ('A' for Active; 'I' for Inactive)
REMARK    1  A    between atoms: O_1  and  C_7
REMARK    2  A    between atoms: C_3  and  C_4
REMARK    3  A    between atoms: C_3  and  C_5
REMARK    4  A    between atoms: C_3  and  C_6
REMARK    5  A    between atoms: C_4  and  C_7
REMARK                            x       y       z     vdW  Elec       q    Type
REMARK                         _______ _______ _______ _____ _____    ______ ____
ROOT
ATOM      1  C   UNL     1      10.930   7.354  -4.075  0.00  0.00    +0.000 C 
ATOM      2  H   UNL     1      11.173   6.292  -4.205  0.00  0.00    +0.000 HD
ENDROOT
BRANCH   1   3
ATOM      3  C   UNL     1      10.239   7.843  -5.350  0.00  0.00    +0.000 C 
ATOM      4  H   UNL     1       9.962   8.899  -5.278  0.00  0.00    +0.000 HD
ATOM      5  H   UNL     1       9.332   7.265  -5.559  0.00  0.00    +0.000 HD
ATOM      6  H   UNL     1      10.907   7.743  -6.213  0.00  0.00    +0.000 HD
ENDBRANCH   1   3
BRANCH   1   7
ATOM      7  C   UNL     1       9.975   7.480  -2.886  0.00  0.00    +0.000 C 
ATOM      8  H   UNL     1       9.042   7.977  -3.178  0.00  0.00    +0.000 HD
ATOM      9  H   UNL     1       9.723   6.494  -2.481  0.00  0.00    +0.000 HD
ATOM     10  H   UNL     1      10.434   8.066  -2.083  0.00  0.00    +0.000 HD
ENDBRANCH   1   7
BRANCH   1  11
ATOM     11  C   UNL     1      12.225   8.148  -3.842  0.00  0.00    +0.000 C 
ATOM     12  H   UNL     1      12.456   8.214  -2.772  0.00  0.00    +0.000 HD
ATOM     13  H   UNL     1      12.110   9.178  -4.202  0.00  0.00    +0.000 HD
BRANCH  11  15
ATOM     14  O   UNL     1      13.644   6.357  -4.700  0.00  0.00    +0.000 OA
ATOM     15  C   UNL     1      13.422   7.548  -4.543  0.00  0.00    +0.000 C 
BRANCH  15  16
ATOM     16  O   UNL     1      14.226   8.533  -5.019  0.00  0.00    +0.000 OA
ATOM     17  H   UNL     1      13.968   9.414  -4.674  0.00  0.00    +0.000 HD
ENDBRANCH  15  16
ENDBRANCH  11  15
ENDBRANCH   1  11
TORSDOF 5
ENDMDL
MODEL 5
REMARK VINA RESULT:    -3.654      9.141      9.861
REMARK INTER + INTRA:          -4.445
REMARK INTER:                  -4.394
REMARK INTRA:                  -0.052
REMARK UNBOUND:                -0.043
REMARK  Name = 10430
REMARK  5 active torsions:
REMARK  status: ('A' for Active; 'I' for Inactive)
REMARK    1  A    between atoms: O_1  and  C_7
REMARK    2  A    between atoms: C_3  and  C_4
REMARK    3  A    between atoms: C_3  and  C_5
REMARK    4  A    between atoms: C_3  and  C_6
REMARK    5  A    between atoms: C_4  and  C_7
REMARK                            x       y       z     vdW  Elec       q    Type
REMARK                         _______ _______ _______ _____ _____    ______ ____
ROOT
ATOM      1  C   UNL     1       7.071  -1.331  -2.478  0.00  0.00    +0.000 C 
ATOM      2  H   UNL     1       6.922  -0.852  -1.502  0.00  0.00    +0.000 HD
ENDROOT
BRANCH   1   3
ATOM      3  C   UNL     1       8.503  -1.870  -2.529  0.00  0.00    +0.000 C 
ATOM      4  H   UNL     1       8.810  -2.102  -3.553  0.00  0.00    +0.000 HD
ATOM      5  H   UNL     1       8.609  -2.779  -1.926  0.00  0.00    +0.000 HD
ATOM      6  H   UNL     1       9.208  -1.126  -2.141  0.00  0.00    +0.000 HD
ENDBRANCH   1   3
BRANCH   1   7
ATOM      7  C   UNL     1       6.077  -2.489  -2.595  0.00  0.00    +0.000 C 
ATOM      8  H   UNL     1       6.179  -3.187  -1.756  0.00  0.00    +0.000 HD
ATOM      9  H   UNL     1       5.046  -2.119  -2.607  0.00  0.00    +0.000 HD
ATOM     10  H   UNL     1       6.244  -3.048  -3.522  0.00  0.00    +0.000 HD
ENDBRANCH   1   7
BRANCH   1  11
ATOM     11  C   UNL     1       6.860  -0.295  -3.592  0.00  0.00    +0.000 C 
ATOM     12  H   UNL     1       6.414  -0.760  -4.480  0.00  0.00    +0.000 HD
ATOM     13  H   UNL     1       7.823   0.125  -3.909  0.00  0.00    +0.000 HD
BRANCH  11  15
ATOM     14  O   UNL     1       6.227   1.679  -2.305  0.00  0.00    +0.000 OA
ATOM     15  C   UNL     1       5.976   0.856  -3.172  0.00  0.00    +0.000 C 
BRANCH  15  16
ATOM     16  O   UNL     1       4.848   0.878  -3.927  0.00  0.00    +0.000 OA
ATOM     17  H   UNL     1       5.028   1.174  -4.844  0.00  0.00    +0.000 HD
ENDBRANCH  15  16
ENDBRANCH  11  15
ENDBRANCH   1  11
TORSDOF 5
ENDMDL
MODEL 6
REMARK VINA RESULT:    -3.627      2.383      3.517
REMARK INTER + INTRA:          -4.413
REMARK INTER:                  -4.362
REMARK INTRA:                  -0.052
REMARK UNBOUND:                -0.043
REMARK  Name = 10430
REMARK  5 active torsions:
REMARK  status: ('A' for Active; 'I' for Inactive)
REMARK    1  A    between atoms: O_1  and  C_7
REMARK    2  A    between atoms: C_3  and  C_4
REMARK    3  A    between atoms: C_3  and  C_5
REMARK    4  A    between atoms: C_3  and  C_6
REMARK    5  A    between atoms: C_4  and  C_7
REMARK                            x       y       z     vdW  Elec       q    Type
REMARK                         _______ _______ _______ _____ _____    ______ ____
ROOT
ATOM      1  C   UNL     1      11.258   7.509  -2.605  0.00  0.00    +0.000 C 
ATOM      2  H   UNL     1      12.072   7.986  -3.166  0.00  0.00    +0.000 HD
ENDROOT
BRANCH   1   3
ATOM      3  C   UNL     1      11.573   6.016  -2.486  0.00  0.00    +0.000 C 
ATOM      4  H   UNL     1      10.794   5.402  -2.948  0.00  0.00    +0.000 HD
ATOM      5  H   UNL     1      11.674   5.712  -1.439  0.00  0.00    +0.000 HD
ATOM      6  H   UNL     1      12.514   5.780  -2.996  0.00  0.00    +0.000 HD
ENDBRANCH   1   3
BRANCH   1   7
ATOM      7  C   UNL     1      11.209   8.140  -1.211  0.00  0.00    +0.000 C 
ATOM      8  H   UNL     1      11.398   7.395  -0.431  0.00  0.00    +0.000 HD
ATOM      9  H   UNL     1      11.960   8.932  -1.115  0.00  0.00    +0.000 HD
ATOM     10  H   UNL     1      10.226   8.585  -1.024  0.00  0.00    +0.000 HD
ENDBRANCH   1   7
BRANCH   1  11
ATOM     11  C   UNL     1       9.935   7.709  -3.359  0.00  0.00    +0.000 C 
ATOM     12  H   UNL     1       9.196   8.217  -2.726  0.00  0.00    +0.000 HD
ATOM     13  H   UNL     1       9.500   6.738  -3.629  0.00  0.00    +0.000 HD
BRANCH  11  15
ATOM     14  O   UNL     1       9.379   9.434  -4.993  0.00  0.00    +0.000 OA
ATOM     15  C   UNL     1      10.091   8.510  -4.630  0.00  0.00    +0.000 C 
BRANCH  15  16
ATOM     16  O   UNL     1      11.178   8.081  -5.321  0.00  0.00    +0.000 OA
ATOM     17  H   UNL     1      12.010   8.464  -4.969  0.00  0.00    +0.000 HD
ENDBRANCH  15  16
ENDBRANCH  11  15
ENDBRANCH   1  11
TORSDOF 5
ENDMDL
MODEL 7
REMARK VINA RESULT:    -3.501      4.934      5.881
REMARK INTER + INTRA:          -4.260
REMARK INTER:                  -4.214
REMARK INTRA:                  -0.046
REMARK UNBOUND:                -0.043
REMARK  Name = 10430
REMARK  5 active torsions:
REMARK  status: ('A' for Active; 'I' for Inactive)
REMARK    1  A    between atoms: O_1  and  C_7
REMARK    2  A    between atoms: C_3  and  C_4
REMARK    3  A    between atoms: C_3  and  C_5
REMARK    4  A    between atoms: C_3  and  C_6
REMARK    5  A    between atoms: C_4  and  C_7
REMARK                            x       y       z     vdW  Elec       q    Type
REMARK                         _______ _______ _______ _____ _____    ______ ____
ROOT
ATOM      1  C   UNL     1      15.183   5.148  -4.981  0.00  0.00    +0.000 C 
ATOM      2  H   UNL     1      15.265   5.300  -3.898  0.00  0.00    +0.000 HD
ENDROOT
BRANCH   1   3
ATOM      3  C   UNL     1      14.612   6.426  -5.599  0.00  0.00    +0.000 C 
ATOM      4  H   UNL     1      15.284   6.843  -6.356  0.00  0.00    +0.000 HD
ATOM      5  H   UNL     1      14.437   7.194  -4.838  0.00  0.00    +0.000 HD
ATOM      6  H   UNL     1      13.657   6.221  -6.095  0.00  0.00    +0.000 HD
ENDBRANCH   1   3
BRANCH   1   7
ATOM      7  C   UNL     1      16.587   4.888  -5.532  0.00  0.00    +0.000 C 
ATOM      8  H   UNL     1      16.753   3.819  -5.708  0.00  0.00    +0.000 HD
ATOM      9  H   UNL     1      16.739   5.418  -6.479  0.00  0.00    +0.000 HD
ATOM     10  H   UNL     1      17.349   5.237  -4.826  0.00  0.00    +0.000 HD
ENDBRANCH   1   7
BRANCH   1  11
ATOM     11  C   UNL     1      14.243   3.965  -5.259  0.00  0.00    +0.000 C 
ATOM     12  H   UNL     1      14.623   3.348  -6.083  0.00  0.00    +0.000 HD
ATOM     13  H   UNL     1      13.255   4.328  -5.571  0.00  0.00    +0.000 HD
BRANCH  11  15
ATOM     14  O   UNL     1      14.926   2.576  -3.373  0.00  0.00    +0.000 OA
ATOM     15  C   UNL     1      14.044   3.071  -4.058  0.00  0.00    +0.000 C 
BRANCH  15  16
ATOM     16  O   UNL     1      12.719   2.910  -3.810  0.00  0.00    +0.000 OA
ATOM     17  H   UNL     1      12.414   3.477  -3.069  0.00  0.00    +0.000 HD
ENDBRANCH  15  16
ENDBRANCH  11  15
ENDBRANCH   1  11
TORSDOF 5
ENDMDL
MODEL 8
REMARK VINA RESULT:    -3.480      2.098      3.565
REMARK INTER + INTRA:          -4.235
REMARK INTER:                  -4.188
REMARK INTRA:                  -0.048
REMARK UNBOUND:                -0.043
REMARK  Name = 10430
REMARK  5 active torsions:
REMARK  status: ('A' for Active; 'I' for Inactive)
REMARK    1  A    between atoms: O_1  and  C_7
REMARK    2  A    between atoms: C_3  and  C_4
REMARK    3  A    between atoms: C_3  and  C_5
REMARK    4  A    between atoms: C_3  and  C_6
REMARK    5  A    between atoms: C_4  and  C_7
REMARK                            x       y       z     vdW  Elec       q    Type
REMARK                         _______ _______ _______ _____ _____    ______ ____
ROOT
ATOM      1  C   UNL     1      12.166   6.957  -4.311  0.00  0.00    +0.000 C 
ATOM      2  H   UNL     1      12.044   6.610  -5.345  0.00  0.00    +0.000 HD
ENDROOT
BRANCH   1   3
ATOM      3  C   UNL     1      12.267   5.727  -3.406  0.00  0.00    +0.000 C 
ATOM      4  H   UNL     1      11.589   4.932  -3.729  0.00  0.00    +0.000 HD
ATOM      5  H   UNL     1      12.031   5.977  -2.366  0.00  0.00    +0.000 HD
ATOM      6  H   UNL     1      13.282   5.315  -3.429  0.00  0.00    +0.000 HD
ENDBRANCH   1   3
BRANCH   1   7
ATOM      7  C   UNL     1      13.463   7.766  -4.232  0.00  0.00    +0.000 C 
ATOM      8  H   UNL     1      14.324   7.118  -4.034  0.00  0.00    +0.000 HD
ATOM      9  H   UNL     1      13.647   8.300  -5.171  0.00  0.00    +0.000 HD
ATOM     10  H   UNL     1      13.406   8.508  -3.429  0.00  0.00    +0.000 HD
ENDBRANCH   1   7
BRANCH   1  11
ATOM     11  C   UNL     1      10.949   7.805  -3.912  0.00  0.00    +0.000 C 
ATOM     12  H   UNL     1      11.264   8.741  -3.435  0.00  0.00    +0.000 HD
ATOM     13  H   UNL     1      10.337   7.269  -3.176  0.00  0.00    +0.000 HD
BRANCH  11  15
ATOM     14  O   UNL     1       9.361   7.375  -5.714  0.00  0.00    +0.000 OA
ATOM     15  C   UNL     1      10.060   8.153  -5.082  0.00  0.00    +0.000 C 
BRANCH  15  16
ATOM     16  O   UNL     1      10.112   9.487  -5.329  0.00  0.00    +0.000 OA
ATOM     17  H   UNL     1      10.147   9.680  -6.289  0.00  0.00    +0.000 HD
ENDBRANCH  15  16
ENDBRANCH  11  15
ENDBRANCH   1  11
TORSDOF 5
ENDMDL
MODEL 9
REMARK VINA RESULT:    -3.475      4.909      5.963
REMARK INTER + INTRA:          -4.230
REMARK INTER:                  -4.186
REMARK INTRA:                  -0.043
REMARK UNBOUND:                -0.043
REMARK  Name = 10430
REMARK  5 active torsions:
REMARK  status: ('A' for Active; 'I' for Inactive)
REMARK    1  A    between atoms: O_1  and  C_7
REMARK    2  A    between atoms: C_3  and  C_4
REMARK    3  A    between atoms: C_3  and  C_5
REMARK    4  A    between atoms: C_3  and  C_6
REMARK    5  A    between atoms: C_4  and  C_7
REMARK                            x       y       z     vdW  Elec       q    Type
REMARK                         _______ _______ _______ _____ _____    ______ ____
ROOT
ATOM      1  C   UNL     1      14.325   4.125  -4.090  0.00  0.00    +0.000 C 
ATOM      2  H   UNL     1      14.749   4.012  -3.085  0.00  0.00    +0.000 HD
ENDROOT
BRANCH   1   3
ATOM      3  C   UNL     1      13.458   2.899  -4.382  0.00  0.00    +0.000 C 
ATOM      4  H   UNL     1      13.179   2.375  -3.463  0.00  0.00    +0.000 HD
ATOM      5  H   UNL     1      13.976   2.190  -5.036  0.00  0.00    +0.000 HD
ATOM      6  H   UNL     1      12.527   3.195  -4.878  0.00  0.00    +0.000 HD
ENDBRANCH   1   3
BRANCH   1   7
ATOM      7  C   UNL     1      13.458   5.387  -4.101  0.00  0.00    +0.000 C 
ATOM      8  H   UNL     1      12.564   5.249  -4.720  0.00  0.00    +0.000 HD
ATOM      9  H   UNL     1      13.133   5.646  -3.087  0.00  0.00    +0.000 HD
ATOM     10  H   UNL     1      14.019   6.238  -4.501  0.00  0.00    +0.000 HD
ENDBRANCH   1   7
BRANCH   1  11
ATOM     11  C   UNL     1      15.465   4.219  -5.116  0.00  0.00    +0.000 C 
ATOM     12  H   UNL     1      15.287   5.036  -5.826  0.00  0.00    +0.000 HD
ATOM     13  H   UNL     1      15.521   3.297  -5.708  0.00  0.00    +0.000 HD
BRANCH  11  15
ATOM     14  O   UNL     1      17.300   3.785  -3.567  0.00  0.00    +0.000 OA
ATOM     15  C   UNL     1      16.818   4.438  -4.480  0.00  0.00    +0.000 C 
BRANCH  15  16
ATOM     16  O   UNL     1      17.462   5.463  -5.095  0.00  0.00    +0.000 OA
ATOM     17  H   UNL     1      17.322   5.452  -6.065  0.00  0.00    +0.000 HD
ENDBRANCH  15  16
ENDBRANCH  11  15
ENDBRANCH   1  11
TORSDOF 5
ENDMDL
MODEL 10
REMARK VINA RESULT:    -3.399     27.804     28.972
REMARK INTER + INTRA:          -4.138
REMARK INTER:                  -4.059
REMARK INTRA:                  -0.079
REMARK UNBOUND:                -0.043
REMARK  Name = 10430
REMARK  5 active torsions:
REMARK  status: ('A' for Active; 'I' for Inactive)
REMARK    1  A    between atoms: O_1  and  C_7
REMARK    2  A    between atoms: C_3  and  C_4
REMARK    3  A    between atoms: C_3  and  C_5
REMARK    4  A    between atoms: C_3  and  C_6
REMARK    5  A    between atoms: C_4  and  C_7
REMARK                            x       y       z     vdW  Elec       q    Type
REMARK                         _______ _______ _______ _____ _____    ______ ____
ROOT
ATOM      1  C   UNL     1       6.449 -11.087 -25.075  0.00  0.00    +0.000 C 
ATOM      2  H   UNL     1       7.137 -11.557 -24.362  0.00  0.00    +0.000 HD
ENDROOT
BRANCH   1   3
ATOM      3  C   UNL     1       6.350  -9.599 -24.732  0.00  0.00    +0.000 C 
ATOM      4  H   UNL     1       7.137  -9.019 -25.224  0.00  0.00    +0.000 HD
ATOM      5  H   UNL     1       6.427  -9.433 -23.652  0.00  0.00    +0.000 HD
ATOM      6  H   UNL     1       5.391  -9.189 -25.067  0.00  0.00    +0.000 HD
ENDBRANCH   1   3
BRANCH   1   7
ATOM      7  C   UNL     1       7.032 -11.256 -26.480  0.00  0.00    +0.000 C 
ATOM      8  H   UNL     1       6.463 -11.993 -27.060  0.00  0.00    +0.000 HD
ATOM      9  H   UNL     1       7.015 -10.307 -27.027  0.00  0.00    +0.000 HD
ATOM     10  H   UNL     1       8.072 -11.595 -26.428  0.00  0.00    +0.000 HD
ENDBRANCH   1   7
BRANCH   1  11
ATOM     11  C   UNL     1       5.066 -11.746 -24.958  0.00  0.00    +0.000 C 
ATOM     12  H   UNL     1       4.424 -11.462 -25.802  0.00  0.00    +0.000 HD
ATOM     13  H   UNL     1       4.556 -11.402 -24.049  0.00  0.00    +0.000 HD
BRANCH  11  15
ATOM     14  O   UNL     1       4.482 -14.028 -25.593  0.00  0.00    +0.000 OA
ATOM     15  C   UNL     1       5.130 -13.254 -24.905  0.00  0.00    +0.000 C 
BRANCH  15  16
ATOM     16  O   UNL     1       6.052 -13.651 -23.991  0.00  0.00    +0.000 OA
ATOM     17  H   UNL     1       6.712 -14.263 -24.381  0.00  0.00    +0.000 HD
ENDBRANCH  15  16
ENDBRANCH  11  15
ENDBRANCH   1  11
TORSDOF 5
ENDMDL
