MODEL 1
REMARK VINA RESULT:    -5.540      0.000      0.000
REMARK INTER + INTRA:          -6.342
REMARK INTER:                  -6.188
REMARK INTRA:                  -0.155
REMARK UNBOUND:                -0.155
REMARK  Name = 22311
REMARK  3 active torsions:
REMARK  status: ('A' for Active; 'I' for Inactive)
REMARK    1  A    between atoms: C_1  and  C_7
REMARK    2  A    between atoms: C_5  and  C_8
REMARK    3  A    between atoms: C_7  and  C_9
REMARK                            x       y       z     vdW  Elec       q    Type
REMARK                         _______ _______ _______ _____ _____    ______ ____
ROOT
ATOM      1  C   UNL     1       7.505  -0.088  -2.077  0.00  0.00    +0.000 C 
ATOM      2  C   UNL     1       6.684   1.178  -2.311  0.00  0.00    +0.000 C 
ATOM      3  C   UNL     1       8.157  -0.565  -3.379  0.00  0.00    +0.000 C 
ATOM      4  C   UNL     1       5.591   0.943  -3.357  0.00  0.00    +0.000 C 
ATOM      5  C   UNL     1       6.064   0.160  -4.557  0.00  0.00    +0.000 C 
ATOM      6  C   UNL     1       7.233  -0.503  -4.559  0.00  0.00    +0.000 C 
ATOM      7  H   UNL     1       6.826  -0.875  -1.722  0.00  0.00    +0.000 HD
ATOM      8  H   UNL     1       7.319   2.003  -2.664  0.00  0.00    +0.000 HD
ATOM      9  H   UNL     1       6.219   1.520  -1.378  0.00  0.00    +0.000 HD
ATOM     10  H   UNL     1       8.491  -1.602  -3.248  0.00  0.00    +0.000 HD
ATOM     11  H   UNL     1       9.050   0.016  -3.642  0.00  0.00    +0.000 HD
ATOM     12  H   UNL     1       5.202   1.917  -3.677  0.00  0.00    +0.000 HD
ATOM     13  H   UNL     1       4.758   0.399  -2.896  0.00  0.00    +0.000 HD
ATOM     14  H   UNL     1       7.548  -1.041  -5.449  0.00  0.00    +0.000 HD
ENDROOT
BRANCH   1  15
ATOM     15  C   UNL     1       8.554   0.179  -1.043  0.00  0.00    +0.000 C 
ATOM     16  C   UNL     1       8.526  -0.405   0.164  0.00  0.00    +0.000 C 
ATOM     17  H   UNL     1       9.295  -0.199   0.902  0.00  0.00    +0.000 HD
ATOM     18  H   UNL     1       7.748  -1.102   0.456  0.00  0.00    +0.000 HD
BRANCH  15  19
ATOM     19  C   UNL     1       9.639   1.139  -1.434  0.00  0.00    +0.000 C 
ATOM     20  H   UNL     1      10.301   1.334  -0.583  0.00  0.00    +0.000 HD
ATOM     21  H   UNL     1      10.236   0.725  -2.254  0.00  0.00    +0.000 HD
ATOM     22  H   UNL     1       9.237   2.102  -1.769  0.00  0.00    +0.000 HD
ENDBRANCH  15  19
ENDBRANCH   1  15
BRANCH   5  23
ATOM     23  C   UNL     1       5.152   0.163  -5.748  0.00  0.00    +0.000 C 
ATOM     24  H   UNL     1       5.438   0.959  -6.443  0.00  0.00    +0.000 HD
ATOM     25  H   UNL     1       4.106   0.325  -5.467  0.00  0.00    +0.000 HD
ATOM     26  H   UNL     1       5.210  -0.796  -6.274  0.00  0.00    +0.000 HD
ENDBRANCH   5  23
TORSDOF 3
ENDMDL
MODEL 2
REMARK VINA RESULT:    -5.364     16.027     18.283
REMARK INTER + INTRA:          -6.145
REMARK INTER:                  -5.992
REMARK INTRA:                  -0.154
REMARK UNBOUND:                -0.155
REMARK  Name = 22311
REMARK  3 active torsions:
REMARK  status: ('A' for Active; 'I' for Inactive)
REMARK    1  A    between atoms: C_1  and  C_7
REMARK    2  A    between atoms: C_5  and  C_8
REMARK    3  A    between atoms: C_7  and  C_9
REMARK                            x       y       z     vdW  Elec       q    Type
REMARK                         _______ _______ _______ _____ _____    ______ ____
ROOT
ATOM      1  C   UNL     1      -1.446 -13.938 -10.446  0.00  0.00    +0.000 C 
ATOM      2  C   UNL     1      -1.387 -15.023  -9.373  0.00  0.00    +0.000 C 
ATOM      3  C   UNL     1      -0.437 -12.823 -10.153  0.00  0.00    +0.000 C 
ATOM      4  C   UNL     1      -1.675 -14.444  -7.985  0.00  0.00    +0.000 C 
ATOM      5  C   UNL     1      -0.977 -13.132  -7.722  0.00  0.00    +0.000 C 
ATOM      6  C   UNL     1      -0.408 -12.418  -8.709  0.00  0.00    +0.000 C 
ATOM      7  H   UNL     1      -2.455 -13.503 -10.436  0.00  0.00    +0.000 HD
ATOM      8  H   UNL     1      -0.396 -15.497  -9.343  0.00  0.00    +0.000 HD
ATOM      9  H   UNL     1      -2.108 -15.822  -9.585  0.00  0.00    +0.000 HD
ATOM     10  H   UNL     1      -0.694 -11.945 -10.759  0.00  0.00    +0.000 HD
ATOM     11  H   UNL     1       0.588 -13.099 -10.428  0.00  0.00    +0.000 HD
ATOM     12  H   UNL     1      -1.377 -15.183  -7.232  0.00  0.00    +0.000 HD
ATOM     13  H   UNL     1      -2.756 -14.289  -7.874  0.00  0.00    +0.000 HD
ATOM     14  H   UNL     1       0.102 -11.487  -8.477  0.00  0.00    +0.000 HD
ENDROOT
BRANCH   1  15
ATOM     15  C   UNL     1      -1.169 -14.544 -11.787  0.00  0.00    +0.000 C 
ATOM     16  C   UNL     1      -0.915 -13.791 -12.868  0.00  0.00    +0.000 C 
ATOM     17  H   UNL     1      -0.717 -14.248 -13.832  0.00  0.00    +0.000 HD
ATOM     18  H   UNL     1      -0.893 -12.707 -12.831  0.00  0.00    +0.000 HD
BRANCH  15  19
ATOM     19  C   UNL     1      -1.194 -16.043 -11.853  0.00  0.00    +0.000 C 
ATOM     20  H   UNL     1      -2.050 -16.435 -11.294  0.00  0.00    +0.000 HD
ATOM     21  H   UNL     1      -1.272 -16.376 -12.894  0.00  0.00    +0.000 HD
ATOM     22  H   UNL     1      -0.288 -16.489 -11.429  0.00  0.00    +0.000 HD
ENDBRANCH  15  19
ENDBRANCH   1  15
BRANCH   5  23
ATOM     23  C   UNL     1      -0.957 -12.670  -6.295  0.00  0.00    +0.000 C 
ATOM     24  H   UNL     1      -0.214 -13.237  -5.724  0.00  0.00    +0.000 HD
ATOM     25  H   UNL     1      -1.927 -12.802  -5.805  0.00  0.00    +0.000 HD
ATOM     26  H   UNL     1      -0.699 -11.607  -6.243  0.00  0.00    +0.000 HD
ENDBRANCH   5  23
TORSDOF 3
ENDMDL
MODEL 3
REMARK VINA RESULT:    -4.807     16.973     18.875
REMARK INTER + INTRA:          -5.523
REMARK INTER:                  -5.370
REMARK INTRA:                  -0.154
REMARK UNBOUND:                -0.155
REMARK  Name = 22311
REMARK  3 active torsions:
REMARK  status: ('A' for Active; 'I' for Inactive)
REMARK    1  A    between atoms: C_1  and  C_7
REMARK    2  A    between atoms: C_5  and  C_8
REMARK    3  A    between atoms: C_7  and  C_9
REMARK                            x       y       z     vdW  Elec       q    Type
REMARK                         _______ _______ _______ _____ _____    ______ ____
ROOT
ATOM      1  C   UNL     1      -0.901 -14.326  -9.601  0.00  0.00    +0.000 C 
ATOM      2  C   UNL     1      -1.804 -15.533  -9.357  0.00  0.00    +0.000 C 
ATOM      3  C   UNL     1      -1.101 -13.771 -11.014  0.00  0.00    +0.000 C 
ATOM      4  C   UNL     1      -1.524 -16.646 -10.371  0.00  0.00    +0.000 C 
ATOM      5  C   UNL     1      -1.358 -16.145 -11.785  0.00  0.00    +0.000 C 
ATOM      6  C   UNL     1      -1.184 -14.841 -12.062  0.00  0.00    +0.000 C 
ATOM      7  H   UNL     1       0.143 -14.654  -9.502  0.00  0.00    +0.000 HD
ATOM      8  H   UNL     1      -2.865 -15.259  -9.439  0.00  0.00    +0.000 HD
ATOM      9  H   UNL     1      -1.662 -15.929  -8.343  0.00  0.00    +0.000 HD
ATOM     10  H   UNL     1      -0.260 -13.108 -11.256  0.00  0.00    +0.000 HD
ATOM     11  H   UNL     1      -2.009 -13.163 -11.105  0.00  0.00    +0.000 HD
ATOM     12  H   UNL     1      -2.346 -17.371 -10.326  0.00  0.00    +0.000 HD
ATOM     13  H   UNL     1      -0.609 -17.178 -10.083  0.00  0.00    +0.000 HD
ATOM     14  H   UNL     1      -1.087 -14.517 -13.095  0.00  0.00    +0.000 HD
ENDROOT
BRANCH   1  15
ATOM     15  C   UNL     1      -1.196 -13.266  -8.584  0.00  0.00    +0.000 C 
ATOM     16  C   UNL     1      -1.803 -13.547  -7.422  0.00  0.00    +0.000 C 
ATOM     17  H   UNL     1      -2.010 -12.767  -6.697  0.00  0.00    +0.000 HD
ATOM     18  H   UNL     1      -2.109 -14.552  -7.153  0.00  0.00    +0.000 HD
BRANCH  15  19
ATOM     19  C   UNL     1      -0.775 -11.871  -8.942  0.00  0.00    +0.000 C 
ATOM     20  H   UNL     1       0.314 -11.778  -8.893  0.00  0.00    +0.000 HD
ATOM     21  H   UNL     1      -1.103 -11.624  -9.958  0.00  0.00    +0.000 HD
ATOM     22  H   UNL     1      -1.204 -11.125  -8.264  0.00  0.00    +0.000 HD
ENDBRANCH  15  19
ENDBRANCH   1  15
BRANCH   5  23
ATOM     23  C   UNL     1      -1.398 -17.187 -12.863  0.00  0.00    +0.000 C 
ATOM     24  H   UNL     1      -0.532 -17.853 -12.778  0.00  0.00    +0.000 HD
ATOM     25  H   UNL     1      -1.382 -16.745 -13.865  0.00  0.00    +0.000 HD
ATOM     26  H   UNL     1      -2.309 -17.788 -12.778  0.00  0.00    +0.000 HD
ENDBRANCH   5  23
TORSDOF 3
ENDMDL
MODEL 4
REMARK VINA RESULT:    -4.750     17.459     19.675
REMARK INTER + INTRA:          -5.460
REMARK INTER:                  -5.305
REMARK INTRA:                  -0.155
REMARK UNBOUND:                -0.155
REMARK  Name = 22311
REMARK  3 active torsions:
REMARK  status: ('A' for Active; 'I' for Inactive)
REMARK    1  A    between atoms: C_1  and  C_7
REMARK    2  A    between atoms: C_5  and  C_8
REMARK    3  A    between atoms: C_7  and  C_9
REMARK                            x       y       z     vdW  Elec       q    Type
REMARK                         _______ _______ _______ _____ _____    ______ ____
ROOT
ATOM      1  C   UNL     1      -1.024 -15.823 -11.021  0.00  0.00    +0.000 C 
ATOM      2  C   UNL     1      -1.184 -14.563 -11.869  0.00  0.00    +0.000 C 
ATOM      3  C   UNL     1      -1.713 -15.659  -9.663  0.00  0.00    +0.000 C 
ATOM      4  C   UNL     1      -0.596 -13.341 -11.159  0.00  0.00    +0.000 C 
ATOM      5  C   UNL     1      -0.945 -13.271  -9.692  0.00  0.00    +0.000 C 
ATOM      6  C   UNL     1      -1.464 -14.321  -9.033  0.00  0.00    +0.000 C 
ATOM      7  H   UNL     1       0.049 -15.985 -10.848  0.00  0.00    +0.000 HD
ATOM      8  H   UNL     1      -2.243 -14.357 -12.078  0.00  0.00    +0.000 HD
ATOM      9  H   UNL     1      -0.692 -14.682 -12.843  0.00  0.00    +0.000 HD
ATOM     10  H   UNL     1      -1.348 -16.440  -8.984  0.00  0.00    +0.000 HD
ATOM     11  H   UNL     1      -2.801 -15.786  -9.723  0.00  0.00    +0.000 HD
ATOM     12  H   UNL     1      -0.952 -12.438 -11.670  0.00  0.00    +0.000 HD
ATOM     13  H   UNL     1       0.496 -13.356 -11.254  0.00  0.00    +0.000 HD
ATOM     14  H   UNL     1      -1.719 -14.225  -7.981  0.00  0.00    +0.000 HD
ENDROOT
BRANCH   1  15
ATOM     15  C   UNL     1      -1.600 -16.996 -11.753  0.00  0.00    +0.000 C 
ATOM     16  C   UNL     1      -1.612 -17.061 -13.093  0.00  0.00    +0.000 C 
ATOM     17  H   UNL     1      -2.034 -17.918 -13.606  0.00  0.00    +0.000 HD
ATOM     18  H   UNL     1      -1.204 -16.273 -13.717  0.00  0.00    +0.000 HD
BRANCH  15  19
ATOM     19  C   UNL     1      -2.165 -18.094 -10.901  0.00  0.00    +0.000 C 
ATOM     20  H   UNL     1      -3.100 -18.468 -11.332  0.00  0.00    +0.000 HD
ATOM     21  H   UNL     1      -1.455 -18.925 -10.833  0.00  0.00    +0.000 HD
ATOM     22  H   UNL     1      -2.381 -17.757  -9.882  0.00  0.00    +0.000 HD
ENDBRANCH  15  19
ENDBRANCH   1  15
BRANCH   5  23
ATOM     23  C   UNL     1      -0.677 -11.961  -9.012  0.00  0.00    +0.000 C 
ATOM     24  H   UNL     1       0.053 -11.379  -9.585  0.00  0.00    +0.000 HD
ATOM     25  H   UNL     1      -0.278 -12.095  -8.001  0.00  0.00    +0.000 HD
ATOM     26  H   UNL     1      -1.600 -11.378  -8.932  0.00  0.00    +0.000 HD
ENDBRANCH   5  23
TORSDOF 3
ENDMDL
MODEL 5
REMARK VINA RESULT:    -4.620     15.244     15.932
REMARK INTER + INTRA:          -5.315
REMARK INTER:                  -5.170
REMARK INTRA:                  -0.145
REMARK UNBOUND:                -0.155
REMARK  Name = 22311
REMARK  3 active torsions:
REMARK  status: ('A' for Active; 'I' for Inactive)
REMARK    1  A    between atoms: C_1  and  C_7
REMARK    2  A    between atoms: C_5  and  C_8
REMARK    3  A    between atoms: C_7  and  C_9
REMARK                            x       y       z     vdW  Elec       q    Type
REMARK                         _______ _______ _______ _____ _____    ______ ____
ROOT
ATOM      1  C   UNL     1       4.093  13.529  -9.974  0.00  0.00    +0.000 C 
ATOM      2  C   UNL     1       2.871  12.736 -10.435  0.00  0.00    +0.000 C 
ATOM      3  C   UNL     1       4.646  14.391 -11.113  0.00  0.00    +0.000 C 
ATOM      4  C   UNL     1       3.215  11.831 -11.621  0.00  0.00    +0.000 C 
ATOM      5  C   UNL     1       4.072  12.504 -12.665  0.00  0.00    +0.000 C 
ATOM      6  C   UNL     1       4.700  13.669 -12.427  0.00  0.00    +0.000 C 
ATOM      7  H   UNL     1       4.870  12.813  -9.672  0.00  0.00    +0.000 HD
ATOM      8  H   UNL     1       2.057  13.406 -10.745  0.00  0.00    +0.000 HD
ATOM      9  H   UNL     1       2.474  12.120  -9.618  0.00  0.00    +0.000 HD
ATOM     10  H   UNL     1       5.660  14.716 -10.850  0.00  0.00    +0.000 HD
ATOM     11  H   UNL     1       4.061  15.304 -11.274  0.00  0.00    +0.000 HD
ATOM     12  H   UNL     1       2.280  11.482 -12.074  0.00  0.00    +0.000 HD
ATOM     13  H   UNL     1       3.747  10.942 -11.257  0.00  0.00    +0.000 HD
ATOM     14  H   UNL     1       5.293  14.132 -13.211  0.00  0.00    +0.000 HD
ENDROOT
BRANCH   1  15
ATOM     15  C   UNL     1       3.719  14.392  -8.809  0.00  0.00    +0.000 C 
ATOM     16  C   UNL     1       2.455  14.787  -8.595  0.00  0.00    +0.000 C 
ATOM     17  H   UNL     1       2.203  15.413  -7.745  0.00  0.00    +0.000 HD
ATOM     18  H   UNL     1       1.637  14.502  -9.248  0.00  0.00    +0.000 HD
BRANCH  15  19
ATOM     19  C   UNL     1       4.840  14.791  -7.895  0.00  0.00    +0.000 C 
ATOM     20  H   UNL     1       5.411  15.617  -8.331  0.00  0.00    +0.000 HD
ATOM     21  H   UNL     1       4.444  15.112  -6.926  0.00  0.00    +0.000 HD
ATOM     22  H   UNL     1       5.537  13.965  -7.712  0.00  0.00    +0.000 HD
ENDBRANCH  15  19
ENDBRANCH   1  15
BRANCH   5  23
ATOM     23  C   UNL     1       4.184  11.797 -13.983  0.00  0.00    +0.000 C 
ATOM     24  H   UNL     1       5.172  11.336 -14.083  0.00  0.00    +0.000 HD
ATOM     25  H   UNL     1       4.047  12.478 -14.830  0.00  0.00    +0.000 HD
ATOM     26  H   UNL     1       3.424  11.012 -14.059  0.00  0.00    +0.000 HD
ENDBRANCH   5  23
TORSDOF 3
ENDMDL
MODEL 6
REMARK VINA RESULT:    -4.617     23.502     25.314
REMARK INTER + INTRA:          -5.311
REMARK INTER:                  -5.157
REMARK INTRA:                  -0.154
REMARK UNBOUND:                -0.155
REMARK  Name = 22311
REMARK  3 active torsions:
REMARK  status: ('A' for Active; 'I' for Inactive)
REMARK    1  A    between atoms: C_1  and  C_7
REMARK    2  A    between atoms: C_5  and  C_8
REMARK    3  A    between atoms: C_7  and  C_9
REMARK                            x       y       z     vdW  Elec       q    Type
REMARK                         _______ _______ _______ _____ _____    ______ ____
ROOT
ATOM      1  C   UNL     1       6.895 -11.360 -25.236  0.00  0.00    +0.000 C 
ATOM      2  C   UNL     1       6.650  -9.911 -25.653  0.00  0.00    +0.000 C 
ATOM      3  C   UNL     1       5.591 -12.162 -25.253  0.00  0.00    +0.000 C 
ATOM      4  C   UNL     1       5.637  -9.233 -24.726  0.00  0.00    +0.000 C 
ATOM      5  C   UNL     1       4.446 -10.100 -24.397  0.00  0.00    +0.000 C 
ATOM      6  C   UNL     1       4.433 -11.418 -24.656  0.00  0.00    +0.000 C 
ATOM      7  H   UNL     1       7.287 -11.357 -24.209  0.00  0.00    +0.000 HD
ATOM      8  H   UNL     1       6.261  -9.854 -26.679  0.00  0.00    +0.000 HD
ATOM      9  H   UNL     1       7.585  -9.337 -25.642  0.00  0.00    +0.000 HD
ATOM     10  H   UNL     1       5.739 -13.092 -24.689  0.00  0.00    +0.000 HD
ATOM     11  H   UNL     1       5.291 -12.460 -26.265  0.00  0.00    +0.000 HD
ATOM     12  H   UNL     1       5.302  -8.302 -25.199  0.00  0.00    +0.000 HD
ATOM     13  H   UNL     1       6.133  -8.956 -23.787  0.00  0.00    +0.000 HD
ATOM     14  H   UNL     1       3.549 -12.006 -24.422  0.00  0.00    +0.000 HD
ENDROOT
BRANCH   1  15
ATOM     15  C   UNL     1       7.897 -11.983 -26.158  0.00  0.00    +0.000 C 
ATOM     16  C   UNL     1       8.041 -13.313 -26.255  0.00  0.00    +0.000 C 
ATOM     17  H   UNL     1       8.772 -13.748 -26.929  0.00  0.00    +0.000 HD
ATOM     18  H   UNL     1       7.441 -14.008 -25.676  0.00  0.00    +0.000 HD
BRANCH  15  19
ATOM     19  C   UNL     1       8.731 -11.035 -26.968  0.00  0.00    +0.000 C 
ATOM     20  H   UNL     1       8.584 -10.007 -26.621  0.00  0.00    +0.000 HD
ATOM     21  H   UNL     1       9.793 -11.288 -26.874  0.00  0.00    +0.000 HD
ATOM     22  H   UNL     1       8.475 -11.066 -28.032  0.00  0.00    +0.000 HD
ENDBRANCH  15  19
ENDBRANCH   1  15
BRANCH   5  23
ATOM     23  C   UNL     1       3.279  -9.403 -23.764  0.00  0.00    +0.000 C 
ATOM     24  H   UNL     1       2.951  -9.948 -22.872  0.00  0.00    +0.000 HD
ATOM     25  H   UNL     1       2.423  -9.330 -24.444  0.00  0.00    +0.000 HD
ATOM     26  H   UNL     1       3.557  -8.386 -23.468  0.00  0.00    +0.000 HD
ENDBRANCH   5  23
TORSDOF 3
ENDMDL
MODEL 7
REMARK VINA RESULT:    -4.403     15.252     16.321
REMARK INTER + INTRA:          -5.072
REMARK INTER:                  -4.917
REMARK INTRA:                  -0.156
REMARK UNBOUND:                -0.155
REMARK  Name = 22311
REMARK  3 active torsions:
REMARK  status: ('A' for Active; 'I' for Inactive)
REMARK    1  A    between atoms: C_1  and  C_7
REMARK    2  A    between atoms: C_5  and  C_8
REMARK    3  A    between atoms: C_7  and  C_9
REMARK                            x       y       z     vdW  Elec       q    Type
REMARK                         _______ _______ _______ _____ _____    ______ ____
ROOT
ATOM      1  C   UNL     1       3.497  12.964 -10.206  0.00  0.00    +0.000 C 
ATOM      2  C   UNL     1       4.418  14.031 -10.794  0.00  0.00    +0.000 C 
ATOM      3  C   UNL     1       2.321  13.606  -9.463  0.00  0.00    +0.000 C 
ATOM      4  C   UNL     1       4.965  14.952  -9.700  0.00  0.00    +0.000 C 
ATOM      5  C   UNL     1       3.925  15.375  -8.692  0.00  0.00    +0.000 C 
ATOM      6  C   UNL     1       2.728  14.768  -8.607  0.00  0.00    +0.000 C 
ATOM      7  H   UNL     1       4.078  12.369  -9.488  0.00  0.00    +0.000 HD
ATOM      8  H   UNL     1       3.887  14.654 -11.527  0.00  0.00    +0.000 HD
ATOM      9  H   UNL     1       5.259  13.571 -11.328  0.00  0.00    +0.000 HD
ATOM     10  H   UNL     1       1.849  12.848  -8.825  0.00  0.00    +0.000 HD
ATOM     11  H   UNL     1       1.539  13.967 -10.142  0.00  0.00    +0.000 HD
ATOM     12  H   UNL     1       5.403  15.837 -10.178  0.00  0.00    +0.000 HD
ATOM     13  H   UNL     1       5.776  14.440  -9.166  0.00  0.00    +0.000 HD
ATOM     14  H   UNL     1       1.998  15.114  -7.880  0.00  0.00    +0.000 HD
ENDROOT
BRANCH   1  15
ATOM     15  C   UNL     1       2.992  12.079 -11.304  0.00  0.00    +0.000 C 
ATOM     16  C   UNL     1       1.765  11.539 -11.272  0.00  0.00    +0.000 C 
ATOM     17  H   UNL     1       1.416  10.899 -12.076  0.00  0.00    +0.000 HD
ATOM     18  H   UNL     1       1.072  11.714 -10.456  0.00  0.00    +0.000 HD
BRANCH  15  19
ATOM     19  C   UNL     1       3.939  11.830 -12.441  0.00  0.00    +0.000 C 
ATOM     20  H   UNL     1       4.944  11.621 -12.061  0.00  0.00    +0.000 HD
ATOM     21  H   UNL     1       3.603  10.972 -13.034  0.00  0.00    +0.000 HD
ATOM     22  H   UNL     1       4.010  12.692 -13.114  0.00  0.00    +0.000 HD
ENDBRANCH  15  19
ENDBRANCH   1  15
BRANCH   5  23
ATOM     23  C   UNL     1       4.304  16.511  -7.789  0.00  0.00    +0.000 C 
ATOM     24  H   UNL     1       4.202  17.465  -8.316  0.00  0.00    +0.000 HD
ATOM     25  H   UNL     1       5.340  16.432  -7.439  0.00  0.00    +0.000 HD
ATOM     26  H   UNL     1       3.655  16.528  -6.906  0.00  0.00    +0.000 HD
ENDBRANCH   5  23
TORSDOF 3
ENDMDL
MODEL 8
REMARK VINA RESULT:    -4.402     15.543     16.420
REMARK INTER + INTRA:          -5.071
REMARK INTER:                  -4.920
REMARK INTRA:                  -0.152
REMARK UNBOUND:                -0.155
REMARK  Name = 22311
REMARK  3 active torsions:
REMARK  status: ('A' for Active; 'I' for Inactive)
REMARK    1  A    between atoms: C_1  and  C_7
REMARK    2  A    between atoms: C_5  and  C_8
REMARK    3  A    between atoms: C_7  and  C_9
REMARK                            x       y       z     vdW  Elec       q    Type
REMARK                         _______ _______ _______ _____ _____    ______ ____
ROOT
ATOM      1  C   UNL     1       3.648  13.669 -11.462  0.00  0.00    +0.000 C 
ATOM      2  C   UNL     1       5.026  14.325 -11.528  0.00  0.00    +0.000 C 
ATOM      3  C   UNL     1       3.709  12.219 -11.954  0.00  0.00    +0.000 C 
ATOM      4  C   UNL     1       5.577  14.309 -12.956  0.00  0.00    +0.000 C 
ATOM      5  C   UNL     1       5.372  12.993 -13.666  0.00  0.00    +0.000 C 
ATOM      6  C   UNL     1       4.537  12.052 -13.194  0.00  0.00    +0.000 C 
ATOM      7  H   UNL     1       2.970  14.230 -12.119  0.00  0.00    +0.000 HD
ATOM      8  H   UNL     1       5.745  13.804 -10.880  0.00  0.00    +0.000 HD
ATOM      9  H   UNL     1       4.982  15.362 -11.173  0.00  0.00    +0.000 HD
ATOM     10  H   UNL     1       2.689  11.873 -12.164  0.00  0.00    +0.000 HD
ATOM     11  H   UNL     1       4.119  11.534 -11.202  0.00  0.00    +0.000 HD
ATOM     12  H   UNL     1       6.647  14.549 -12.917  0.00  0.00    +0.000 HD
ATOM     13  H   UNL     1       5.091  15.098 -13.542  0.00  0.00    +0.000 HD
ATOM     14  H   UNL     1       4.430  11.110 -13.725  0.00  0.00    +0.000 HD
ENDROOT
BRANCH   1  15
ATOM     15  C   UNL     1       3.139  13.713 -10.054  0.00  0.00    +0.000 C 
ATOM     16  C   UNL     1       1.879  13.377  -9.744  0.00  0.00    +0.000 C 
ATOM     17  H   UNL     1       1.527  13.416  -8.718  0.00  0.00    +0.000 HD
ATOM     18  H   UNL     1       1.162  13.052 -10.490  0.00  0.00    +0.000 HD
BRANCH  15  19
ATOM     19  C   UNL     1       4.121  14.158  -9.010  0.00  0.00    +0.000 C 
ATOM     20  H   UNL     1       4.915  13.414  -8.893  0.00  0.00    +0.000 HD
ATOM     21  H   UNL     1       4.574  15.113  -9.297  0.00  0.00    +0.000 HD
ATOM     22  H   UNL     1       3.648  14.296  -8.031  0.00  0.00    +0.000 HD
ENDBRANCH  15  19
ENDBRANCH   1  15
BRANCH   5  23
ATOM     23  C   UNL     1       6.152  12.799 -14.933  0.00  0.00    +0.000 C 
ATOM     24  H   UNL     1       6.728  11.868 -14.884  0.00  0.00    +0.000 HD
ATOM     25  H   UNL     1       6.856  13.618 -15.114  0.00  0.00    +0.000 HD
ATOM     26  H   UNL     1       5.476  12.745 -15.792  0.00  0.00    +0.000 HD
ENDBRANCH   5  23
TORSDOF 3
ENDMDL
MODEL 9
REMARK VINA RESULT:    -4.396     15.253     15.653
REMARK INTER + INTRA:          -5.065
REMARK INTER:                  -4.911
REMARK INTRA:                  -0.154
REMARK UNBOUND:                -0.155
REMARK  Name = 22311
REMARK  3 active torsions:
REMARK  status: ('A' for Active; 'I' for Inactive)
REMARK    1  A    between atoms: C_1  and  C_7
REMARK    2  A    between atoms: C_5  and  C_8
REMARK    3  A    between atoms: C_7  and  C_9
REMARK                            x       y       z     vdW  Elec       q    Type
REMARK                         _______ _______ _______ _____ _____    ______ ____
ROOT
ATOM      1  C   UNL     1       3.330  13.298  -9.654  0.00  0.00    +0.000 C 
ATOM      2  C   UNL     1       1.969  13.971  -9.822  0.00  0.00    +0.000 C 
ATOM      3  C   UNL     1       3.712  12.516 -10.914  0.00  0.00    +0.000 C 
ATOM      4  C   UNL     1       0.876  12.941 -10.117  0.00  0.00    +0.000 C 
ATOM      5  C   UNL     1       1.290  11.894 -11.122  0.00  0.00    +0.000 C 
ATOM      6  C   UNL     1       2.573  11.724 -11.485  0.00  0.00    +0.000 C 
ATOM      7  H   UNL     1       3.261  12.592  -8.816  0.00  0.00    +0.000 HD
ATOM      8  H   UNL     1       1.984  14.696 -10.648  0.00  0.00    +0.000 HD
ATOM      9  H   UNL     1       1.697  14.533  -8.919  0.00  0.00    +0.000 HD
ATOM     10  H   UNL     1       4.531  11.827 -10.669  0.00  0.00    +0.000 HD
ATOM     11  H   UNL     1       4.084  13.164 -11.717  0.00  0.00    +0.000 HD
ATOM     12  H   UNL     1      -0.013  13.472 -10.477  0.00  0.00    +0.000 HD
ATOM     13  H   UNL     1       0.594  12.434  -9.186  0.00  0.00    +0.000 HD
ATOM     14  H   UNL     1       2.829  10.972 -12.226  0.00  0.00    +0.000 HD
ENDROOT
BRANCH   1  15
ATOM     15  C   UNL     1       4.369  14.336  -9.357  0.00  0.00    +0.000 C 
ATOM     16  C   UNL     1       4.639  14.731  -8.104  0.00  0.00    +0.000 C 
ATOM     17  H   UNL     1       5.395  15.484  -7.907  0.00  0.00    +0.000 HD
ATOM     18  H   UNL     1       4.126  14.321  -7.240  0.00  0.00    +0.000 HD
BRANCH  15  19
ATOM     19  C   UNL     1       5.089  14.909 -10.541  0.00  0.00    +0.000 C 
ATOM     20  H   UNL     1       4.413  15.537 -11.131  0.00  0.00    +0.000 HD
ATOM     21  H   UNL     1       5.937  15.519 -10.212  0.00  0.00    +0.000 HD
ATOM     22  H   UNL     1       5.480  14.129 -11.204  0.00  0.00    +0.000 HD
ENDBRANCH  15  19
ENDBRANCH   1  15
BRANCH   5  23
ATOM     23  C   UNL     1       0.186  11.053 -11.691  0.00  0.00    +0.000 C 
ATOM     24  H   UNL     1       0.568  10.427 -12.505  0.00  0.00    +0.000 HD
ATOM     25  H   UNL     1      -0.631  11.661 -12.092  0.00  0.00    +0.000 HD
ATOM     26  H   UNL     1      -0.232  10.400 -10.917  0.00  0.00    +0.000 HD
ENDBRANCH   5  23
TORSDOF 3
ENDMDL
MODEL 10
REMARK VINA RESULT:    -4.313     15.429     16.585
REMARK INTER + INTRA:          -4.972
REMARK INTER:                  -4.817
REMARK INTRA:                  -0.155
REMARK UNBOUND:                -0.155
REMARK  Name = 22311
REMARK  3 active torsions:
REMARK  status: ('A' for Active; 'I' for Inactive)
REMARK    1  A    between atoms: C_1  and  C_7
REMARK    2  A    between atoms: C_5  and  C_8
REMARK    3  A    between atoms: C_7  and  C_9
REMARK                            x       y       z     vdW  Elec       q    Type
REMARK                         _______ _______ _______ _____ _____    ______ ____
ROOT
ATOM      1  C   UNL     1       4.116  13.584 -12.019  0.00  0.00    +0.000 C 
ATOM      2  C   UNL     1       3.655  12.645 -10.906  0.00  0.00    +0.000 C 
ATOM      3  C   UNL     1       5.329  14.406 -11.572  0.00  0.00    +0.000 C 
ATOM      4  C   UNL     1       3.288  13.424  -9.641  0.00  0.00    +0.000 C 
ATOM      5  C   UNL     1       4.272  14.516  -9.299  0.00  0.00    +0.000 C 
ATOM      6  C   UNL     1       5.199  14.939 -10.176  0.00  0.00    +0.000 C 
ATOM      7  H   UNL     1       3.293  14.276 -12.244  0.00  0.00    +0.000 HD
ATOM      8  H   UNL     1       4.443  11.924 -10.644  0.00  0.00    +0.000 HD
ATOM      9  H   UNL     1       2.788  12.054 -11.228  0.00  0.00    +0.000 HD
ATOM     10  H   UNL     1       5.457  15.252 -12.260  0.00  0.00    +0.000 HD
ATOM     11  H   UNL     1       6.264  13.834 -11.610  0.00  0.00    +0.000 HD
ATOM     12  H   UNL     1       3.212  12.716  -8.807  0.00  0.00    +0.000 HD
ATOM     13  H   UNL     1       2.298  13.878  -9.769  0.00  0.00    +0.000 HD
ATOM     14  H   UNL     1       5.902  15.715  -9.886  0.00  0.00    +0.000 HD
ENDROOT
BRANCH   1  15
ATOM     15  C   UNL     1       4.456  12.786 -13.240  0.00  0.00    +0.000 C 
ATOM     16  C   UNL     1       3.582  11.935 -13.797  0.00  0.00    +0.000 C 
ATOM     17  H   UNL     1       3.846  11.365 -14.682  0.00  0.00    +0.000 HD
ATOM     18  H   UNL     1       2.585  11.779 -13.398  0.00  0.00    +0.000 HD
BRANCH  15  19
ATOM     19  C   UNL     1       5.830  12.994 -13.804  0.00  0.00    +0.000 C 
ATOM     20  H   UNL     1       5.927  12.485 -14.769  0.00  0.00    +0.000 HD
ATOM     21  H   UNL     1       6.024  14.062 -13.951  0.00  0.00    +0.000 HD
ATOM     22  H   UNL     1       6.611  12.603 -13.142  0.00  0.00    +0.000 HD
ENDBRANCH  15  19
ENDBRANCH   1  15
BRANCH   5  23
ATOM     23  C   UNL     1       4.153  15.105  -7.924  0.00  0.00    +0.000 C 
ATOM     24  H   UNL     1       3.271  14.702  -7.415  0.00  0.00    +0.000 HD
ATOM     25  H   UNL     1       4.055  16.195  -7.949  0.00  0.00    +0.000 HD
ATOM     26  H   UNL     1       5.040  14.863  -7.329  0.00  0.00    +0.000 HD
ENDBRANCH   5  23
TORSDOF 3
ENDMDL
