MODEL 1
REMARK VINA RESULT:    -4.963      0.000      0.000
REMARK INTER + INTRA:          -7.519
REMARK INTER:                  -7.203
REMARK INTRA:                  -0.316
REMARK UNBOUND:                -0.816
REMARK  Name = 6549
REMARK  8 active torsions:
REMARK  status: ('A' for Active; 'I' for Inactive)
REMARK    1  A    between atoms: O_1  and  C_2
REMARK    2  A    between atoms: C_2  and  C_3
REMARK    3  A    between atoms: C_2  and  C_5
REMARK    4  A    between atoms: C_2  and  C_6
REMARK    5  A    between atoms: C_3  and  C_4
REMARK    6  A    between atoms: C_4  and  C_7
REMARK    7  A    between atoms: C_8  and  C_9
REMARK    8  A    between atoms: C_8  and  C_10
REMARK                            x       y       z     vdW  Elec       q    Type
REMARK                         _______ _______ _______ _____ _____    ______ ____
ROOT
ATOM      1  C   UNL     1       6.903   0.877  -2.698  0.00  0.00    +0.000 C 
ATOM      2  H   UNL     1       7.982   0.700  -2.818  0.00  0.00    +0.000 HD
ATOM      3  H   UNL     1       6.737   1.872  -3.137  0.00  0.00    +0.000 HD
ENDROOT
BRANCH   1   4
ATOM      4  C   UNL     1       6.555   0.910  -1.206  0.00  0.00    +0.000 C 
ATOM      5  H   UNL     1       7.119   0.157  -0.647  0.00  0.00    +0.000 HD
ATOM      6  H   UNL     1       5.499   0.652  -1.059  0.00  0.00    +0.000 HD
BRANCH   4   7
ATOM      7  C   UNL     1       6.764   2.284  -0.634  0.00  0.00    +0.000 C 
ATOM      8  C   UNL     1       7.815   2.723   0.084  0.00  0.00    +0.000 C 
ATOM      9  H   UNL     1       5.964   2.993  -0.842  0.00  0.00    +0.000 HD
BRANCH   8  10
ATOM     10  C   UNL     1       7.966   4.115   0.630  0.00  0.00    +0.000 C 
ATOM     11  H   UNL     1       7.070   4.407   1.185  0.00  0.00    +0.000 HD
ATOM     12  H   UNL     1       8.123   4.827  -0.186  0.00  0.00    +0.000 HD
ATOM     13  H   UNL     1       8.821   4.190   1.309  0.00  0.00    +0.000 HD
ENDBRANCH   8  10
BRANCH   8  14
ATOM     14  C   UNL     1       8.970   1.805   0.386  0.00  0.00    +0.000 C 
ATOM     15  H   UNL     1       9.915   2.309   0.156  0.00  0.00    +0.000 HD
ATOM     16  H   UNL     1       9.018   1.458   1.421  0.00  0.00    +0.000 HD
ATOM     17  H   UNL     1       8.904   0.907  -0.239  0.00  0.00    +0.000 HD
ENDBRANCH   8  14
ENDBRANCH   4   7
ENDBRANCH   1   4
BRANCH   1  18
ATOM     18  C   UNL     1       6.124  -0.168  -3.532  0.00  0.00    +0.000 C 
BRANCH  18  19
ATOM     19  C   UNL     1       5.653  -1.314  -2.661  0.00  0.00    +0.000 C 
ATOM     20  C   UNL     1       6.157  -2.553  -2.601  0.00  0.00    +0.000 C 
ATOM     21  H   UNL     1       4.815  -1.094  -2.002  0.00  0.00    +0.000 HD
ATOM     22  H   UNL     1       5.726  -3.283  -1.924  0.00  0.00    +0.000 HD
ATOM     23  H   UNL     1       6.994  -2.872  -3.211  0.00  0.00    +0.000 HD
ENDBRANCH  18  19
BRANCH  18  24
ATOM     24  C   UNL     1       5.027   0.500  -4.370  0.00  0.00    +0.000 C 
ATOM     25  H   UNL     1       4.043   0.344  -3.914  0.00  0.00    +0.000 HD
ATOM     26  H   UNL     1       5.170   1.587  -4.409  0.00  0.00    +0.000 HD
ATOM     27  H   UNL     1       4.991   0.121  -5.396  0.00  0.00    +0.000 HD
ENDBRANCH  18  24
BRANCH  18  28
ATOM     28  O   UNL     1       7.052  -0.721  -4.483  0.00  0.00    +0.000 OA
ATOM     29  H   UNL     1       6.984  -1.690  -4.448  0.00  0.00    +0.000 HD
ENDBRANCH  18  28
ENDBRANCH   1  18
TORSDOF 8
ENDMDL
MODEL 2
REMARK VINA RESULT:    -4.860      2.351      4.880
REMARK INTER + INTRA:          -7.381
REMARK INTER:                  -6.776
REMARK INTRA:                  -0.604
REMARK UNBOUND:                -0.816
REMARK  Name = 6549
REMARK  8 active torsions:
REMARK  status: ('A' for Active; 'I' for Inactive)
REMARK    1  A    between atoms: O_1  and  C_2
REMARK    2  A    between atoms: C_2  and  C_3
REMARK    3  A    between atoms: C_2  and  C_5
REMARK    4  A    between atoms: C_2  and  C_6
REMARK    5  A    between atoms: C_3  and  C_4
REMARK    6  A    between atoms: C_4  and  C_7
REMARK    7  A    between atoms: C_8  and  C_9
REMARK    8  A    between atoms: C_8  and  C_10
REMARK                            x       y       z     vdW  Elec       q    Type
REMARK                         _______ _______ _______ _____ _____    ______ ____
ROOT
ATOM      1  C   UNL     1       7.800  -1.803  -1.873  0.00  0.00    +0.000 C 
ATOM      2  H   UNL     1       8.373  -1.543  -2.774  0.00  0.00    +0.000 HD
ATOM      3  H   UNL     1       8.081  -2.845  -1.659  0.00  0.00    +0.000 HD
ENDROOT
BRANCH   1   4
ATOM      4  C   UNL     1       6.301  -1.730  -2.183  0.00  0.00    +0.000 C 
ATOM      5  H   UNL     1       5.783  -1.052  -1.498  0.00  0.00    +0.000 HD
ATOM      6  H   UNL     1       5.835  -2.711  -2.031  0.00  0.00    +0.000 HD
BRANCH   4   7
ATOM      7  C   UNL     1       6.066  -1.342  -3.616  0.00  0.00    +0.000 C 
ATOM      8  C   UNL     1       5.811  -0.111  -4.102  0.00  0.00    +0.000 C 
ATOM      9  H   UNL     1       6.120  -2.164  -4.328  0.00  0.00    +0.000 HD
BRANCH   8  10
ATOM     10  C   UNL     1       5.585   0.214  -5.551  0.00  0.00    +0.000 C 
ATOM     11  H   UNL     1       5.684  -0.686  -6.165  0.00  0.00    +0.000 HD
ATOM     12  H   UNL     1       6.315   0.954  -5.893  0.00  0.00    +0.000 HD
ATOM     13  H   UNL     1       4.585   0.627  -5.720  0.00  0.00    +0.000 HD
ENDBRANCH   8  10
BRANCH   8  14
ATOM     14  C   UNL     1       5.750   1.076  -3.179  0.00  0.00    +0.000 C 
ATOM     15  H   UNL     1       6.726   1.231  -2.706  0.00  0.00    +0.000 HD
ATOM     16  H   UNL     1       5.459   2.013  -3.659  0.00  0.00    +0.000 HD
ATOM     17  H   UNL     1       5.015   0.894  -2.387  0.00  0.00    +0.000 HD
ENDBRANCH   8  14
ENDBRANCH   4   7
ENDBRANCH   1   4
BRANCH   1  18
ATOM     18  C   UNL     1       8.272  -0.912  -0.698  0.00  0.00    +0.000 C 
BRANCH  18  19
ATOM     19  C   UNL     1       9.294   0.103  -1.166  0.00  0.00    +0.000 C 
ATOM     20  C   UNL     1       9.279   1.427  -0.966  0.00  0.00    +0.000 C 
ATOM     21  H   UNL     1      10.142  -0.299  -1.718  0.00  0.00    +0.000 HD
ATOM     22  H   UNL     1      10.083   2.044  -1.352  0.00  0.00    +0.000 HD
ATOM     23  H   UNL     1       8.484   1.925  -0.424  0.00  0.00    +0.000 HD
ENDBRANCH  18  19
BRANCH  18  24
ATOM     24  C   UNL     1       7.078  -0.323   0.063  0.00  0.00    +0.000 C 
ATOM     25  H   UNL     1       6.140  -0.776  -0.280  0.00  0.00    +0.000 HD
ATOM     26  H   UNL     1       7.144  -0.549   1.134  0.00  0.00    +0.000 HD
ATOM     27  H   UNL     1       6.997   0.762  -0.055  0.00  0.00    +0.000 HD
ENDBRANCH  18  24
BRANCH  18  28
ATOM     28  O   UNL     1       8.939  -1.775   0.240  0.00  0.00    +0.000 OA
ATOM     29  H   UNL     1       8.266  -2.311   0.693  0.00  0.00    +0.000 HD
ENDBRANCH  18  28
ENDBRANCH   1  18
TORSDOF 8
ENDMDL
MODEL 3
REMARK VINA RESULT:    -3.870     28.443     30.038
REMARK INTER + INTRA:          -6.043
REMARK INTER:                  -5.843
REMARK INTRA:                  -0.200
REMARK UNBOUND:                -0.816
REMARK  Name = 6549
REMARK  8 active torsions:
REMARK  status: ('A' for Active; 'I' for Inactive)
REMARK    1  A    between atoms: O_1  and  C_2
REMARK    2  A    between atoms: C_2  and  C_3
REMARK    3  A    between atoms: C_2  and  C_5
REMARK    4  A    between atoms: C_2  and  C_6
REMARK    5  A    between atoms: C_3  and  C_4
REMARK    6  A    between atoms: C_4  and  C_7
REMARK    7  A    between atoms: C_8  and  C_9
REMARK    8  A    between atoms: C_8  and  C_10
REMARK                            x       y       z     vdW  Elec       q    Type
REMARK                         _______ _______ _______ _____ _____    ______ ____
ROOT
ATOM      1  C   UNL     1     -19.240 -12.768   5.658  0.00  0.00    +0.000 C 
ATOM      2  H   UNL     1     -18.363 -13.411   5.820  0.00  0.00    +0.000 HD
ATOM      3  H   UNL     1     -19.807 -13.270   4.860  0.00  0.00    +0.000 HD
ENDROOT
BRANCH   1   4
ATOM      4  C   UNL     1     -18.779 -11.391   5.170  0.00  0.00    +0.000 C 
ATOM      5  H   UNL     1     -18.538 -10.729   6.008  0.00  0.00    +0.000 HD
ATOM      6  H   UNL     1     -19.590 -10.890   4.627  0.00  0.00    +0.000 HD
BRANCH   4   7
ATOM      7  C   UNL     1     -17.618 -11.515   4.223  0.00  0.00    +0.000 C 
ATOM      8  C   UNL     1     -17.118 -10.565   3.408  0.00  0.00    +0.000 C 
ATOM      9  H   UNL     1     -17.136 -12.491   4.216  0.00  0.00    +0.000 HD
BRANCH   8  10
ATOM     10  C   UNL     1     -15.950 -10.752   2.482  0.00  0.00    +0.000 C 
ATOM     11  H   UNL     1     -16.283 -11.161   1.524  0.00  0.00    +0.000 HD
ATOM     12  H   UNL     1     -15.221 -11.439   2.923  0.00  0.00    +0.000 HD
ATOM     13  H   UNL     1     -15.439  -9.805   2.282  0.00  0.00    +0.000 HD
ENDBRANCH   8  10
BRANCH   8  14
ATOM     14  C   UNL     1     -17.718  -9.185   3.386  0.00  0.00    +0.000 C 
ATOM     15  H   UNL     1     -18.109  -8.965   2.387  0.00  0.00    +0.000 HD
ATOM     16  H   UNL     1     -18.526  -9.027   4.105  0.00  0.00    +0.000 HD
ATOM     17  H   UNL     1     -16.948  -8.441   3.620  0.00  0.00    +0.000 HD
ENDBRANCH   8  14
ENDBRANCH   4   7
ENDBRANCH   1   4
BRANCH   1  18
ATOM     18  C   UNL     1     -20.102 -12.755   6.944  0.00  0.00    +0.000 C 
BRANCH  18  19
ATOM     19  C   UNL     1     -21.510 -13.234   6.657  0.00  0.00    +0.000 C 
ATOM     20  C   UNL     1     -22.654 -12.749   7.156  0.00  0.00    +0.000 C 
ATOM     21  H   UNL     1     -21.593 -14.063   5.956  0.00  0.00    +0.000 HD
ATOM     22  H   UNL     1     -23.603 -13.184   6.862  0.00  0.00    +0.000 HD
ATOM     23  H   UNL     1     -22.679 -11.923   7.857  0.00  0.00    +0.000 HD
ENDBRANCH  18  19
BRANCH  18  24
ATOM     24  C   UNL     1     -19.392 -13.482   8.092  0.00  0.00    +0.000 C 
ATOM     25  H   UNL     1     -20.119 -13.978   8.744  0.00  0.00    +0.000 HD
ATOM     26  H   UNL     1     -18.741 -14.279   7.710  0.00  0.00    +0.000 HD
ATOM     27  H   UNL     1     -18.785 -12.809   8.706  0.00  0.00    +0.000 HD
ENDBRANCH  18  24
BRANCH  18  28
ATOM     28  O   UNL     1     -20.205 -11.383   7.363  0.00  0.00    +0.000 OA
ATOM     29  H   UNL     1     -20.237 -10.822   6.569  0.00  0.00    +0.000 HD
ENDBRANCH  18  28
ENDBRANCH   1  18
TORSDOF 8
ENDMDL
MODEL 4
REMARK VINA RESULT:    -3.849     25.533     27.423
REMARK INTER + INTRA:          -6.015
REMARK INTER:                  -5.492
REMARK INTRA:                  -0.523
REMARK UNBOUND:                -0.816
REMARK  Name = 6549
REMARK  8 active torsions:
REMARK  status: ('A' for Active; 'I' for Inactive)
REMARK    1  A    between atoms: O_1  and  C_2
REMARK    2  A    between atoms: C_2  and  C_3
REMARK    3  A    between atoms: C_2  and  C_5
REMARK    4  A    between atoms: C_2  and  C_6
REMARK    5  A    between atoms: C_3  and  C_4
REMARK    6  A    between atoms: C_4  and  C_7
REMARK    7  A    between atoms: C_8  and  C_9
REMARK    8  A    between atoms: C_8  and  C_10
REMARK                            x       y       z     vdW  Elec       q    Type
REMARK                         _______ _______ _______ _____ _____    ______ ____
ROOT
ATOM      1  C   UNL     1     -17.931 -11.147   1.903  0.00  0.00    +0.000 C 
ATOM      2  H   UNL     1     -17.791 -12.121   2.395  0.00  0.00    +0.000 HD
ATOM      3  H   UNL     1     -18.982 -10.889   2.096  0.00  0.00    +0.000 HD
ENDROOT
BRANCH   1   4
ATOM      4  C   UNL     1     -17.710 -11.302   0.395  0.00  0.00    +0.000 C 
ATOM      5  H   UNL     1     -17.336 -12.301   0.146  0.00  0.00    +0.000 HD
ATOM      6  H   UNL     1     -16.933 -10.607   0.053  0.00  0.00    +0.000 HD
BRANCH   4   7
ATOM      7  C   UNL     1     -18.963 -10.983  -0.370  0.00  0.00    +0.000 C 
ATOM      8  C   UNL     1     -19.103 -10.119  -1.394  0.00  0.00    +0.000 C 
ATOM      9  H   UNL     1     -19.848 -11.530  -0.048  0.00  0.00    +0.000 HD
BRANCH   8  10
ATOM     10  C   UNL     1     -20.389  -9.844  -2.121  0.00  0.00    +0.000 C 
ATOM     11  H   UNL     1     -20.349  -8.867  -2.613  0.00  0.00    +0.000 HD
ATOM     12  H   UNL     1     -21.230  -9.851  -1.421  0.00  0.00    +0.000 HD
ATOM     13  H   UNL     1     -20.586 -10.598  -2.890  0.00  0.00    +0.000 HD
ENDBRANCH   8  10
BRANCH   8  14
ATOM     14  C   UNL     1     -17.916  -9.349  -1.911  0.00  0.00    +0.000 C 
ATOM     15  H   UNL     1     -17.080 -10.033  -2.093  0.00  0.00    +0.000 HD
ATOM     16  H   UNL     1     -18.100  -8.792  -2.832  0.00  0.00    +0.000 HD
ATOM     17  H   UNL     1     -17.597  -8.614  -1.164  0.00  0.00    +0.000 HD
ENDBRANCH   8  14
ENDBRANCH   4   7
ENDBRANCH   1   4
BRANCH   1  18
ATOM     18  C   UNL     1     -17.028 -10.097   2.595  0.00  0.00    +0.000 C 
BRANCH  18  19
ATOM     19  C   UNL     1     -16.133  -9.405   1.588  0.00  0.00    +0.000 C 
ATOM     20  C   UNL     1     -16.246  -8.154   1.123  0.00  0.00    +0.000 C 
ATOM     21  H   UNL     1     -15.299  -9.995   1.212  0.00  0.00    +0.000 HD
ATOM     22  H   UNL     1     -15.528  -7.776   0.402  0.00  0.00    +0.000 HD
ATOM     23  H   UNL     1     -17.036  -7.484   1.438  0.00  0.00    +0.000 HD
ENDBRANCH  18  19
BRANCH  18  24
ATOM     24  C   UNL     1     -17.854  -9.157   3.481  0.00  0.00    +0.000 C 
ATOM     25  H   UNL     1     -17.689  -9.380   4.542  0.00  0.00    +0.000 HD
ATOM     26  H   UNL     1     -17.544  -8.113   3.343  0.00  0.00    +0.000 HD
ATOM     27  H   UNL     1     -18.928  -9.225   3.281  0.00  0.00    +0.000 HD
ENDBRANCH  18  24
BRANCH  18  28
ATOM     28  O   UNL     1     -16.166 -10.816   3.495  0.00  0.00    +0.000 OA
ATOM     29  H   UNL     1     -15.790 -10.182   4.130  0.00  0.00    +0.000 HD
ENDBRANCH  18  28
ENDBRANCH   1  18
TORSDOF 8
ENDMDL
MODEL 5
REMARK VINA RESULT:    -3.821     25.755     27.238
REMARK INTER + INTRA:          -5.978
REMARK INTER:                  -5.485
REMARK INTRA:                  -0.493
REMARK UNBOUND:                -0.816
REMARK  Name = 6549
REMARK  8 active torsions:
REMARK  status: ('A' for Active; 'I' for Inactive)
REMARK    1  A    between atoms: O_1  and  C_2
REMARK    2  A    between atoms: C_2  and  C_3
REMARK    3  A    between atoms: C_2  and  C_5
REMARK    4  A    between atoms: C_2  and  C_6
REMARK    5  A    between atoms: C_3  and  C_4
REMARK    6  A    between atoms: C_4  and  C_7
REMARK    7  A    between atoms: C_8  and  C_9
REMARK    8  A    between atoms: C_8  and  C_10
REMARK                            x       y       z     vdW  Elec       q    Type
REMARK                         _______ _______ _______ _____ _____    ______ ____
ROOT
ATOM      1  C   UNL     1     -16.707  -9.238   0.287  0.00  0.00    +0.000 C 
ATOM      2  H   UNL     1     -17.608  -8.621   0.420  0.00  0.00    +0.000 HD
ATOM      3  H   UNL     1     -15.876  -8.518   0.300  0.00  0.00    +0.000 HD
ENDROOT
BRANCH   1   4
ATOM      4  C   UNL     1     -16.762  -9.932  -1.078  0.00  0.00    +0.000 C 
ATOM      5  H   UNL     1     -16.738 -11.021  -0.975  0.00  0.00    +0.000 HD
ATOM      6  H   UNL     1     -15.874  -9.675  -1.669  0.00  0.00    +0.000 HD
BRANCH   4   7
ATOM      7  C   UNL     1     -17.964  -9.486  -1.862  0.00  0.00    +0.000 C 
ATOM      8  C   UNL     1     -19.222  -9.962  -1.779  0.00  0.00    +0.000 C 
ATOM      9  H   UNL     1     -17.776  -8.677  -2.568  0.00  0.00    +0.000 HD
BRANCH   8  10
ATOM     10  C   UNL     1     -20.385  -9.470  -2.593  0.00  0.00    +0.000 C 
ATOM     11  H   UNL     1     -20.685 -10.225  -3.326  0.00  0.00    +0.000 HD
ATOM     12  H   UNL     1     -20.117  -8.552  -3.124  0.00  0.00    +0.000 HD
ATOM     13  H   UNL     1     -21.253  -9.252  -1.963  0.00  0.00    +0.000 HD
ENDBRANCH   8  10
BRANCH   8  14
ATOM     14  C   UNL     1     -19.559 -11.059  -0.806  0.00  0.00    +0.000 C 
ATOM     15  H   UNL     1     -18.700 -11.728  -0.686  0.00  0.00    +0.000 HD
ATOM     16  H   UNL     1     -19.856 -10.713   0.187  0.00  0.00    +0.000 HD
ATOM     17  H   UNL     1     -20.399 -11.651  -1.189  0.00  0.00    +0.000 HD
ENDBRANCH   8  14
ENDBRANCH   4   7
ENDBRANCH   1   4
BRANCH   1  18
ATOM     18  C   UNL     1     -16.560 -10.187   1.501  0.00  0.00    +0.000 C 
BRANCH  18  19
ATOM     19  C   UNL     1     -17.719 -10.019   2.462  0.00  0.00    +0.000 C 
ATOM     20  C   UNL     1     -17.816  -9.151   3.477  0.00  0.00    +0.000 C 
ATOM     21  H   UNL     1     -18.571 -10.676   2.295  0.00  0.00    +0.000 HD
ATOM     22  H   UNL     1     -18.711  -9.131   4.091  0.00  0.00    +0.000 HD
ATOM     23  H   UNL     1     -17.027  -8.452   3.723  0.00  0.00    +0.000 HD
ENDBRANCH  18  19
BRANCH  18  24
ATOM     24  C   UNL     1     -16.301 -11.628   1.047  0.00  0.00    +0.000 C 
ATOM     25  H   UNL     1     -16.645 -12.341   1.805  0.00  0.00    +0.000 HD
ATOM     26  H   UNL     1     -16.868 -11.862   0.137  0.00  0.00    +0.000 HD
ATOM     27  H   UNL     1     -15.242 -11.824   0.850  0.00  0.00    +0.000 HD
ENDBRANCH  18  24
BRANCH  18  28
ATOM     28  O   UNL     1     -15.372  -9.785   2.204  0.00  0.00    +0.000 OA
ATOM     29  H   UNL     1     -15.538  -9.872   3.159  0.00  0.00    +0.000 HD
ENDBRANCH  18  28
ENDBRANCH   1  18
TORSDOF 8
ENDMDL
MODEL 6
REMARK VINA RESULT:    -3.804     17.028     18.339
REMARK INTER + INTRA:          -5.954
REMARK INTER:                  -5.491
REMARK INTRA:                  -0.463
REMARK UNBOUND:                -0.816
REMARK  Name = 6549
REMARK  8 active torsions:
REMARK  status: ('A' for Active; 'I' for Inactive)
REMARK    1  A    between atoms: O_1  and  C_2
REMARK    2  A    between atoms: C_2  and  C_3
REMARK    3  A    between atoms: C_2  and  C_5
REMARK    4  A    between atoms: C_2  and  C_6
REMARK    5  A    between atoms: C_3  and  C_4
REMARK    6  A    between atoms: C_4  and  C_7
REMARK    7  A    between atoms: C_8  and  C_9
REMARK    8  A    between atoms: C_8  and  C_10
REMARK                            x       y       z     vdW  Elec       q    Type
REMARK                         _______ _______ _______ _____ _____    ______ ____
ROOT
ATOM      1  C   UNL     1      -0.905 -13.185  -6.990  0.00  0.00    +0.000 C 
ATOM      2  H   UNL     1      -0.882 -12.451  -6.171  0.00  0.00    +0.000 HD
ATOM      3  H   UNL     1       0.153 -13.393  -7.203  0.00  0.00    +0.000 HD
ENDROOT
BRANCH   1   4
ATOM      4  C   UNL     1      -1.561 -12.553  -8.222  0.00  0.00    +0.000 C 
ATOM      5  H   UNL     1      -2.062 -11.612  -7.971  0.00  0.00    +0.000 HD
ATOM      6  H   UNL     1      -2.350 -13.209  -8.609  0.00  0.00    +0.000 HD
BRANCH   4   7
ATOM      7  C   UNL     1      -0.560 -12.359  -9.326  0.00  0.00    +0.000 C 
ATOM      8  C   UNL     1      -0.495 -13.016 -10.500  0.00  0.00    +0.000 C 
ATOM      9  H   UNL     1       0.185 -11.587  -9.138  0.00  0.00    +0.000 HD
BRANCH   8  10
ATOM     10  C   UNL     1       0.534 -12.774 -11.568  0.00  0.00    +0.000 C 
ATOM     11  H   UNL     1       0.150 -13.079 -12.546  0.00  0.00    +0.000 HD
ATOM     12  H   UNL     1       1.444 -13.343 -11.355  0.00  0.00    +0.000 HD
ATOM     13  H   UNL     1       0.808 -11.716 -11.631  0.00  0.00    +0.000 HD
ENDBRANCH   8  10
BRANCH   8  14
ATOM     14  C   UNL     1      -1.509 -14.076 -10.840  0.00  0.00    +0.000 C 
ATOM     15  H   UNL     1      -2.134 -13.739 -11.674  0.00  0.00    +0.000 HD
ATOM     16  H   UNL     1      -1.084 -15.045 -11.109  0.00  0.00    +0.000 HD
ATOM     17  H   UNL     1      -2.162 -14.254  -9.978  0.00  0.00    +0.000 HD
ENDBRANCH   8  14
ENDBRANCH   4   7
ENDBRANCH   1   4
BRANCH   1  18
ATOM     18  C   UNL     1      -1.575 -14.485  -6.484  0.00  0.00    +0.000 C 
BRANCH  18  19
ATOM     19  C   UNL     1      -3.023 -14.240  -6.113  0.00  0.00    +0.000 C 
ATOM     20  C   UNL     1      -4.046 -15.099  -6.210  0.00  0.00    +0.000 C 
ATOM     21  H   UNL     1      -3.247 -13.253  -5.711  0.00  0.00    +0.000 HD
ATOM     22  H   UNL     1      -5.040 -14.796  -5.901  0.00  0.00    +0.000 HD
ATOM     23  H   UNL     1      -3.927 -16.106  -6.591  0.00  0.00    +0.000 HD
ENDBRANCH  18  19
BRANCH  18  24
ATOM     24  C   UNL     1      -1.345 -15.642  -7.464  0.00  0.00    +0.000 C 
ATOM     25  H   UNL     1      -0.391 -15.520  -7.990  0.00  0.00    +0.000 HD
ATOM     26  H   UNL     1      -1.274 -16.599  -6.933  0.00  0.00    +0.000 HD
ATOM     27  H   UNL     1      -2.139 -15.723  -8.213  0.00  0.00    +0.000 HD
ENDBRANCH  18  24
BRANCH  18  28
ATOM     28  O   UNL     1      -0.892 -14.864  -5.275  0.00  0.00    +0.000 OA
ATOM     29  H   UNL     1      -0.297 -15.605  -5.480  0.00  0.00    +0.000 HD
ENDBRANCH  18  28
ENDBRANCH   1  18
TORSDOF 8
ENDMDL
MODEL 7
REMARK VINA RESULT:    -3.745      4.903      6.826
REMARK INTER + INTRA:          -5.875
REMARK INTER:                  -5.460
REMARK INTRA:                  -0.414
REMARK UNBOUND:                -0.816
REMARK  Name = 6549
REMARK  8 active torsions:
REMARK  status: ('A' for Active; 'I' for Inactive)
REMARK    1  A    between atoms: O_1  and  C_2
REMARK    2  A    between atoms: C_2  and  C_3
REMARK    3  A    between atoms: C_2  and  C_5
REMARK    4  A    between atoms: C_2  and  C_6
REMARK    5  A    between atoms: C_3  and  C_4
REMARK    6  A    between atoms: C_4  and  C_7
REMARK    7  A    between atoms: C_8  and  C_9
REMARK    8  A    between atoms: C_8  and  C_10
REMARK                            x       y       z     vdW  Elec       q    Type
REMARK                         _______ _______ _______ _____ _____    ______ ____
ROOT
ATOM      1  C   UNL     1       9.486  -2.464   2.358  0.00  0.00    +0.000 C 
ATOM      2  H   UNL     1      10.546  -2.719   2.503  0.00  0.00    +0.000 HD
ATOM      3  H   UNL     1       9.095  -3.267   1.715  0.00  0.00    +0.000 HD
ENDROOT
BRANCH   1   4
ATOM      4  C   UNL     1       9.381  -1.123   1.624  0.00  0.00    +0.000 C 
ATOM      5  H   UNL     1      10.348  -0.609   1.589  0.00  0.00    +0.000 HD
ATOM      6  H   UNL     1       8.711  -0.446   2.167  0.00  0.00    +0.000 HD
BRANCH   4   7
ATOM      7  C   UNL     1       8.811  -1.305   0.245  0.00  0.00    +0.000 C 
ATOM      8  C   UNL     1       7.681  -0.767  -0.254  0.00  0.00    +0.000 C 
ATOM      9  H   UNL     1       9.400  -1.943  -0.413  0.00  0.00    +0.000 HD
BRANCH   8  10
ATOM     10  C   UNL     1       7.164  -0.988  -1.647  0.00  0.00    +0.000 C 
ATOM     11  H   UNL     1       6.078  -0.855  -1.678  0.00  0.00    +0.000 HD
ATOM     12  H   UNL     1       7.403  -2.001  -1.985  0.00  0.00    +0.000 HD
ATOM     13  H   UNL     1       7.608  -0.284  -2.358  0.00  0.00    +0.000 HD
ENDBRANCH   8  10
BRANCH   8  14
ATOM     14  C   UNL     1       6.833   0.146   0.590  0.00  0.00    +0.000 C 
ATOM     15  H   UNL     1       7.437   0.987   0.950  0.00  0.00    +0.000 HD
ATOM     16  H   UNL     1       5.958   0.556   0.080  0.00  0.00    +0.000 HD
ATOM     17  H   UNL     1       6.455  -0.398   1.463  0.00  0.00    +0.000 HD
ENDBRANCH   8  14
ENDBRANCH   4   7
ENDBRANCH   1   4
BRANCH   1  18
ATOM     18  C   UNL     1       8.759  -2.525   3.723  0.00  0.00    +0.000 C 
BRANCH  18  19
ATOM     19  C   UNL     1       9.748  -2.447   4.867  0.00  0.00    +0.000 C 
ATOM     20  C   UNL     1      10.206  -1.345   5.475  0.00  0.00    +0.000 C 
ATOM     21  H   UNL     1      10.117  -3.401   5.239  0.00  0.00    +0.000 HD
ATOM     22  H   UNL     1      10.914  -1.430   6.293  0.00  0.00    +0.000 HD
ATOM     23  H   UNL     1       9.897  -0.348   5.184  0.00  0.00    +0.000 HD
ENDBRANCH  18  19
BRANCH  18  24
ATOM     24  C   UNL     1       7.616  -1.504   3.785  0.00  0.00    +0.000 C 
ATOM     25  H   UNL     1       7.096  -1.565   4.748  0.00  0.00    +0.000 HD
ATOM     26  H   UNL     1       8.000  -0.479   3.717  0.00  0.00    +0.000 HD
ATOM     27  H   UNL     1       6.879  -1.648   2.989  0.00  0.00    +0.000 HD
ENDBRANCH  18  24
BRANCH  18  28
ATOM     28  O   UNL     1       8.128  -3.815   3.803  0.00  0.00    +0.000 OA
ATOM     29  H   UNL     1       7.929  -4.000   4.737  0.00  0.00    +0.000 HD
ENDBRANCH  18  28
ENDBRANCH   1  18
TORSDOF 8
ENDMDL
MODEL 8
REMARK VINA RESULT:    -3.738     26.750     28.416
REMARK INTER + INTRA:          -5.865
REMARK INTER:                  -5.658
REMARK INTRA:                  -0.207
REMARK UNBOUND:                -0.816
REMARK  Name = 6549
REMARK  8 active torsions:
REMARK  status: ('A' for Active; 'I' for Inactive)
REMARK    1  A    between atoms: O_1  and  C_2
REMARK    2  A    between atoms: C_2  and  C_3
REMARK    3  A    between atoms: C_2  and  C_5
REMARK    4  A    between atoms: C_2  and  C_6
REMARK    5  A    between atoms: C_3  and  C_4
REMARK    6  A    between atoms: C_4  and  C_7
REMARK    7  A    between atoms: C_8  and  C_9
REMARK    8  A    between atoms: C_8  and  C_10
REMARK                            x       y       z     vdW  Elec       q    Type
REMARK                         _______ _______ _______ _____ _____    ______ ____
ROOT
ATOM      1  C   UNL     1     -16.844 -10.905   3.907  0.00  0.00    +0.000 C 
ATOM      2  H   UNL     1     -15.850 -11.301   3.653  0.00  0.00    +0.000 HD
ATOM      3  H   UNL     1     -16.676 -10.294   4.806  0.00  0.00    +0.000 HD
ENDROOT
BRANCH   1   4
ATOM      4  C   UNL     1     -17.784 -12.067   4.245  0.00  0.00    +0.000 C 
ATOM      5  H   UNL     1     -17.224 -12.967   4.520  0.00  0.00    +0.000 HD
ATOM      6  H   UNL     1     -18.372 -12.347   3.363  0.00  0.00    +0.000 HD
BRANCH   4   7
ATOM      7  C   UNL     1     -18.754 -11.679   5.325  0.00  0.00    +0.000 C 
ATOM      8  C   UNL     1     -19.443 -12.498   6.143  0.00  0.00    +0.000 C 
ATOM      9  H   UNL     1     -18.896 -10.606   5.449  0.00  0.00    +0.000 HD
BRANCH   8  10
ATOM     10  C   UNL     1     -20.402 -12.046   7.209  0.00  0.00    +0.000 C 
ATOM     11  H   UNL     1     -19.921 -12.069   8.191  0.00  0.00    +0.000 HD
ATOM     12  H   UNL     1     -21.279 -12.699   7.232  0.00  0.00    +0.000 HD
ATOM     13  H   UNL     1     -20.749 -11.023   7.029  0.00  0.00    +0.000 HD
ENDBRANCH   8  10
BRANCH   8  14
ATOM     14  C   UNL     1     -19.275 -13.991   6.048  0.00  0.00    +0.000 C 
ATOM     15  H   UNL     1     -20.104 -14.492   6.558  0.00  0.00    +0.000 HD
ATOM     16  H   UNL     1     -19.225 -14.380   5.028  0.00  0.00    +0.000 HD
ATOM     17  H   UNL     1     -18.342 -14.292   6.539  0.00  0.00    +0.000 HD
ENDBRANCH   8  14
ENDBRANCH   4   7
ENDBRANCH   1   4
BRANCH   1  18
ATOM     18  C   UNL     1     -17.326  -9.981   2.763  0.00  0.00    +0.000 C 
BRANCH  18  19
ATOM     19  C   UNL     1     -16.152  -9.410   1.996  0.00  0.00    +0.000 C 
ATOM     20  C   UNL     1     -16.171  -8.421   1.093  0.00  0.00    +0.000 C 
ATOM     21  H   UNL     1     -15.182  -9.852   2.218  0.00  0.00    +0.000 HD
ATOM     22  H   UNL     1     -15.250  -8.101   0.618  0.00  0.00    +0.000 HD
ATOM     23  H   UNL     1     -17.083  -7.912   0.806  0.00  0.00    +0.000 HD
ENDBRANCH  18  19
BRANCH  18  24
ATOM     24  C   UNL     1     -18.385 -10.678   1.899  0.00  0.00    +0.000 C 
ATOM     25  H   UNL     1     -19.388 -10.314   2.149  0.00  0.00    +0.000 HD
ATOM     26  H   UNL     1     -18.239 -10.449   0.836  0.00  0.00    +0.000 HD
ATOM     27  H   UNL     1     -18.377 -11.766   2.020  0.00  0.00    +0.000 HD
ENDBRANCH  18  24
BRANCH  18  28
ATOM     28  O   UNL     1     -18.003  -8.871   3.379  0.00  0.00    +0.000 OA
ATOM     29  H   UNL     1     -17.342  -8.189   3.589  0.00  0.00    +0.000 HD
ENDBRANCH  18  28
ENDBRANCH   1  18
TORSDOF 8
ENDMDL
MODEL 9
REMARK VINA RESULT:    -3.712     15.342     16.946
REMARK INTER + INTRA:          -5.830
REMARK INTER:                  -5.519
REMARK INTRA:                  -0.311
REMARK UNBOUND:                -0.816
REMARK  Name = 6549
REMARK  8 active torsions:
REMARK  status: ('A' for Active; 'I' for Inactive)
REMARK    1  A    between atoms: O_1  and  C_2
REMARK    2  A    between atoms: C_2  and  C_3
REMARK    3  A    between atoms: C_2  and  C_5
REMARK    4  A    between atoms: C_2  and  C_6
REMARK    5  A    between atoms: C_3  and  C_4
REMARK    6  A    between atoms: C_4  and  C_7
REMARK    7  A    between atoms: C_8  and  C_9
REMARK    8  A    between atoms: C_8  and  C_10
REMARK                            x       y       z     vdW  Elec       q    Type
REMARK                         _______ _______ _______ _____ _____    ______ ____
ROOT
ATOM      1  C   UNL     1       4.828  16.013  -9.040  0.00  0.00    +0.000 C 
ATOM      2  H   UNL     1       4.266  16.871  -8.642  0.00  0.00    +0.000 HD
ATOM      3  H   UNL     1       4.674  16.063 -10.128  0.00  0.00    +0.000 HD
ENDROOT
BRANCH   1   4
ATOM      4  C   UNL     1       4.226  14.713  -8.496  0.00  0.00    +0.000 C 
ATOM      5  H   UNL     1       3.245  14.886  -8.041  0.00  0.00    +0.000 HD
ATOM      6  H   UNL     1       4.854  14.314  -7.690  0.00  0.00    +0.000 HD
BRANCH   4   7
ATOM      7  C   UNL     1       4.152  13.663  -9.568  0.00  0.00    +0.000 C 
ATOM      8  C   UNL     1       3.045  13.128 -10.118  0.00  0.00    +0.000 C 
ATOM      9  H   UNL     1       5.117  13.314  -9.933  0.00  0.00    +0.000 HD
BRANCH   8  10
ATOM     10  C   UNL     1       3.038  12.077 -11.192  0.00  0.00    +0.000 C 
ATOM     11  H   UNL     1       3.356  12.504 -12.148  0.00  0.00    +0.000 HD
ATOM     12  H   UNL     1       2.033  11.661 -11.310  0.00  0.00    +0.000 HD
ATOM     13  H   UNL     1       3.716  11.251 -10.952  0.00  0.00    +0.000 HD
ENDBRANCH   8  10
BRANCH   8  14
ATOM     14  C   UNL     1       1.679  13.583  -9.682  0.00  0.00    +0.000 C 
ATOM     15  H   UNL     1       0.967  12.754  -9.763  0.00  0.00    +0.000 HD
ATOM     16  H   UNL     1       1.631  13.967  -8.660  0.00  0.00    +0.000 HD
ATOM     17  H   UNL     1       1.332  14.394 -10.332  0.00  0.00    +0.000 HD
ENDBRANCH   8  14
ENDBRANCH   4   7
ENDBRANCH   1   4
BRANCH   1  18
ATOM     18  C   UNL     1       6.334  16.214  -8.744  0.00  0.00    +0.000 C 
BRANCH  18  19
ATOM     19  C   UNL     1       7.173  15.902  -9.966  0.00  0.00    +0.000 C 
ATOM     20  C   UNL     1       7.867  16.765 -10.719  0.00  0.00    +0.000 C 
ATOM     21  H   UNL     1       7.220  14.853 -10.252  0.00  0.00    +0.000 HD
ATOM     22  H   UNL     1       8.435  16.406 -11.571  0.00  0.00    +0.000 HD
ATOM     23  H   UNL     1       7.890  17.828 -10.516  0.00  0.00    +0.000 HD
ENDBRANCH  18  19
BRANCH  18  24
ATOM     24  C   UNL     1       6.594  17.588  -8.114  0.00  0.00    +0.000 C 
ATOM     25  H   UNL     1       5.652  18.125  -7.955  0.00  0.00    +0.000 HD
ATOM     26  H   UNL     1       7.052  17.485  -7.122  0.00  0.00    +0.000 HD
ATOM     27  H   UNL     1       7.246  18.217  -8.729  0.00  0.00    +0.000 HD
ENDBRANCH  18  24
BRANCH  18  28
ATOM     28  O   UNL     1       6.693  15.254  -7.735  0.00  0.00    +0.000 OA
ATOM     29  H   UNL     1       6.413  14.373  -8.037  0.00  0.00    +0.000 HD
ENDBRANCH  18  28
ENDBRANCH   1  18
TORSDOF 8
ENDMDL
MODEL 10
REMARK VINA RESULT:    -3.638     25.388     26.906
REMARK INTER + INTRA:          -5.730
REMARK INTER:                  -4.914
REMARK INTRA:                  -0.816
REMARK UNBOUND:                -0.816
REMARK  Name = 6549
REMARK  8 active torsions:
REMARK  status: ('A' for Active; 'I' for Inactive)
REMARK    1  A    between atoms: O_1  and  C_2
REMARK    2  A    between atoms: C_2  and  C_3
REMARK    3  A    between atoms: C_2  and  C_5
REMARK    4  A    between atoms: C_2  and  C_6
REMARK    5  A    between atoms: C_3  and  C_4
REMARK    6  A    between atoms: C_4  and  C_7
REMARK    7  A    between atoms: C_8  and  C_9
REMARK    8  A    between atoms: C_8  and  C_10
REMARK                            x       y       z     vdW  Elec       q    Type
REMARK                         _______ _______ _______ _____ _____    ______ ____
ROOT
ATOM      1  C   UNL     1     -16.103 -11.237   0.781  0.00  0.00    +0.000 C 
ATOM      2  H   UNL     1     -16.787 -12.094   0.866  0.00  0.00    +0.000 HD
ATOM      3  H   UNL     1     -15.223 -11.638   0.258  0.00  0.00    +0.000 HD
ENDROOT
BRANCH   1   4
ATOM      4  C   UNL     1     -15.698 -10.767   2.182  0.00  0.00    +0.000 C 
ATOM      5  H   UNL     1     -15.718  -9.675   2.259  0.00  0.00    +0.000 HD
ATOM      6  H   UNL     1     -14.660 -11.054   2.392  0.00  0.00    +0.000 HD
BRANCH   4   7
ATOM      7  C   UNL     1     -16.560 -11.404   3.235  0.00  0.00    +0.000 C 
ATOM      8  C   UNL     1     -17.583 -10.843   3.908  0.00  0.00    +0.000 C 
ATOM      9  H   UNL     1     -16.318 -12.442   3.458  0.00  0.00    +0.000 HD
BRANCH   8  10
ATOM     10  C   UNL     1     -18.411 -11.536   4.953  0.00  0.00    +0.000 C 
ATOM     11  H   UNL     1     -19.419 -11.730   4.576  0.00  0.00    +0.000 HD
ATOM     12  H   UNL     1     -18.485 -10.917   5.852  0.00  0.00    +0.000 HD
ATOM     13  H   UNL     1     -17.971 -12.496   5.243  0.00  0.00    +0.000 HD
ENDBRANCH   8  10
BRANCH   8  14
ATOM     14  C   UNL     1     -17.991  -9.421   3.631  0.00  0.00    +0.000 C 
ATOM     15  H   UNL     1     -18.298  -9.319   2.584  0.00  0.00    +0.000 HD
ATOM     16  H   UNL     1     -18.807  -9.050   4.257  0.00  0.00    +0.000 HD
ATOM     17  H   UNL     1     -17.142  -8.750   3.802  0.00  0.00    +0.000 HD
ENDBRANCH   8  14
ENDBRANCH   4   7
ENDBRANCH   1   4
BRANCH   1  18
ATOM     18  C   UNL     1     -16.758 -10.154  -0.112  0.00  0.00    +0.000 C 
BRANCH  18  19
ATOM     19  C   UNL     1     -18.229 -10.447  -0.327  0.00  0.00    +0.000 C 
ATOM     20  C   UNL     1     -19.046 -11.144   0.473  0.00  0.00    +0.000 C 
ATOM     21  H   UNL     1     -18.666 -10.030  -1.233  0.00  0.00    +0.000 HD
ATOM     22  H   UNL     1     -20.088 -11.275   0.202  0.00  0.00    +0.000 HD
ATOM     23  H   UNL     1     -18.711 -11.594   1.399  0.00  0.00    +0.000 HD
ENDBRANCH  18  19
BRANCH  18  24
ATOM     24  C   UNL     1     -16.448  -8.746   0.411  0.00  0.00    +0.000 C 
ATOM     25  H   UNL     1     -15.383  -8.648   0.649  0.00  0.00    +0.000 HD
ATOM     26  H   UNL     1     -16.655  -7.988  -0.355  0.00  0.00    +0.000 HD
ATOM     27  H   UNL     1     -17.023  -8.494   1.307  0.00  0.00    +0.000 HD
ENDBRANCH  18  24
BRANCH  18  28
ATOM     28  O   UNL     1     -16.123 -10.235  -1.400  0.00  0.00    +0.000 OA
ATOM     29  H   UNL     1     -15.635 -11.075  -1.448  0.00  0.00    +0.000 HD
ENDBRANCH  18  28
ENDBRANCH   1  18
TORSDOF 8
ENDMDL
