MODEL 1
REMARK VINA RESULT:    -4.432      0.000      0.000
REMARK INTER + INTRA:          -4.691
REMARK INTER:                  -4.691
REMARK INTRA:                   0.000
REMARK UNBOUND:                 0.000
REMARK  Name = 8369
REMARK  2 active torsions:
REMARK  status: ('A' for Active; 'I' for Inactive)
REMARK    1  A    between atoms: O_2  and  C_5
REMARK    2  A    between atoms: C_4  and  C_6
REMARK                            x       y       z     vdW  Elec       q    Type
REMARK                         _______ _______ _______ _____ _____    ______ ____
ROOT
ATOM      1  O   UNL     1       6.646  -0.475  -5.132  0.00  0.00    +0.000 OA
ATOM      2  O   UNL     1       6.239   1.741  -1.779  0.00  0.00    +0.000 OA
ATOM      3  C   UNL     1       7.702  -0.391  -4.229  0.00  0.00    +0.000 A 
ATOM      4  C   UNL     1       7.629   0.334  -3.094  0.00  0.00    +0.000 A 
ATOM      5  C   UNL     1       6.368   1.067  -2.793  0.00  0.00    +0.000 A 
ATOM      6  C   UNL     1       5.273   0.949  -3.775  0.00  0.00    +0.000 A 
ATOM      7  C   UNL     1       5.485   0.200  -4.857  0.00  0.00    +0.000 A 
ATOM      8  H   UNL     1       4.339   1.465  -3.597  0.00  0.00    +0.000 HD
ATOM      9  H   UNL     1       4.752   0.048  -5.635  0.00  0.00    +0.000 HD
ENDROOT
BRANCH   3  10
ATOM     10  C   UNL     1       8.905  -1.174  -4.650  0.00  0.00    +0.000 C 
ATOM     11  H   UNL     1       9.297  -0.786  -5.596  0.00  0.00    +0.000 HD
ATOM     12  H   UNL     1       8.697  -2.242  -4.758  0.00  0.00    +0.000 HD
ATOM     13  H   UNL     1       9.698  -1.089  -3.897  0.00  0.00    +0.000 HD
ENDBRANCH   3  10
BRANCH   4  14
ATOM     14  O   UNL     1       8.670   0.424  -2.197  0.00  0.00    +0.000 OA
ATOM     15  H   UNL     1       9.480   0.074  -2.599  0.00  0.00    +0.000 HD
ENDBRANCH   4  14
TORSDOF 2
ENDMDL
MODEL 2
REMARK VINA RESULT:    -4.340      1.212      3.360
REMARK INTER + INTRA:          -4.594
REMARK INTER:                  -4.594
REMARK INTRA:                   0.000
REMARK UNBOUND:                 0.000
REMARK  Name = 8369
REMARK  2 active torsions:
REMARK  status: ('A' for Active; 'I' for Inactive)
REMARK    1  A    between atoms: O_2  and  C_5
REMARK    2  A    between atoms: C_4  and  C_6
REMARK                            x       y       z     vdW  Elec       q    Type
REMARK                         _______ _______ _______ _____ _____    ______ ____
ROOT
ATOM      1  O   UNL     1       8.176   0.070  -2.656  0.00  0.00    +0.000 OA
ATOM      2  O   UNL     1       5.533  -0.195  -5.701  0.00  0.00    +0.000 OA
ATOM      3  C   UNL     1       6.977   0.775  -2.592  0.00  0.00    +0.000 A 
ATOM      4  C   UNL     1       6.056   0.729  -3.576  0.00  0.00    +0.000 A 
ATOM      5  C   UNL     1       6.330  -0.112  -4.774  0.00  0.00    +0.000 A 
ATOM      6  C   UNL     1       7.610  -0.844  -4.800  0.00  0.00    +0.000 A 
ATOM      7  C   UNL     1       8.430  -0.704  -3.759  0.00  0.00    +0.000 A 
ATOM      8  H   UNL     1       7.851  -1.467  -5.652  0.00  0.00    +0.000 HD
ATOM      9  H   UNL     1       9.388  -1.194  -3.678  0.00  0.00    +0.000 HD
ENDROOT
BRANCH   3  10
ATOM     10  C   UNL     1       6.828   1.576  -1.338  0.00  0.00    +0.000 C 
ATOM     11  H   UNL     1       5.805   1.498  -0.957  0.00  0.00    +0.000 HD
ATOM     12  H   UNL     1       7.080   2.631  -1.477  0.00  0.00    +0.000 HD
ATOM     13  H   UNL     1       7.504   1.198  -0.561  0.00  0.00    +0.000 HD
ENDBRANCH   3  10
BRANCH   4  14
ATOM     14  O   UNL     1       4.869   1.425  -3.521  0.00  0.00    +0.000 OA
ATOM     15  H   UNL     1       4.789   2.000  -4.298  0.00  0.00    +0.000 HD
ENDBRANCH   4  14
TORSDOF 2
ENDMDL
MODEL 3
REMARK VINA RESULT:    -4.272      8.193      8.600
REMARK INTER + INTRA:          -4.522
REMARK INTER:                  -4.522
REMARK INTRA:                   0.000
REMARK UNBOUND:                 0.000
REMARK  Name = 8369
REMARK  2 active torsions:
REMARK  status: ('A' for Active; 'I' for Inactive)
REMARK    1  A    between atoms: O_2  and  C_5
REMARK    2  A    between atoms: C_4  and  C_6
REMARK                            x       y       z     vdW  Elec       q    Type
REMARK                         _______ _______ _______ _____ _____    ______ ____
ROOT
ATOM      1  O   UNL     1      11.439   7.812  -5.285  0.00  0.00    +0.000 OA
ATOM      2  O   UNL     1       9.273   7.712  -1.876  0.00  0.00    +0.000 OA
ATOM      3  C   UNL     1      12.086   7.880  -4.055  0.00  0.00    +0.000 A 
ATOM      4  C   UNL     1      11.419   7.854  -2.882  0.00  0.00    +0.000 A 
ATOM      5  C   UNL     1       9.935   7.742  -2.906  0.00  0.00    +0.000 A 
ATOM      6  C   UNL     1       9.289   7.670  -4.231  0.00  0.00    +0.000 A 
ATOM      7  C   UNL     1      10.072   7.710  -5.309  0.00  0.00    +0.000 A 
ATOM      8  H   UNL     1       8.212   7.588  -4.296  0.00  0.00    +0.000 HD
ATOM      9  H   UNL     1       9.702   7.665  -6.322  0.00  0.00    +0.000 HD
ENDROOT
BRANCH   3  10
ATOM     10  C   UNL     1      13.573   7.989  -4.174  0.00  0.00    +0.000 C 
ATOM     11  H   UNL     1      14.030   6.994  -4.132  0.00  0.00    +0.000 HD
ATOM     12  H   UNL     1      14.015   8.620  -3.398  0.00  0.00    +0.000 HD
ATOM     13  H   UNL     1      13.847   8.443  -5.133  0.00  0.00    +0.000 HD
ENDBRANCH   3  10
BRANCH   4  14
ATOM     14  O   UNL     1      12.052   7.923  -1.662  0.00  0.00    +0.000 OA
ATOM     15  H   UNL     1      11.496   7.516  -0.979  0.00  0.00    +0.000 HD
ENDBRANCH   4  14
TORSDOF 2
ENDMDL
MODEL 4
REMARK VINA RESULT:    -3.872     20.222     20.737
REMARK INTER + INTRA:          -4.098
REMARK INTER:                  -4.098
REMARK INTRA:                   0.000
REMARK UNBOUND:                 0.000
REMARK  Name = 8369
REMARK  2 active torsions:
REMARK  status: ('A' for Active; 'I' for Inactive)
REMARK    1  A    between atoms: O_2  and  C_5
REMARK    2  A    between atoms: C_4  and  C_6
REMARK                            x       y       z     vdW  Elec       q    Type
REMARK                         _______ _______ _______ _____ _____    ______ ____
ROOT
ATOM      1  O   UNL     1      19.297  16.802 -11.234  0.00  0.00    +0.000 OA
ATOM      2  O   UNL     1      19.059  12.910 -12.292  0.00  0.00    +0.000 OA
ATOM      3  C   UNL     1      18.677  15.893 -10.382  0.00  0.00    +0.000 A 
ATOM      4  C   UNL     1      18.564  14.582 -10.680  0.00  0.00    +0.000 A 
ATOM      5  C   UNL     1      19.129  14.089 -11.965  0.00  0.00    +0.000 A 
ATOM      6  C   UNL     1      19.780  15.085 -12.837  0.00  0.00    +0.000 A 
ATOM      7  C   UNL     1      19.817  16.350 -12.419  0.00  0.00    +0.000 A 
ATOM      8  H   UNL     1      20.204  14.771 -13.782  0.00  0.00    +0.000 HD
ATOM      9  H   UNL     1      20.268  17.155 -12.979  0.00  0.00    +0.000 HD
ENDROOT
BRANCH   3  10
ATOM     10  C   UNL     1      18.156  16.518  -9.127  0.00  0.00    +0.000 C 
ATOM     11  H   UNL     1      18.462  15.930  -8.255  0.00  0.00    +0.000 HD
ATOM     12  H   UNL     1      17.068  16.621  -9.126  0.00  0.00    +0.000 HD
ATOM     13  H   UNL     1      18.562  17.530  -9.008  0.00  0.00    +0.000 HD
ENDBRANCH   3  10
BRANCH   4  14
ATOM     14  O   UNL     1      17.950  13.677  -9.843  0.00  0.00    +0.000 OA
ATOM     15  H   UNL     1      16.986  13.760  -9.919  0.00  0.00    +0.000 HD
ENDBRANCH   4  14
TORSDOF 2
ENDMDL
MODEL 5
REMARK VINA RESULT:    -3.799      2.869      3.885
REMARK INTER + INTRA:          -4.021
REMARK INTER:                  -4.021
REMARK INTRA:                   0.000
REMARK UNBOUND:                 0.000
REMARK  Name = 8369
REMARK  2 active torsions:
REMARK  status: ('A' for Active; 'I' for Inactive)
REMARK    1  A    between atoms: O_2  and  C_5
REMARK    2  A    between atoms: C_4  and  C_6
REMARK                            x       y       z     vdW  Elec       q    Type
REMARK                         _______ _______ _______ _____ _____    ______ ____
ROOT
ATOM      1  O   UNL     1       9.083  -1.720  -1.298  0.00  0.00    +0.000 OA
ATOM      2  O   UNL     1       5.195  -0.883  -2.011  0.00  0.00    +0.000 OA
ATOM      3  C   UNL     1       8.345  -1.014  -0.352  0.00  0.00    +0.000 A 
ATOM      4  C   UNL     1       7.045  -0.702  -0.532  0.00  0.00    +0.000 A 
ATOM      5  C   UNL     1       6.373  -1.135  -1.788  0.00  0.00    +0.000 A 
ATOM      6  C   UNL     1       7.191  -1.882  -2.763  0.00  0.00    +0.000 A 
ATOM      7  C   UNL     1       8.466  -2.117  -2.455  0.00  0.00    +0.000 A 
ATOM      8  H   UNL     1       6.744  -2.216  -3.690  0.00  0.00    +0.000 HD
ATOM      9  H   UNL     1       9.150  -2.654  -3.097  0.00  0.00    +0.000 HD
ENDROOT
BRANCH   3  10
ATOM     10  C   UNL     1       9.138  -0.643   0.861  0.00  0.00    +0.000 C 
ATOM     11  H   UNL     1       8.509  -0.099   1.573  0.00  0.00    +0.000 HD
ATOM     12  H   UNL     1      10.017  -0.039   0.623  0.00  0.00    +0.000 HD
ATOM     13  H   UNL     1       9.510  -1.544   1.363  0.00  0.00    +0.000 HD
ENDBRANCH   3  10
BRANCH   4  14
ATOM     14  O   UNL     1       6.309  -0.003   0.398  0.00  0.00    +0.000 OA
ATOM     15  H   UNL     1       5.564  -0.544   0.702  0.00  0.00    +0.000 HD
ENDBRANCH   4  14
TORSDOF 2
ENDMDL
MODEL 6
REMARK VINA RESULT:    -3.611     16.699     18.118
REMARK INTER + INTRA:          -3.822
REMARK INTER:                  -3.822
REMARK INTRA:                   0.000
REMARK UNBOUND:                 0.000
REMARK  Name = 8369
REMARK  2 active torsions:
REMARK  status: ('A' for Active; 'I' for Inactive)
REMARK    1  A    between atoms: O_2  and  C_5
REMARK    2  A    between atoms: C_4  and  C_6
REMARK                            x       y       z     vdW  Elec       q    Type
REMARK                         _______ _______ _______ _____ _____    ______ ____
ROOT
ATOM      1  O   UNL     1       0.072 -12.490 -10.791  0.00  0.00    +0.000 OA
ATOM      2  O   UNL     1      -1.481 -15.938 -12.214  0.00  0.00    +0.000 OA
ATOM      3  C   UNL     1      -0.752 -13.262  -9.978  0.00  0.00    +0.000 A 
ATOM      4  C   UNL     1      -1.303 -14.421 -10.395  0.00  0.00    +0.000 A 
ATOM      5  C   UNL     1      -1.012 -14.894 -11.776  0.00  0.00    +0.000 A 
ATOM      6  C   UNL     1      -0.132 -14.047 -12.604  0.00  0.00    +0.000 A 
ATOM      7  C   UNL     1       0.339 -12.924 -12.063  0.00  0.00    +0.000 A 
ATOM      8  H   UNL     1       0.106 -14.352 -13.615  0.00  0.00    +0.000 HD
ATOM      9  H   UNL     1       0.989 -12.235 -12.581  0.00  0.00    +0.000 HD
ENDROOT
BRANCH   3  10
ATOM     10  C   UNL     1      -0.960 -12.675  -8.617  0.00  0.00    +0.000 C 
ATOM     11  H   UNL     1      -0.123 -12.935  -7.961  0.00  0.00    +0.000 HD
ATOM     12  H   UNL     1      -1.895 -13.002  -8.154  0.00  0.00    +0.000 HD
ATOM     13  H   UNL     1      -1.012 -11.581  -8.678  0.00  0.00    +0.000 HD
ENDBRANCH   3  10
BRANCH   4  14
ATOM     14  O   UNL     1      -2.120 -15.189  -9.597  0.00  0.00    +0.000 OA
ATOM     15  H   UNL     1      -1.602 -15.894  -9.178  0.00  0.00    +0.000 HD
ENDBRANCH   4  14
TORSDOF 2
ENDMDL
MODEL 7
REMARK VINA RESULT:    -3.514      7.989      9.206
REMARK INTER + INTRA:          -3.719
REMARK INTER:                  -3.719
REMARK INTRA:                   0.000
REMARK UNBOUND:                 0.000
REMARK  Name = 8369
REMARK  2 active torsions:
REMARK  status: ('A' for Active; 'I' for Inactive)
REMARK    1  A    between atoms: O_2  and  C_5
REMARK    2  A    between atoms: C_4  and  C_6
REMARK                            x       y       z     vdW  Elec       q    Type
REMARK                         _______ _______ _______ _____ _____    ______ ____
ROOT
ATOM      1  O   UNL     1       9.400  -0.583   5.361  0.00  0.00    +0.000 OA
ATOM      2  O   UNL     1      10.063  -3.111   2.281  0.00  0.00    +0.000 OA
ATOM      3  C   UNL     1       8.619  -1.727   5.229  0.00  0.00    +0.000 A 
ATOM      4  C   UNL     1       8.789  -2.608   4.221  0.00  0.00    +0.000 A 
ATOM      5  C   UNL     1       9.858  -2.349   3.218  0.00  0.00    +0.000 A 
ATOM      6  C   UNL     1      10.663  -1.126   3.397  0.00  0.00    +0.000 A 
ATOM      7  C   UNL     1      10.382  -0.342   4.437  0.00  0.00    +0.000 A 
ATOM      8  H   UNL     1      11.451  -0.898   2.690  0.00  0.00    +0.000 HD
ATOM      9  H   UNL     1      10.910   0.574   4.658  0.00  0.00    +0.000 HD
ENDROOT
BRANCH   3  10
ATOM     10  C   UNL     1       7.587  -1.868   6.302  0.00  0.00    +0.000 C 
ATOM     11  H   UNL     1       6.588  -1.682   5.895  0.00  0.00    +0.000 HD
ATOM     12  H   UNL     1       7.761  -1.195   7.147  0.00  0.00    +0.000 HD
ATOM     13  H   UNL     1       7.598  -2.885   6.712  0.00  0.00    +0.000 HD
ENDBRANCH   3  10
BRANCH   4  14
ATOM     14  O   UNL     1       8.020  -3.742   4.083  0.00  0.00    +0.000 OA
ATOM     15  H   UNL     1       7.138  -3.502   3.756  0.00  0.00    +0.000 HD
ENDBRANCH   4  14
TORSDOF 2
ENDMDL
MODEL 8
REMARK VINA RESULT:    -3.502     17.524     18.820
REMARK INTER + INTRA:          -3.707
REMARK INTER:                  -3.707
REMARK INTRA:                   0.000
REMARK UNBOUND:                 0.000
REMARK  Name = 8369
REMARK  2 active torsions:
REMARK  status: ('A' for Active; 'I' for Inactive)
REMARK    1  A    between atoms: O_2  and  C_5
REMARK    2  A    between atoms: C_4  and  C_6
REMARK                            x       y       z     vdW  Elec       q    Type
REMARK                         _______ _______ _______ _____ _____    ______ ____
ROOT
ATOM      1  O   UNL     1       0.828  10.426   9.754  0.00  0.00    +0.000 OA
ATOM      2  O   UNL     1      -1.652   7.724  11.448  0.00  0.00    +0.000 OA
ATOM      3  C   UNL     1      -0.457  10.809  10.127  0.00  0.00    +0.000 A 
ATOM      4  C   UNL     1      -1.333   9.953  10.694  0.00  0.00    +0.000 A 
ATOM      5  C   UNL     1      -0.904   8.548  10.936  0.00  0.00    +0.000 A 
ATOM      6  C   UNL     1       0.466   8.185  10.527  0.00  0.00    +0.000 A 
ATOM      7  C   UNL     1       1.223   9.132   9.974  0.00  0.00    +0.000 A 
ATOM      8  H   UNL     1       0.819   7.174  10.684  0.00  0.00    +0.000 HD
ATOM      9  H   UNL     1       2.237   8.972   9.641  0.00  0.00    +0.000 HD
ENDROOT
BRANCH   3  10
ATOM     10  C   UNL     1      -0.757  12.244   9.831  0.00  0.00    +0.000 C 
ATOM     11  H   UNL     1      -0.801  12.822  10.760  0.00  0.00    +0.000 HD
ATOM     12  H   UNL     1      -1.693  12.376   9.281  0.00  0.00    +0.000 HD
ATOM     13  H   UNL     1       0.032  12.677   9.204  0.00  0.00    +0.000 HD
ENDBRANCH   3  10
BRANCH   4  14
ATOM     14  O   UNL     1      -2.606  10.324  11.064  0.00  0.00    +0.000 OA
ATOM     15  H   UNL     1      -2.644  10.453  12.025  0.00  0.00    +0.000 HD
ENDBRANCH   4  14
TORSDOF 2
ENDMDL
MODEL 9
REMARK VINA RESULT:    -3.482     17.433     18.742
REMARK INTER + INTRA:          -3.685
REMARK INTER:                  -3.685
REMARK INTRA:                   0.000
REMARK UNBOUND:                 0.000
REMARK  Name = 8369
REMARK  2 active torsions:
REMARK  status: ('A' for Active; 'I' for Inactive)
REMARK    1  A    between atoms: O_2  and  C_5
REMARK    2  A    between atoms: C_4  and  C_6
REMARK                            x       y       z     vdW  Elec       q    Type
REMARK                         _______ _______ _______ _____ _____    ______ ____
ROOT
ATOM      1  O   UNL     1      -1.874   8.777  11.019  0.00  0.00    +0.000 OA
ATOM      2  O   UNL     1       1.758   9.832   9.600  0.00  0.00    +0.000 OA
ATOM      3  C   UNL     1      -1.656  10.081  10.583  0.00  0.00    +0.000 A 
ATOM      4  C   UNL     1      -0.466  10.495  10.101  0.00  0.00    +0.000 A 
ATOM      5  C   UNL     1       0.654   9.518  10.028  0.00  0.00    +0.000 A 
ATOM      6  C   UNL     1       0.380   8.146  10.497  0.00  0.00    +0.000 A 
ATOM      7  C   UNL     1      -0.843   7.877  10.953  0.00  0.00    +0.000 A 
ATOM      8  H   UNL     1       1.166   7.403  10.462  0.00  0.00    +0.000 HD
ATOM      9  H   UNL     1      -1.147   6.908  11.319  0.00  0.00    +0.000 HD
ENDROOT
BRANCH   3  10
ATOM     10  C   UNL     1      -2.863  10.956  10.710  0.00  0.00    +0.000 C 
ATOM     11  H   UNL     1      -2.789  11.805  10.022  0.00  0.00    +0.000 HD
ATOM     12  H   UNL     1      -3.010  11.329  11.727  0.00  0.00    +0.000 HD
ATOM     13  H   UNL     1      -3.770  10.395  10.454  0.00  0.00    +0.000 HD
ENDBRANCH   3  10
BRANCH   4  14
ATOM     14  O   UNL     1      -0.243  11.783   9.671  0.00  0.00    +0.000 OA
ATOM     15  H   UNL     1      -0.734  11.945   8.850  0.00  0.00    +0.000 HD
ENDBRANCH   4  14
TORSDOF 2
ENDMDL
MODEL 10
REMARK VINA RESULT:    -3.394     15.063     15.911
REMARK INTER + INTRA:          -3.592
REMARK INTER:                  -3.592
REMARK INTRA:                   0.000
REMARK UNBOUND:                 0.000
REMARK  Name = 8369
REMARK  2 active torsions:
REMARK  status: ('A' for Active; 'I' for Inactive)
REMARK    1  A    between atoms: O_2  and  C_5
REMARK    2  A    between atoms: C_4  and  C_6
REMARK                            x       y       z     vdW  Elec       q    Type
REMARK                         _______ _______ _______ _____ _____    ______ ____
ROOT
ATOM      1  O   UNL     1       4.206  13.714 -10.552  0.00  0.00    +0.000 OA
ATOM      2  O   UNL     1       4.124  11.432 -13.885  0.00  0.00    +0.000 OA
ATOM      3  C   UNL     1       4.967  14.081 -11.657  0.00  0.00    +0.000 A 
ATOM      4  C   UNL     1       4.984  13.360 -12.798  0.00  0.00    +0.000 A 
ATOM      5  C   UNL     1       4.152  12.129 -12.878  0.00  0.00    +0.000 A 
ATOM      6  C   UNL     1       3.359  11.777 -11.685  0.00  0.00    +0.000 A 
ATOM      7  C   UNL     1       3.440  12.579 -10.623  0.00  0.00    +0.000 A 
ATOM      8  H   UNL     1       2.739  10.889 -11.698  0.00  0.00    +0.000 HD
ATOM      9  H   UNL     1       2.902  12.413  -9.702  0.00  0.00    +0.000 HD
ENDROOT
BRANCH   3  10
ATOM     10  C   UNL     1       5.753  15.336 -11.445  0.00  0.00    +0.000 C 
ATOM     11  H   UNL     1       6.423  15.223 -10.587  0.00  0.00    +0.000 HD
ATOM     12  H   UNL     1       5.117  16.212 -11.290  0.00  0.00    +0.000 HD
ATOM     13  H   UNL     1       6.369  15.554 -12.325  0.00  0.00    +0.000 HD
ENDBRANCH   3  10
BRANCH   4  14
ATOM     14  O   UNL     1       5.736  13.717 -13.895  0.00  0.00    +0.000 OA
ATOM     15  H   UNL     1       5.714  13.005 -14.553  0.00  0.00    +0.000 HD
ENDBRANCH   4  14
TORSDOF 2
ENDMDL
