MODEL 1
REMARK VINA RESULT:    -4.869      0.000      0.000
REMARK INTER + INTRA:          -5.791
REMARK INTER:                  -5.688
REMARK INTRA:                  -0.103
REMARK UNBOUND:                -0.067
REMARK  Name = 16666
REMARK  5 active torsions:
REMARK  status: ('A' for Active; 'I' for Inactive)
REMARK    1  A    between atoms: O_1  and  C_3
REMARK    2  A    between atoms: C_2  and  C_8
REMARK    3  A    between atoms: C_5  and  C_9
REMARK    4  A    between atoms: C_8  and  C_10
REMARK    5  A    between atoms: C_8  and  C_11
REMARK                            x       y       z     vdW  Elec       q    Type
REMARK                         _______ _______ _______ _____ _____    ______ ____
ROOT
ATOM      1  C   UNL     1      -1.175 -13.706 -10.260  0.00  0.00    +0.000 C 
ATOM      2  C   UNL     1      -1.132 -14.942  -9.346  0.00  0.00    +0.000 C 
ATOM      3  C   UNL     1      -0.414 -12.533  -9.627  0.00  0.00    +0.000 C 
ATOM      4  C   UNL     1      -0.866 -13.449  -7.311  0.00  0.00    +0.000 C 
ATOM      5  C   UNL     1      -1.633 -14.618  -7.936  0.00  0.00    +0.000 C 
ATOM      6  C   UNL     1      -0.922 -12.216  -8.222  0.00  0.00    +0.000 C 
ATOM      7  H   UNL     1      -2.228 -13.412 -10.384  0.00  0.00    +0.000 HD
ATOM      8  H   UNL     1      -0.121 -15.346  -9.246  0.00  0.00    +0.000 HD
ATOM      9  H   UNL     1      -0.519 -11.623 -10.227  0.00  0.00    +0.000 HD
ATOM     10  H   UNL     1       0.656 -12.743  -9.540  0.00  0.00    +0.000 HD
ATOM     11  H   UNL     1       0.185 -13.746  -7.193  0.00  0.00    +0.000 HD
ATOM     12  H   UNL     1      -1.544 -15.513  -7.306  0.00  0.00    +0.000 HD
ATOM     13  H   UNL     1      -2.707 -14.391  -7.971  0.00  0.00    +0.000 HD
ATOM     14  H   UNL     1      -0.319 -11.408  -7.793  0.00  0.00    +0.000 HD
ATOM     15  H   UNL     1      -1.952 -11.844  -8.286  0.00  0.00    +0.000 HD
ENDROOT
BRANCH   4  16
ATOM     16  C   UNL     1      -1.418 -13.120  -5.925  0.00  0.00    +0.000 C 
ATOM     17  H   UNL     1      -0.625 -13.164  -5.171  0.00  0.00    +0.000 HD
ATOM     18  H   UNL     1      -1.844 -12.111  -5.906  0.00  0.00    +0.000 HD
ATOM     19  H   UNL     1      -2.204 -13.824  -5.631  0.00  0.00    +0.000 HD
ENDBRANCH   4  16
BRANCH   2  20
ATOM     20  O   UNL     1      -1.951 -15.968  -9.900  0.00  0.00    +0.000 OA
ATOM     21  H   UNL     1      -1.937 -16.726  -9.290  0.00  0.00    +0.000 HD
ENDBRANCH   2  20
BRANCH   1  22
ATOM     22  C   UNL     1      -0.613 -14.018 -11.648  0.00  0.00    +0.000 C 
ATOM     23  H   UNL     1      -0.084 -14.980 -11.616  0.00  0.00    +0.000 HD
BRANCH  22  24
ATOM     24  C   UNL     1      -1.744 -14.150 -12.665  0.00  0.00    +0.000 C 
ATOM     25  H   UNL     1      -1.724 -15.104 -13.200  0.00  0.00    +0.000 HD
ATOM     26  H   UNL     1      -2.711 -14.097 -12.152  0.00  0.00    +0.000 HD
ATOM     27  H   UNL     1      -1.718 -13.337 -13.398  0.00  0.00    +0.000 HD
ENDBRANCH  22  24
BRANCH  22  28
ATOM     28  C   UNL     1       0.376 -12.938 -12.078  0.00  0.00    +0.000 C 
ATOM     29  H   UNL     1       1.078 -13.267 -12.848  0.00  0.00    +0.000 HD
ATOM     30  H   UNL     1       0.993 -12.659 -11.215  0.00  0.00    +0.000 HD
ATOM     31  H   UNL     1      -0.106 -12.014 -12.405  0.00  0.00    +0.000 HD
ENDBRANCH  22  28
ENDBRANCH   1  22
TORSDOF 5
ENDMDL
MODEL 2
REMARK VINA RESULT:    -4.438     19.262     21.263
REMARK INTER + INTRA:          -5.284
REMARK INTER:                  -5.067
REMARK INTRA:                  -0.217
REMARK UNBOUND:                -0.067
REMARK  Name = 16666
REMARK  5 active torsions:
REMARK  status: ('A' for Active; 'I' for Inactive)
REMARK    1  A    between atoms: O_1  and  C_3
REMARK    2  A    between atoms: C_2  and  C_8
REMARK    3  A    between atoms: C_5  and  C_9
REMARK    4  A    between atoms: C_8  and  C_10
REMARK    5  A    between atoms: C_8  and  C_11
REMARK                            x       y       z     vdW  Elec       q    Type
REMARK                         _______ _______ _______ _____ _____    ______ ____
ROOT
ATOM      1  C   UNL     1     -17.474 -11.408   3.998  0.00  0.00    +0.000 C 
ATOM      2  C   UNL     1     -16.660 -11.862   2.776  0.00  0.00    +0.000 C 
ATOM      3  C   UNL     1     -18.394 -10.234   3.637  0.00  0.00    +0.000 C 
ATOM      4  C   UNL     1     -16.818  -9.530   1.785  0.00  0.00    +0.000 C 
ATOM      5  C   UNL     1     -15.892 -10.696   2.146  0.00  0.00    +0.000 C 
ATOM      6  C   UNL     1     -17.619  -9.076   3.012  0.00  0.00    +0.000 C 
ATOM      7  H   UNL     1     -16.768 -11.072   4.772  0.00  0.00    +0.000 HD
ATOM      8  H   UNL     1     -17.293 -12.292   1.995  0.00  0.00    +0.000 HD
ATOM      9  H   UNL     1     -18.908  -9.846   4.522  0.00  0.00    +0.000 HD
ATOM     10  H   UNL     1     -19.164 -10.528   2.918  0.00  0.00    +0.000 HD
ATOM     11  H   UNL     1     -17.523  -9.872   1.017  0.00  0.00    +0.000 HD
ATOM     12  H   UNL     1     -15.362 -11.052   1.254  0.00  0.00    +0.000 HD
ATOM     13  H   UNL     1     -15.108 -10.357   2.837  0.00  0.00    +0.000 HD
ATOM     14  H   UNL     1     -18.321  -8.284   2.726  0.00  0.00    +0.000 HD
ATOM     15  H   UNL     1     -16.944  -8.647   3.762  0.00  0.00    +0.000 HD
ENDROOT
BRANCH   4  16
ATOM     16  C   UNL     1     -16.018  -8.366   1.202  0.00  0.00    +0.000 C 
ATOM     17  H   UNL     1     -15.030  -8.302   1.670  0.00  0.00    +0.000 HD
ATOM     18  H   UNL     1     -15.871  -8.498   0.125  0.00  0.00    +0.000 HD
ATOM     19  H   UNL     1     -16.531  -7.412   1.360  0.00  0.00    +0.000 HD
ENDBRANCH   4  16
BRANCH   2  20
ATOM     20  O   UNL     1     -15.728 -12.864   3.174  0.00  0.00    +0.000 OA
ATOM     21  H   UNL     1     -14.947 -12.795   2.597  0.00  0.00    +0.000 HD
ENDBRANCH   2  20
BRANCH   1  22
ATOM     22  C   UNL     1     -18.291 -12.563   4.584  0.00  0.00    +0.000 C 
ATOM     23  H   UNL     1     -17.609 -13.359   4.910  0.00  0.00    +0.000 HD
BRANCH  22  24
ATOM     24  C   UNL     1     -19.069 -12.096   5.812  0.00  0.00    +0.000 C 
ATOM     25  H   UNL     1     -18.780 -12.625   6.725  0.00  0.00    +0.000 HD
ATOM     26  H   UNL     1     -18.877 -11.032   5.991  0.00  0.00    +0.000 HD
ATOM     27  H   UNL     1     -20.149 -12.212   5.667  0.00  0.00    +0.000 HD
ENDBRANCH  22  24
BRANCH  22  28
ATOM     28  C   UNL     1     -19.236 -13.135   3.532  0.00  0.00    +0.000 C 
ATOM     29  H   UNL     1     -18.773 -13.886   2.887  0.00  0.00    +0.000 HD
ATOM     30  H   UNL     1     -19.553 -12.325   2.863  0.00  0.00    +0.000 HD
ATOM     31  H   UNL     1     -20.158 -13.545   3.952  0.00  0.00    +0.000 HD
ENDBRANCH  22  28
ENDBRANCH   1  22
TORSDOF 5
ENDMDL
MODEL 3
REMARK VINA RESULT:    -4.362     29.492     30.486
REMARK INTER + INTRA:          -5.195
REMARK INTER:                  -5.002
REMARK INTRA:                  -0.193
REMARK UNBOUND:                -0.067
REMARK  Name = 16666
REMARK  5 active torsions:
REMARK  status: ('A' for Active; 'I' for Inactive)
REMARK    1  A    between atoms: O_1  and  C_3
REMARK    2  A    between atoms: C_2  and  C_8
REMARK    3  A    between atoms: C_5  and  C_9
REMARK    4  A    between atoms: C_8  and  C_10
REMARK    5  A    between atoms: C_8  and  C_11
REMARK                            x       y       z     vdW  Elec       q    Type
REMARK                         _______ _______ _______ _____ _____    ______ ____
ROOT
ATOM      1  C   UNL     1      -1.989  -8.912  20.734  0.00  0.00    +0.000 C 
ATOM      2  C   UNL     1      -2.466  -9.794  19.568  0.00  0.00    +0.000 C 
ATOM      3  C   UNL     1      -0.560  -9.286  21.152  0.00  0.00    +0.000 C 
ATOM      4  C   UNL     1      -0.899 -11.648  20.307  0.00  0.00    +0.000 C 
ATOM      5  C   UNL     1      -2.328 -11.283  19.895  0.00  0.00    +0.000 C 
ATOM      6  C   UNL     1      -0.433 -10.772  21.477  0.00  0.00    +0.000 C 
ATOM      7  H   UNL     1      -2.659  -9.087  21.588  0.00  0.00    +0.000 HD
ATOM      8  H   UNL     1      -1.899  -9.609  18.652  0.00  0.00    +0.000 HD
ATOM      9  H   UNL     1      -0.248  -8.727  22.040  0.00  0.00    +0.000 HD
ATOM     10  H   UNL     1       0.164  -9.069  20.360  0.00  0.00    +0.000 HD
ATOM     11  H   UNL     1      -0.234 -11.468  19.452  0.00  0.00    +0.000 HD
ATOM     12  H   UNL     1      -2.636 -11.875  19.023  0.00  0.00    +0.000 HD
ATOM     13  H   UNL     1      -3.033 -11.551  20.694  0.00  0.00    +0.000 HD
ATOM     14  H   UNL     1       0.611 -11.001  21.722  0.00  0.00    +0.000 HD
ATOM     15  H   UNL     1      -1.025 -10.997  22.373  0.00  0.00    +0.000 HD
ENDROOT
BRANCH   4  16
ATOM     16  C   UNL     1      -0.803 -13.129  20.671  0.00  0.00    +0.000 C 
ATOM     17  H   UNL     1      -0.879 -13.268  21.754  0.00  0.00    +0.000 HD
ATOM     18  H   UNL     1      -1.615 -13.696  20.202  0.00  0.00    +0.000 HD
ATOM     19  H   UNL     1       0.147 -13.560  20.339  0.00  0.00    +0.000 HD
ENDBRANCH   4  16
BRANCH   2  20
ATOM     20  O   UNL     1      -3.835  -9.509  19.290  0.00  0.00    +0.000 OA
ATOM     21  H   UNL     1      -4.325 -10.350  19.301  0.00  0.00    +0.000 HD
ENDBRANCH   2  20
BRANCH   1  22
ATOM     22  C   UNL     1      -2.067  -7.425  20.377  0.00  0.00    +0.000 C 
ATOM     23  H   UNL     1      -2.549  -7.314  19.398  0.00  0.00    +0.000 HD
BRANCH  22  24
ATOM     24  C   UNL     1      -2.922  -6.677  21.397  0.00  0.00    +0.000 C 
ATOM     25  H   UNL     1      -3.254  -5.699  21.036  0.00  0.00    +0.000 HD
ATOM     26  H   UNL     1      -3.827  -7.255  21.618  0.00  0.00    +0.000 HD
ATOM     27  H   UNL     1      -2.386  -6.538  22.341  0.00  0.00    +0.000 HD
ENDBRANCH  22  24
BRANCH  22  28
ATOM     28  C   UNL     1      -0.668  -6.821  20.300  0.00  0.00    +0.000 C 
ATOM     29  H   UNL     1       0.012  -7.186  21.074  0.00  0.00    +0.000 HD
ATOM     30  H   UNL     1      -0.741  -5.738  20.457  0.00  0.00    +0.000 HD
ATOM     31  H   UNL     1      -0.195  -6.944  19.323  0.00  0.00    +0.000 HD
ENDBRANCH  22  28
ENDBRANCH   1  22
TORSDOF 5
ENDMDL
MODEL 4
REMARK VINA RESULT:    -4.351      2.326      3.383
REMARK INTER + INTRA:          -5.181
REMARK INTER:                  -5.063
REMARK INTRA:                  -0.118
REMARK UNBOUND:                -0.067
REMARK  Name = 16666
REMARK  5 active torsions:
REMARK  status: ('A' for Active; 'I' for Inactive)
REMARK    1  A    between atoms: O_1  and  C_3
REMARK    2  A    between atoms: C_2  and  C_8
REMARK    3  A    between atoms: C_5  and  C_9
REMARK    4  A    between atoms: C_8  and  C_10
REMARK    5  A    between atoms: C_8  and  C_11
REMARK                            x       y       z     vdW  Elec       q    Type
REMARK                         _______ _______ _______ _____ _____    ______ ____
ROOT
ATOM      1  C   UNL     1      -1.046 -15.935 -11.027  0.00  0.00    +0.000 C 
ATOM      2  C   UNL     1      -1.345 -14.552 -11.628  0.00  0.00    +0.000 C 
ATOM      3  C   UNL     1      -1.674 -16.072  -9.633  0.00  0.00    +0.000 C 
ATOM      4  C   UNL     1      -1.550 -13.566  -9.298  0.00  0.00    +0.000 C 
ATOM      5  C   UNL     1      -0.917 -13.423 -10.686  0.00  0.00    +0.000 C 
ATOM      6  C   UNL     1      -1.240 -14.944  -8.700  0.00  0.00    +0.000 C 
ATOM      7  H   UNL     1       0.044 -16.035 -10.929  0.00  0.00    +0.000 HD
ATOM      8  H   UNL     1      -2.409 -14.414 -11.836  0.00  0.00    +0.000 HD
ATOM      9  H   UNL     1      -1.388 -17.017  -9.161  0.00  0.00    +0.000 HD
ATOM     10  H   UNL     1      -2.767 -16.047  -9.676  0.00  0.00    +0.000 HD
ATOM     11  H   UNL     1      -2.639 -13.470  -9.402  0.00  0.00    +0.000 HD
ATOM     12  H   UNL     1      -1.187 -12.458 -11.131  0.00  0.00    +0.000 HD
ATOM     13  H   UNL     1       0.178 -13.411 -10.602  0.00  0.00    +0.000 HD
ATOM     14  H   UNL     1      -1.749 -15.055  -7.736  0.00  0.00    +0.000 HD
ATOM     15  H   UNL     1      -0.164 -15.033  -8.503  0.00  0.00    +0.000 HD
ENDROOT
BRANCH   4  16
ATOM     16  C   UNL     1      -1.068 -12.453  -8.368  0.00  0.00    +0.000 C 
ATOM     17  H   UNL     1      -0.515 -11.692  -8.928  0.00  0.00    +0.000 HD
ATOM     18  H   UNL     1      -1.917 -11.961  -7.881  0.00  0.00    +0.000 HD
ATOM     19  H   UNL     1      -0.410 -12.845  -7.586  0.00  0.00    +0.000 HD
ENDBRANCH   4  16
BRANCH   2  20
ATOM     20  O   UNL     1      -0.645 -14.411 -12.861  0.00  0.00    +0.000 OA
ATOM     21  H   UNL     1       0.231 -14.034 -12.668  0.00  0.00    +0.000 HD
ENDBRANCH   2  20
BRANCH   1  22
ATOM     22  C   UNL     1      -1.536 -17.059 -11.943  0.00  0.00    +0.000 C 
ATOM     23  H   UNL     1      -2.178 -16.634 -12.725  0.00  0.00    +0.000 HD
BRANCH  22  24
ATOM     24  C   UNL     1      -0.356 -17.735 -12.636  0.00  0.00    +0.000 C 
ATOM     25  H   UNL     1      -0.446 -18.825 -12.662  0.00  0.00    +0.000 HD
ATOM     26  H   UNL     1      -0.294 -17.399 -13.677  0.00  0.00    +0.000 HD
ATOM     27  H   UNL     1       0.592 -17.474 -12.153  0.00  0.00    +0.000 HD
ENDBRANCH  22  24
BRANCH  22  28
ATOM     28  C   UNL     1      -2.350 -18.077 -11.150  0.00  0.00    +0.000 C 
ATOM     29  H   UNL     1      -2.896 -18.788 -11.776  0.00  0.00    +0.000 HD
ATOM     30  H   UNL     1      -3.116 -17.544 -10.571  0.00  0.00    +0.000 HD
ATOM     31  H   UNL     1      -1.760 -18.629 -10.415  0.00  0.00    +0.000 HD
ENDBRANCH  22  28
ENDBRANCH   1  22
TORSDOF 5
ENDMDL
MODEL 5
REMARK VINA RESULT:    -4.334     23.371     26.368
REMARK INTER + INTRA:          -5.161
REMARK INTER:                  -4.970
REMARK INTRA:                  -0.191
REMARK UNBOUND:                -0.067
REMARK  Name = 16666
REMARK  5 active torsions:
REMARK  status: ('A' for Active; 'I' for Inactive)
REMARK    1  A    between atoms: O_1  and  C_3
REMARK    2  A    between atoms: C_2  and  C_8
REMARK    3  A    between atoms: C_5  and  C_9
REMARK    4  A    between atoms: C_8  and  C_10
REMARK    5  A    between atoms: C_8  and  C_11
REMARK                            x       y       z     vdW  Elec       q    Type
REMARK                         _______ _______ _______ _____ _____    ______ ____
ROOT
ATOM      1  C   UNL     1       3.775  -4.232  14.641  0.00  0.00    +0.000 C 
ATOM      2  C   UNL     1       4.863  -3.334  14.030  0.00  0.00    +0.000 C 
ATOM      3  C   UNL     1       3.981  -5.697  14.231  0.00  0.00    +0.000 C 
ATOM      4  C   UNL     1       5.156  -4.968  12.110  0.00  0.00    +0.000 C 
ATOM      5  C   UNL     1       4.946  -3.505  12.510  0.00  0.00    +0.000 C 
ATOM      6  C   UNL     1       4.061  -5.857  12.715  0.00  0.00    +0.000 C 
ATOM      7  H   UNL     1       2.801  -3.897  14.256  0.00  0.00    +0.000 HD
ATOM      8  H   UNL     1       5.854  -3.553  14.435  0.00  0.00    +0.000 HD
ATOM      9  H   UNL     1       3.160  -6.327  14.585  0.00  0.00    +0.000 HD
ATOM     10  H   UNL     1       4.908  -6.107  14.645  0.00  0.00    +0.000 HD
ATOM     11  H   UNL     1       6.127  -5.299  12.500  0.00  0.00    +0.000 HD
ATOM     12  H   UNL     1       5.761  -2.882  12.120  0.00  0.00    +0.000 HD
ATOM     13  H   UNL     1       4.031  -3.113  12.046  0.00  0.00    +0.000 HD
ATOM     14  H   UNL     1       4.258  -6.908  12.472  0.00  0.00    +0.000 HD
ATOM     15  H   UNL     1       3.089  -5.606  12.274  0.00  0.00    +0.000 HD
ENDROOT
BRANCH   4  16
ATOM     16  C   UNL     1       5.189  -5.113  10.589  0.00  0.00    +0.000 C 
ATOM     17  H   UNL     1       5.990  -4.503  10.159  0.00  0.00    +0.000 HD
ATOM     18  H   UNL     1       5.368  -6.154  10.303  0.00  0.00    +0.000 HD
ATOM     19  H   UNL     1       4.242  -4.796  10.138  0.00  0.00    +0.000 HD
ENDBRANCH   4  16
BRANCH   2  20
ATOM     20  O   UNL     1       4.570  -1.970  14.323  0.00  0.00    +0.000 OA
ATOM     21  H   UNL     1       5.415  -1.495  14.416  0.00  0.00    +0.000 HD
ENDBRANCH   2  20
BRANCH   1  22
ATOM     22  C   UNL     1       3.740  -4.107  16.166  0.00  0.00    +0.000 C 
ATOM     23  H   UNL     1       4.465  -3.346  16.483  0.00  0.00    +0.000 HD
BRANCH  22  24
ATOM     24  C   UNL     1       2.361  -3.648  16.632  0.00  0.00    +0.000 C 
ATOM     25  H   UNL     1       1.929  -2.877  15.986  0.00  0.00    +0.000 HD
ATOM     26  H   UNL     1       1.665  -4.494  16.620  0.00  0.00    +0.000 HD
ATOM     27  H   UNL     1       2.393  -3.267  17.658  0.00  0.00    +0.000 HD
ENDBRANCH  22  24
BRANCH  22  28
ATOM     28  C   UNL     1       4.116  -5.434  16.819  0.00  0.00    +0.000 C 
ATOM     29  H   UNL     1       4.407  -6.208  16.105  0.00  0.00    +0.000 HD
ATOM     30  H   UNL     1       3.238  -5.831  17.344  0.00  0.00    +0.000 HD
ATOM     31  H   UNL     1       4.894  -5.339  17.580  0.00  0.00    +0.000 HD
ENDBRANCH  22  28
ENDBRANCH   1  22
TORSDOF 5
ENDMDL
MODEL 6
REMARK VINA RESULT:    -4.232     23.170     25.643
REMARK INTER + INTRA:          -5.042
REMARK INTER:                  -4.862
REMARK INTRA:                  -0.181
REMARK UNBOUND:                -0.067
REMARK  Name = 16666
REMARK  5 active torsions:
REMARK  status: ('A' for Active; 'I' for Inactive)
REMARK    1  A    between atoms: O_1  and  C_3
REMARK    2  A    between atoms: C_2  and  C_8
REMARK    3  A    between atoms: C_5  and  C_9
REMARK    4  A    between atoms: C_8  and  C_10
REMARK    5  A    between atoms: C_8  and  C_11
REMARK                            x       y       z     vdW  Elec       q    Type
REMARK                         _______ _______ _______ _____ _____    ______ ____
ROOT
ATOM      1  C   UNL     1       5.297  -4.415  12.913  0.00  0.00    +0.000 C 
ATOM      2  C   UNL     1       4.830  -3.020  13.360  0.00  0.00    +0.000 C 
ATOM      3  C   UNL     1       4.221  -5.470  13.204  0.00  0.00    +0.000 C 
ATOM      4  C   UNL     1       3.319  -4.068  15.109  0.00  0.00    +0.000 C 
ATOM      5  C   UNL     1       4.395  -3.015  14.828  0.00  0.00    +0.000 C 
ATOM      6  C   UNL     1       3.795  -5.458  14.670  0.00  0.00    +0.000 C 
ATOM      7  H   UNL     1       6.200  -4.671  13.486  0.00  0.00    +0.000 HD
ATOM      8  H   UNL     1       3.984  -2.659  12.770  0.00  0.00    +0.000 HD
ATOM      9  H   UNL     1       4.581  -6.478  12.974  0.00  0.00    +0.000 HD
ATOM     10  H   UNL     1       3.319  -5.304  12.608  0.00  0.00    +0.000 HD
ATOM     11  H   UNL     1       2.422  -3.810  14.531  0.00  0.00    +0.000 HD
ATOM     12  H   UNL     1       4.029  -2.015  15.093  0.00  0.00    +0.000 HD
ATOM     13  H   UNL     1       5.269  -3.186  15.470  0.00  0.00    +0.000 HD
ATOM     14  H   UNL     1       2.994  -6.191  14.820  0.00  0.00    +0.000 HD
ATOM     15  H   UNL     1       4.639  -5.779  15.293  0.00  0.00    +0.000 HD
ENDROOT
BRANCH   4  16
ATOM     16  C   UNL     1       2.939  -4.070  16.589  0.00  0.00    +0.000 C 
ATOM     17  H   UNL     1       2.067  -3.432  16.766  0.00  0.00    +0.000 HD
ATOM     18  H   UNL     1       2.689  -5.082  16.923  0.00  0.00    +0.000 HD
ATOM     19  H   UNL     1       3.761  -3.701  17.212  0.00  0.00    +0.000 HD
ENDBRANCH   4  16
BRANCH   2  20
ATOM     20  O   UNL     1       5.897  -2.089  13.193  0.00  0.00    +0.000 OA
ATOM     21  H   UNL     1       6.725  -2.593  13.113  0.00  0.00    +0.000 HD
ENDBRANCH   2  20
BRANCH   1  22
ATOM     22  C   UNL     1       5.668  -4.430  11.428  0.00  0.00    +0.000 C 
ATOM     23  H   UNL     1       5.483  -3.437  10.999  0.00  0.00    +0.000 HD
BRANCH  22  24
ATOM     24  C   UNL     1       7.153  -4.735  11.253  0.00  0.00    +0.000 C 
ATOM     25  H   UNL     1       7.381  -5.200  10.289  0.00  0.00    +0.000 HD
ATOM     26  H   UNL     1       7.732  -3.805  11.297  0.00  0.00    +0.000 HD
ATOM     27  H   UNL     1       7.523  -5.387  12.051  0.00  0.00    +0.000 HD
ENDBRANCH  22  24
BRANCH  22  28
ATOM     28  C   UNL     1       4.816  -5.448  10.675  0.00  0.00    +0.000 C 
ATOM     29  H   UNL     1       4.676  -5.208   9.618  0.00  0.00    +0.000 HD
ATOM     30  H   UNL     1       3.809  -5.457  11.112  0.00  0.00    +0.000 HD
ATOM     31  H   UNL     1       5.183  -6.473  10.764  0.00  0.00    +0.000 HD
ENDBRANCH  22  28
ENDBRANCH   1  22
TORSDOF 5
ENDMDL
MODEL 7
REMARK VINA RESULT:    -4.213     19.097     20.548
REMARK INTER + INTRA:          -5.020
REMARK INTER:                  -4.874
REMARK INTRA:                  -0.146
REMARK UNBOUND:                -0.067
REMARK  Name = 16666
REMARK  5 active torsions:
REMARK  status: ('A' for Active; 'I' for Inactive)
REMARK    1  A    between atoms: O_1  and  C_3
REMARK    2  A    between atoms: C_2  and  C_8
REMARK    3  A    between atoms: C_5  and  C_9
REMARK    4  A    between atoms: C_8  and  C_10
REMARK    5  A    between atoms: C_8  and  C_11
REMARK                            x       y       z     vdW  Elec       q    Type
REMARK                         _______ _______ _______ _____ _____    ______ ____
ROOT
ATOM      1  C   UNL     1     -17.496 -10.338   1.683  0.00  0.00    +0.000 C 
ATOM      2  C   UNL     1     -16.992 -11.738   2.070  0.00  0.00    +0.000 C 
ATOM      3  C   UNL     1     -17.559  -9.421   2.912  0.00  0.00    +0.000 C 
ATOM      4  C   UNL     1     -17.880 -11.424   4.426  0.00  0.00    +0.000 C 
ATOM      5  C   UNL     1     -17.826 -12.343   3.203  0.00  0.00    +0.000 C 
ATOM      6  C   UNL     1     -18.393 -10.032   4.035  0.00  0.00    +0.000 C 
ATOM      7  H   UNL     1     -18.512 -10.443   1.274  0.00  0.00    +0.000 HD
ATOM      8  H   UNL     1     -15.952 -11.724   2.404  0.00  0.00    +0.000 HD
ATOM      9  H   UNL     1     -18.004  -8.452   2.662  0.00  0.00    +0.000 HD
ATOM     10  H   UNL     1     -16.564  -9.225   3.323  0.00  0.00    +0.000 HD
ATOM     11  H   UNL     1     -16.864 -11.319   4.828  0.00  0.00    +0.000 HD
ATOM     12  H   UNL     1     -17.407 -13.320   3.477  0.00  0.00    +0.000 HD
ATOM     13  H   UNL     1     -18.841 -12.552   2.840  0.00  0.00    +0.000 HD
ATOM     14  H   UNL     1     -18.370  -9.368   4.907  0.00  0.00    +0.000 HD
ATOM     15  H   UNL     1     -19.440 -10.096   3.713  0.00  0.00    +0.000 HD
ENDROOT
BRANCH   4  16
ATOM     16  C   UNL     1     -18.755 -12.034   5.521  0.00  0.00    +0.000 C 
ATOM     17  H   UNL     1     -19.019 -13.068   5.275  0.00  0.00    +0.000 HD
ATOM     18  H   UNL     1     -18.227 -12.040   6.480  0.00  0.00    +0.000 HD
ATOM     19  H   UNL     1     -19.684 -11.468   5.650  0.00  0.00    +0.000 HD
ENDBRANCH   4  16
BRANCH   2  20
ATOM     20  O   UNL     1     -17.066 -12.597   0.935  0.00  0.00    +0.000 OA
ATOM     21  H   UNL     1     -16.867 -12.067   0.143  0.00  0.00    +0.000 HD
ENDBRANCH   2  20
BRANCH   1  22
ATOM     22  C   UNL     1     -16.620  -9.710   0.596  0.00  0.00    +0.000 C 
ATOM     23  H   UNL     1     -15.734 -10.338   0.439  0.00  0.00    +0.000 HD
BRANCH  22  24
ATOM     24  C   UNL     1     -17.377  -9.645  -0.728  0.00  0.00    +0.000 C 
ATOM     25  H   UNL     1     -18.049 -10.496  -0.875  0.00  0.00    +0.000 HD
ATOM     26  H   UNL     1     -18.001  -8.744  -0.756  0.00  0.00    +0.000 HD
ATOM     27  H   UNL     1     -16.690  -9.592  -1.579  0.00  0.00    +0.000 HD
ENDBRANCH  22  24
BRANCH  22  28
ATOM     28  C   UNL     1     -16.157  -8.319   1.021  0.00  0.00    +0.000 C 
ATOM     29  H   UNL     1     -16.436  -7.529   0.319  0.00  0.00    +0.000 HD
ATOM     30  H   UNL     1     -15.061  -8.307   1.058  0.00  0.00    +0.000 HD
ATOM     31  H   UNL     1     -16.488  -8.039   2.024  0.00  0.00    +0.000 HD
ENDBRANCH  22  28
ENDBRANCH   1  22
TORSDOF 5
ENDMDL
MODEL 8
REMARK VINA RESULT:    -4.180     26.540     27.580
REMARK INTER + INTRA:          -4.981
REMARK INTER:                  -4.914
REMARK INTRA:                  -0.067
REMARK UNBOUND:                -0.067
REMARK  Name = 16666
REMARK  5 active torsions:
REMARK  status: ('A' for Active; 'I' for Inactive)
REMARK    1  A    between atoms: O_1  and  C_3
REMARK    2  A    between atoms: C_2  and  C_8
REMARK    3  A    between atoms: C_5  and  C_9
REMARK    4  A    between atoms: C_8  and  C_10
REMARK    5  A    between atoms: C_8  and  C_11
REMARK                            x       y       z     vdW  Elec       q    Type
REMARK                         _______ _______ _______ _____ _____    ______ ____
ROOT
ATOM      1  C   UNL     1       3.972  13.137 -12.131  0.00  0.00    +0.000 C 
ATOM      2  C   UNL     1       3.470  12.310 -10.935  0.00  0.00    +0.000 C 
ATOM      3  C   UNL     1       5.033  14.152 -11.685  0.00  0.00    +0.000 C 
ATOM      4  C   UNL     1       4.038  14.215  -9.358  0.00  0.00    +0.000 C 
ATOM      5  C   UNL     1       2.973  13.208  -9.799  0.00  0.00    +0.000 C 
ATOM      6  C   UNL     1       4.528  15.043 -10.553  0.00  0.00    +0.000 C 
ATOM      7  H   UNL     1       3.116  13.687 -12.547  0.00  0.00    +0.000 HD
ATOM      8  H   UNL     1       4.251  11.667 -10.522  0.00  0.00    +0.000 HD
ATOM      9  H   UNL     1       5.328  14.806 -12.512  0.00  0.00    +0.000 HD
ATOM     10  H   UNL     1       5.940  13.659 -11.322  0.00  0.00    +0.000 HD
ATOM     11  H   UNL     1       4.893  13.661  -8.948  0.00  0.00    +0.000 HD
ATOM     12  H   UNL     1       2.666  12.582  -8.952  0.00  0.00    +0.000 HD
ATOM     13  H   UNL     1       2.063  13.734 -10.118  0.00  0.00    +0.000 HD
ATOM     14  H   UNL     1       5.332  15.717 -10.236  0.00  0.00    +0.000 HD
ATOM     15  H   UNL     1       3.714  15.676 -10.928  0.00  0.00    +0.000 HD
ENDROOT
BRANCH   4  16
ATOM     16  C   UNL     1       3.498  15.126  -8.256  0.00  0.00    +0.000 C 
ATOM     17  H   UNL     1       4.166  15.123  -7.388  0.00  0.00    +0.000 HD
ATOM     18  H   UNL     1       3.415  16.158  -8.613  0.00  0.00    +0.000 HD
ATOM     19  H   UNL     1       2.506  14.802  -7.923  0.00  0.00    +0.000 HD
ENDBRANCH   4  16
BRANCH   2  20
ATOM     20  O   UNL     1       2.400  11.469 -11.359  0.00  0.00    +0.000 OA
ATOM     21  H   UNL     1       1.647  12.038 -11.597  0.00  0.00    +0.000 HD
ENDBRANCH   2  20
BRANCH   1  22
ATOM     22  C   UNL     1       4.529  12.237 -13.237  0.00  0.00    +0.000 C 
ATOM     23  H   UNL     1       4.726  11.239 -12.826  0.00  0.00    +0.000 HD
BRANCH  22  24
ATOM     24  C   UNL     1       3.507  12.077 -14.359  0.00  0.00    +0.000 C 
ATOM     25  H   UNL     1       3.584  11.113 -14.869  0.00  0.00    +0.000 HD
ATOM     26  H   UNL     1       2.492  12.136 -13.948  0.00  0.00    +0.000 HD
ATOM     27  H   UNL     1       3.603  12.875 -15.103  0.00  0.00    +0.000 HD
ENDBRANCH  22  24
BRANCH  22  28
ATOM     28  C   UNL     1       5.839  12.804 -13.777  0.00  0.00    +0.000 C 
ATOM     29  H   UNL     1       6.038  12.536 -14.818  0.00  0.00    +0.000 HD
ATOM     30  H   UNL     1       6.672  12.383 -13.199  0.00  0.00    +0.000 HD
ATOM     31  H   UNL     1       5.923  13.887 -13.664  0.00  0.00    +0.000 HD
ENDBRANCH  22  28
ENDBRANCH   1  22
TORSDOF 5
ENDMDL
MODEL 9
REMARK VINA RESULT:    -4.118     34.906     35.964
REMARK INTER + INTRA:          -4.907
REMARK INTER:                  -4.699
REMARK INTRA:                  -0.208
REMARK UNBOUND:                -0.067
REMARK  Name = 16666
REMARK  5 active torsions:
REMARK  status: ('A' for Active; 'I' for Inactive)
REMARK    1  A    between atoms: O_1  and  C_3
REMARK    2  A    between atoms: C_2  and  C_8
REMARK    3  A    between atoms: C_5  and  C_9
REMARK    4  A    between atoms: C_8  and  C_10
REMARK    5  A    between atoms: C_8  and  C_11
REMARK                            x       y       z     vdW  Elec       q    Type
REMARK                         _______ _______ _______ _____ _____    ______ ____
ROOT
ATOM      1  C   UNL     1     -27.125  -4.633  12.988  0.00  0.00    +0.000 C 
ATOM      2  C   UNL     1     -25.916  -3.693  12.848  0.00  0.00    +0.000 C 
ATOM      3  C   UNL     1     -27.897  -4.343  14.282  0.00  0.00    +0.000 C 
ATOM      4  C   UNL     1     -25.792  -3.452  15.372  0.00  0.00    +0.000 C 
ATOM      5  C   UNL     1     -25.015  -3.746  14.086  0.00  0.00    +0.000 C 
ATOM      6  C   UNL     1     -26.991  -4.400  15.510  0.00  0.00    +0.000 C 
ATOM      7  H   UNL     1     -26.749  -5.666  13.031  0.00  0.00    +0.000 HD
ATOM      8  H   UNL     1     -26.218  -2.652  12.712  0.00  0.00    +0.000 HD
ATOM      9  H   UNL     1     -28.703  -5.067  14.434  0.00  0.00    +0.000 HD
ATOM     10  H   UNL     1     -28.352  -3.348  14.268  0.00  0.00    +0.000 HD
ATOM     11  H   UNL     1     -26.169  -2.421  15.322  0.00  0.00    +0.000 HD
ATOM     12  H   UNL     1     -24.192  -3.031  13.964  0.00  0.00    +0.000 HD
ATOM     13  H   UNL     1     -24.538  -4.733  14.149  0.00  0.00    +0.000 HD
ATOM     14  H   UNL     1     -27.572  -4.138  16.401  0.00  0.00    +0.000 HD
ATOM     15  H   UNL     1     -26.639  -5.429  15.651  0.00  0.00    +0.000 HD
ENDROOT
BRANCH   4  16
ATOM     16  C   UNL     1     -24.878  -3.557  16.591  0.00  0.00    +0.000 C 
ATOM     17  H   UNL     1     -24.447  -4.561  16.668  0.00  0.00    +0.000 HD
ATOM     18  H   UNL     1     -24.052  -2.842  16.519  0.00  0.00    +0.000 HD
ATOM     19  H   UNL     1     -25.424  -3.351  17.518  0.00  0.00    +0.000 HD
ENDBRANCH   4  16
BRANCH   2  20
ATOM     20  O   UNL     1     -25.152  -4.072  11.707  0.00  0.00    +0.000 OA
ATOM     21  H   UNL     1     -25.733  -4.575  11.109  0.00  0.00    +0.000 HD
ENDBRANCH   2  20
BRANCH   1  22
ATOM     22  C   UNL     1     -28.057  -4.528  11.778  0.00  0.00    +0.000 C 
ATOM     23  H   UNL     1     -27.454  -4.465  10.862  0.00  0.00    +0.000 HD
BRANCH  22  24
ATOM     24  C   UNL     1     -28.930  -5.774  11.668  0.00  0.00    +0.000 C 
ATOM     25  H   UNL     1     -28.861  -6.256  10.688  0.00  0.00    +0.000 HD
ATOM     26  H   UNL     1     -28.611  -6.518  12.407  0.00  0.00    +0.000 HD
ATOM     27  H   UNL     1     -29.982  -5.544  11.870  0.00  0.00    +0.000 HD
ENDBRANCH  22  24
BRANCH  22  28
ATOM     28  C   UNL     1     -28.918  -3.272  11.876  0.00  0.00    +0.000 C 
ATOM     29  H   UNL     1     -29.904  -3.448  12.313  0.00  0.00    +0.000 HD
ATOM     30  H   UNL     1     -29.106  -2.892  10.864  0.00  0.00    +0.000 HD
ATOM     31  H   UNL     1     -28.432  -2.452  12.411  0.00  0.00    +0.000 HD
ENDBRANCH  22  28
ENDBRANCH   1  22
TORSDOF 5
ENDMDL
MODEL 10
REMARK VINA RESULT:    -4.075     16.978     18.785
REMARK INTER + INTRA:          -4.857
REMARK INTER:                  -4.662
REMARK INTRA:                  -0.195
REMARK UNBOUND:                -0.067
REMARK  Name = 16666
REMARK  5 active torsions:
REMARK  status: ('A' for Active; 'I' for Inactive)
REMARK    1  A    between atoms: O_1  and  C_3
REMARK    2  A    between atoms: C_2  and  C_8
REMARK    3  A    between atoms: C_5  and  C_9
REMARK    4  A    between atoms: C_8  and  C_10
REMARK    5  A    between atoms: C_8  and  C_11
REMARK                            x       y       z     vdW  Elec       q    Type
REMARK                         _______ _______ _______ _____ _____    ______ ____
ROOT
ATOM      1  C   UNL     1     -16.492 -10.483  -0.359  0.00  0.00    +0.000 C 
ATOM      2  C   UNL     1     -17.311 -11.414   0.550  0.00  0.00    +0.000 C 
ATOM      3  C   UNL     1     -15.517  -9.633   0.468  0.00  0.00    +0.000 C 
ATOM      4  C   UNL     1     -17.039  -9.794   2.484  0.00  0.00    +0.000 C 
ATOM      5  C   UNL     1     -18.020 -10.636   1.663  0.00  0.00    +0.000 C 
ATOM      6  C   UNL     1     -16.233  -8.860   1.573  0.00  0.00    +0.000 C 
ATOM      7  H   UNL     1     -17.192  -9.808  -0.873  0.00  0.00    +0.000 HD
ATOM      8  H   UNL     1     -16.689 -12.173   1.031  0.00  0.00    +0.000 HD
ATOM      9  H   UNL     1     -14.997  -8.903  -0.160  0.00  0.00    +0.000 HD
ATOM     10  H   UNL     1     -14.753 -10.248   0.952  0.00  0.00    +0.000 HD
ATOM     11  H   UNL     1     -16.341 -10.471   2.993  0.00  0.00    +0.000 HD
ATOM     12  H   UNL     1     -18.555 -11.341   2.312  0.00  0.00    +0.000 HD
ATOM     13  H   UNL     1     -18.796  -9.994   1.225  0.00  0.00    +0.000 HD
ATOM     14  H   UNL     1     -15.494  -8.308   2.166  0.00  0.00    +0.000 HD
ATOM     15  H   UNL     1     -16.897  -8.114   1.120  0.00  0.00    +0.000 HD
ENDROOT
BRANCH   4  16
ATOM     16  C   UNL     1     -17.780  -8.995   3.555  0.00  0.00    +0.000 C 
ATOM     17  H   UNL     1     -17.270  -9.074   4.521  0.00  0.00    +0.000 HD
ATOM     18  H   UNL     1     -17.826  -7.935   3.286  0.00  0.00    +0.000 HD
ATOM     19  H   UNL     1     -18.806  -9.356   3.684  0.00  0.00    +0.000 HD
ENDBRANCH   4  16
BRANCH   2  20
ATOM     20  O   UNL     1     -18.291 -12.094  -0.231  0.00  0.00    +0.000 OA
ATOM     21  H   UNL     1     -18.069 -13.042  -0.233  0.00  0.00    +0.000 HD
ENDBRANCH   2  20
BRANCH   1  22
ATOM     22  C   UNL     1     -15.734 -11.272  -1.429  0.00  0.00    +0.000 C 
ATOM     23  H   UNL     1     -16.111 -12.303  -1.453  0.00  0.00    +0.000 HD
BRANCH  22  24
ATOM     24  C   UNL     1     -15.972 -10.665  -2.808  0.00  0.00    +0.000 C 
ATOM     25  H   UNL     1     -15.230 -10.983  -3.547  0.00  0.00    +0.000 HD
ATOM     26  H   UNL     1     -16.950 -10.980  -3.189  0.00  0.00    +0.000 HD
ATOM     27  H   UNL     1     -15.976  -9.570  -2.767  0.00  0.00    +0.000 HD
ENDBRANCH  22  24
BRANCH  22  28
ATOM     28  C   UNL     1     -14.243 -11.311  -1.106  0.00  0.00    +0.000 C 
ATOM     29  H   UNL     1     -13.687 -10.452  -1.492  0.00  0.00    +0.000 HD
ATOM     30  H   UNL     1     -13.799 -12.191  -1.589  0.00  0.00    +0.000 HD
ATOM     31  H   UNL     1     -14.031 -11.424  -0.041  0.00  0.00    +0.000 HD
ENDBRANCH  22  28
ENDBRANCH   1  22
TORSDOF 5
ENDMDL
