MODEL 1
REMARK VINA RESULT:    -5.580      0.000      0.000
REMARK INTER + INTRA:          -6.731
REMARK INTER:                  -6.437
REMARK INTRA:                  -0.294
REMARK UNBOUND:                -0.173
REMARK  Name = 4133
REMARK  4 active torsions:
REMARK  status: ('A' for Active; 'I' for Inactive)
REMARK    1  A    between atoms: O_1  and  C_10
REMARK    2  A    between atoms: O_1  and  C_11
REMARK    3  A    between atoms: O_2  and  C_5
REMARK    4  A    between atoms: C_4  and  C_10
REMARK                            x       y       z     vdW  Elec       q    Type
REMARK                         _______ _______ _______ _____ _____    ______ ____
ROOT
ATOM      1  C   UNL     1      12.995   6.500  -4.027  0.00  0.00    +0.000 A 
ATOM      2  C   UNL     1      14.005   6.858  -4.918  0.00  0.00    +0.000 A 
ATOM      3  C   UNL     1      12.719   5.153  -3.790  0.00  0.00    +0.000 A 
ATOM      4  C   UNL     1      14.740   5.870  -5.574  0.00  0.00    +0.000 A 
ATOM      5  C   UNL     1      13.453   4.165  -4.445  0.00  0.00    +0.000 A 
ATOM      6  C   UNL     1      14.463   4.523  -5.337  0.00  0.00    +0.000 A 
ATOM      7  H   UNL     1      11.948   4.841  -3.090  0.00  0.00    +0.000 HD
ATOM      8  H   UNL     1      15.529   6.135  -6.272  0.00  0.00    +0.000 HD
ATOM      9  H   UNL     1      13.240   3.116  -4.259  0.00  0.00    +0.000 HD
ATOM     10  H   UNL     1      15.036   3.753  -5.847  0.00  0.00    +0.000 HD
ENDROOT
BRANCH   2  11
ATOM     11  O   UNL     1      14.290   8.168  -5.165  0.00  0.00    +0.000 OA
ATOM     12  H   UNL     1      15.127   8.225  -5.656  0.00  0.00    +0.000 HD
ENDBRANCH   2  11
BRANCH   1  14
ATOM     13  O   UNL     1      11.788   8.549  -3.858  0.00  0.00    +0.000 OA
ATOM     14  C   UNL     1      12.217   7.516  -3.332  0.00  0.00    +0.000 C 
BRANCH  14  15
ATOM     15  O   UNL     1      12.017   7.183  -2.020  0.00  0.00    +0.000 OA
BRANCH  15  16
ATOM     16  C   UNL     1      11.351   8.152  -1.203  0.00  0.00    +0.000 C 
ATOM     17  H   UNL     1      10.462   8.532  -1.717  0.00  0.00    +0.000 HD
ATOM     18  H   UNL     1      12.034   8.970  -0.956  0.00  0.00    +0.000 HD
ATOM     19  H   UNL     1      11.040   7.661  -0.278  0.00  0.00    +0.000 HD
ENDBRANCH  15  16
ENDBRANCH  14  15
ENDBRANCH   1  14
TORSDOF 4
ENDMDL
MODEL 2
REMARK VINA RESULT:    -5.410      1.870      3.982
REMARK INTER + INTRA:          -6.532
REMARK INTER:                  -6.203
REMARK INTRA:                  -0.329
REMARK UNBOUND:                -0.173
REMARK  Name = 4133
REMARK  4 active torsions:
REMARK  status: ('A' for Active; 'I' for Inactive)
REMARK    1  A    between atoms: O_1  and  C_10
REMARK    2  A    between atoms: O_1  and  C_11
REMARK    3  A    between atoms: O_2  and  C_5
REMARK    4  A    between atoms: C_4  and  C_10
REMARK                            x       y       z     vdW  Elec       q    Type
REMARK                         _______ _______ _______ _____ _____    ______ ____
ROOT
ATOM      1  C   UNL     1      13.623   5.873  -4.394  0.00  0.00    +0.000 A 
ATOM      2  C   UNL     1      13.577   7.253  -4.589  0.00  0.00    +0.000 A 
ATOM      3  C   UNL     1      12.711   5.259  -3.536  0.00  0.00    +0.000 A 
ATOM      4  C   UNL     1      12.621   8.021  -3.924  0.00  0.00    +0.000 A 
ATOM      5  C   UNL     1      11.754   6.026  -2.870  0.00  0.00    +0.000 A 
ATOM      6  C   UNL     1      11.709   7.406  -3.064  0.00  0.00    +0.000 A 
ATOM      7  H   UNL     1      12.711   4.185  -3.374  0.00  0.00    +0.000 HD
ATOM      8  H   UNL     1      12.574   9.097  -4.065  0.00  0.00    +0.000 HD
ATOM      9  H   UNL     1      11.043   5.548  -2.204  0.00  0.00    +0.000 HD
ATOM     10  H   UNL     1      10.963   8.003  -2.547  0.00  0.00    +0.000 HD
ENDROOT
BRANCH   2  11
ATOM     11  O   UNL     1      14.459   7.873  -5.423  0.00  0.00    +0.000 OA
ATOM     12  H   UNL     1      14.473   8.824  -5.222  0.00  0.00    +0.000 HD
ENDBRANCH   2  11
BRANCH   1  14
ATOM     13  O   UNL     1      14.341   4.147  -5.874  0.00  0.00    +0.000 OA
ATOM     14  C   UNL     1      14.613   5.055  -5.079  0.00  0.00    +0.000 C 
BRANCH  14  15
ATOM     15  O   UNL     1      15.887   5.416  -4.734  0.00  0.00    +0.000 OA
BRANCH  15  16
ATOM     16  C   UNL     1      16.947   4.889  -5.539  0.00  0.00    +0.000 C 
ATOM     17  H   UNL     1      17.506   4.133  -4.979  0.00  0.00    +0.000 HD
ATOM     18  H   UNL     1      17.611   5.696  -5.864  0.00  0.00    +0.000 HD
ATOM     19  H   UNL     1      16.505   4.419  -6.420  0.00  0.00    +0.000 HD
ENDBRANCH  15  16
ENDBRANCH  14  15
ENDBRANCH   1  14
TORSDOF 4
ENDMDL
MODEL 3
REMARK VINA RESULT:    -5.052      1.651      4.071
REMARK INTER + INTRA:          -6.112
REMARK INTER:                  -5.834
REMARK INTRA:                  -0.278
REMARK UNBOUND:                -0.173
REMARK  Name = 4133
REMARK  4 active torsions:
REMARK  status: ('A' for Active; 'I' for Inactive)
REMARK    1  A    between atoms: O_1  and  C_10
REMARK    2  A    between atoms: O_1  and  C_11
REMARK    3  A    between atoms: O_2  and  C_5
REMARK    4  A    between atoms: C_4  and  C_10
REMARK                            x       y       z     vdW  Elec       q    Type
REMARK                         _______ _______ _______ _____ _____    ______ ____
ROOT
ATOM      1  C   UNL     1      11.950   7.294  -3.555  0.00  0.00    +0.000 A 
ATOM      2  C   UNL     1      10.832   7.824  -4.198  0.00  0.00    +0.000 A 
ATOM      3  C   UNL     1      11.852   6.851  -2.236  0.00  0.00    +0.000 A 
ATOM      4  C   UNL     1       9.615   7.913  -3.522  0.00  0.00    +0.000 A 
ATOM      5  C   UNL     1      10.635   6.940  -1.559  0.00  0.00    +0.000 A 
ATOM      6  C   UNL     1       9.518   7.471  -2.202  0.00  0.00    +0.000 A 
ATOM      7  H   UNL     1      12.701   6.420  -1.712  0.00  0.00    +0.000 HD
ATOM      8  H   UNL     1       8.736   8.325  -4.010  0.00  0.00    +0.000 HD
ATOM      9  H   UNL     1      10.558   6.593  -0.533  0.00  0.00    +0.000 HD
ATOM     10  H   UNL     1       8.570   7.539  -1.675  0.00  0.00    +0.000 HD
ENDROOT
BRANCH   2  11
ATOM     11  O   UNL     1      10.907   8.263  -5.486  0.00  0.00    +0.000 OA
ATOM     12  H   UNL     1      10.891   9.235  -5.493  0.00  0.00    +0.000 HD
ENDBRANCH   2  11
BRANCH   1  14
ATOM     13  O   UNL     1      13.903   8.161  -4.614  0.00  0.00    +0.000 OA
ATOM     14  C   UNL     1      13.229   7.192  -4.243  0.00  0.00    +0.000 C 
BRANCH  14  15
ATOM     15  O   UNL     1      13.596   5.887  -4.429  0.00  0.00    +0.000 OA
BRANCH  15  16
ATOM     16  C   UNL     1      14.944   5.649  -4.847  0.00  0.00    +0.000 C 
ATOM     17  H   UNL     1      15.093   4.583  -5.050  0.00  0.00    +0.000 HD
ATOM     18  H   UNL     1      15.644   5.998  -4.082  0.00  0.00    +0.000 HD
ATOM     19  H   UNL     1      15.119   6.210  -5.768  0.00  0.00    +0.000 HD
ENDBRANCH  15  16
ENDBRANCH  14  15
ENDBRANCH   1  14
TORSDOF 4
ENDMDL
MODEL 4
REMARK VINA RESULT:    -4.968     24.177     25.528
REMARK INTER + INTRA:          -6.012
REMARK INTER:                  -5.736
REMARK INTRA:                  -0.276
REMARK UNBOUND:                -0.173
REMARK  Name = 4133
REMARK  4 active torsions:
REMARK  status: ('A' for Active; 'I' for Inactive)
REMARK    1  A    between atoms: O_1  and  C_10
REMARK    2  A    between atoms: O_1  and  C_11
REMARK    3  A    between atoms: O_2  and  C_5
REMARK    4  A    between atoms: C_4  and  C_10
REMARK                            x       y       z     vdW  Elec       q    Type
REMARK                         _______ _______ _______ _____ _____    ______ ____
ROOT
ATOM      1  C   UNL     1      -0.906 -13.398  -9.873  0.00  0.00    +0.000 A 
ATOM      2  C   UNL     1      -1.509 -14.355  -9.057  0.00  0.00    +0.000 A 
ATOM      3  C   UNL     1      -0.382 -12.234  -9.313  0.00  0.00    +0.000 A 
ATOM      4  C   UNL     1      -1.589 -14.146  -7.680  0.00  0.00    +0.000 A 
ATOM      5  C   UNL     1      -0.462 -12.024  -7.936  0.00  0.00    +0.000 A 
ATOM      6  C   UNL     1      -1.066 -12.980  -7.120  0.00  0.00    +0.000 A 
ATOM      7  H   UNL     1       0.107 -11.476  -9.920  0.00  0.00    +0.000 HD
ATOM      8  H   UNL     1      -2.057 -14.882  -7.032  0.00  0.00    +0.000 HD
ATOM      9  H   UNL     1      -0.052 -11.118  -7.500  0.00  0.00    +0.000 HD
ATOM     10  H   UNL     1      -1.127 -12.818  -6.048  0.00  0.00    +0.000 HD
ENDROOT
BRANCH   2  11
ATOM     11  O   UNL     1      -2.028 -15.499  -9.584  0.00  0.00    +0.000 OA
ATOM     12  H   UNL     1      -1.446 -16.245  -9.360  0.00  0.00    +0.000 HD
ENDBRANCH   2  11
BRANCH   1  14
ATOM     13  O   UNL     1      -1.629 -14.237 -11.985  0.00  0.00    +0.000 OA
ATOM     14  C   UNL     1      -0.811 -13.597 -11.313  0.00  0.00    +0.000 C 
BRANCH  14  15
ATOM     15  O   UNL     1       0.297 -12.985 -11.832  0.00  0.00    +0.000 OA
BRANCH  15  16
ATOM     16  C   UNL     1       0.434 -12.998 -13.256  0.00  0.00    +0.000 C 
ATOM     17  H   UNL     1       0.053 -13.941 -13.663  0.00  0.00    +0.000 HD
ATOM     18  H   UNL     1       1.482 -12.853 -13.536  0.00  0.00    +0.000 HD
ATOM     19  H   UNL     1      -0.157 -12.175 -13.663  0.00  0.00    +0.000 HD
ENDBRANCH  15  16
ENDBRANCH  14  15
ENDBRANCH   1  14
TORSDOF 4
ENDMDL
MODEL 5
REMARK VINA RESULT:    -4.508     19.786     22.570
REMARK INTER + INTRA:          -5.472
REMARK INTER:                  -5.168
REMARK INTRA:                  -0.303
REMARK UNBOUND:                -0.173
REMARK  Name = 4133
REMARK  4 active torsions:
REMARK  status: ('A' for Active; 'I' for Inactive)
REMARK    1  A    between atoms: O_1  and  C_10
REMARK    2  A    between atoms: O_1  and  C_11
REMARK    3  A    between atoms: O_2  and  C_5
REMARK    4  A    between atoms: C_4  and  C_10
REMARK                            x       y       z     vdW  Elec       q    Type
REMARK                         _______ _______ _______ _____ _____    ______ ____
ROOT
ATOM      1  C   UNL     1      -2.315   9.429  12.155  0.00  0.00    +0.000 A 
ATOM      2  C   UNL     1      -2.294   8.044  12.317  0.00  0.00    +0.000 A 
ATOM      3  C   UNL     1      -2.607  10.254  13.241  0.00  0.00    +0.000 A 
ATOM      4  C   UNL     1      -2.567   7.483  13.565  0.00  0.00    +0.000 A 
ATOM      5  C   UNL     1      -2.879   9.694  14.489  0.00  0.00    +0.000 A 
ATOM      6  C   UNL     1      -2.859   8.309  14.651  0.00  0.00    +0.000 A 
ATOM      7  H   UNL     1      -2.617  11.337  13.150  0.00  0.00    +0.000 HD
ATOM      8  H   UNL     1      -2.555   6.407  13.706  0.00  0.00    +0.000 HD
ATOM      9  H   UNL     1      -3.104  10.337  15.335  0.00  0.00    +0.000 HD
ATOM     10  H   UNL     1      -3.070   7.873  15.624  0.00  0.00    +0.000 HD
ENDROOT
BRANCH   2  11
ATOM     11  O   UNL     1      -2.012   7.220  11.269  0.00  0.00    +0.000 OA
ATOM     12  H   UNL     1      -1.880   7.756  10.469  0.00  0.00    +0.000 HD
ENDBRANCH   2  11
BRANCH   1  14
ATOM     13  O   UNL     1      -2.856  10.672  10.194  0.00  0.00    +0.000 OA
ATOM     14  C   UNL     1      -2.034  10.034  10.860  0.00  0.00    +0.000 C 
BRANCH  14  15
ATOM     15  O   UNL     1      -0.741   9.809  10.473  0.00  0.00    +0.000 OA
BRANCH  15  16
ATOM     16  C   UNL     1      -0.153  10.774   9.595  0.00  0.00    +0.000 C 
ATOM     17  H   UNL     1      -0.837  11.617   9.448  0.00  0.00    +0.000 HD
ATOM     18  H   UNL     1       0.098  10.310   8.637  0.00  0.00    +0.000 HD
ATOM     19  H   UNL     1       0.764  11.143  10.060  0.00  0.00    +0.000 HD
ENDBRANCH  15  16
ENDBRANCH  14  15
ENDBRANCH   1  14
TORSDOF 4
ENDMDL
MODEL 6
REMARK VINA RESULT:    -4.391     27.399     28.524
REMARK INTER + INTRA:          -5.335
REMARK INTER:                  -5.062
REMARK INTRA:                  -0.272
REMARK UNBOUND:                -0.173
REMARK  Name = 4133
REMARK  4 active torsions:
REMARK  status: ('A' for Active; 'I' for Inactive)
REMARK    1  A    between atoms: O_1  and  C_10
REMARK    2  A    between atoms: O_1  and  C_11
REMARK    3  A    between atoms: O_2  and  C_5
REMARK    4  A    between atoms: C_4  and  C_10
REMARK                            x       y       z     vdW  Elec       q    Type
REMARK                         _______ _______ _______ _____ _____    ______ ____
ROOT
ATOM      1  C   UNL     1       5.802 -11.156 -25.075  0.00  0.00    +0.000 A 
ATOM      2  C   UNL     1       6.961 -10.922 -25.813  0.00  0.00    +0.000 A 
ATOM      3  C   UNL     1       5.478 -12.452 -24.675  0.00  0.00    +0.000 A 
ATOM      4  C   UNL     1       7.798 -11.986 -26.153  0.00  0.00    +0.000 A 
ATOM      5  C   UNL     1       6.314 -13.516 -25.015  0.00  0.00    +0.000 A 
ATOM      6  C   UNL     1       7.473 -13.283 -25.754  0.00  0.00    +0.000 A 
ATOM      7  H   UNL     1       4.589 -12.665 -24.086  0.00  0.00    +0.000 HD
ATOM      8  H   UNL     1       8.704 -11.819 -26.729  0.00  0.00    +0.000 HD
ATOM      9  H   UNL     1       6.063 -14.525 -24.701  0.00  0.00    +0.000 HD
ATOM     10  H   UNL     1       8.125 -14.111 -26.017  0.00  0.00    +0.000 HD
ENDROOT
BRANCH   2  11
ATOM     11  O   UNL     1       7.295  -9.663 -26.214  0.00  0.00    +0.000 OA
ATOM     12  H   UNL     1       6.484  -9.145 -26.347  0.00  0.00    +0.000 HD
ENDBRANCH   2  11
BRANCH   1  14
ATOM     13  O   UNL     1       5.268  -8.878 -24.614  0.00  0.00    +0.000 OA
ATOM     14  C   UNL     1       4.915 -10.059 -24.709  0.00  0.00    +0.000 C 
BRANCH  14  15
ATOM     15  O   UNL     1       3.640 -10.499 -24.484  0.00  0.00    +0.000 OA
BRANCH  15  16
ATOM     16  C   UNL     1       2.941  -9.917 -23.379  0.00  0.00    +0.000 C 
ATOM     17  H   UNL     1       1.940 -10.353 -23.294  0.00  0.00    +0.000 HD
ATOM     18  H   UNL     1       2.880  -8.832 -23.501  0.00  0.00    +0.000 HD
ATOM     19  H   UNL     1       3.501 -10.140 -22.468  0.00  0.00    +0.000 HD
ENDBRANCH  15  16
ENDBRANCH  14  15
ENDBRANCH   1  14
TORSDOF 4
ENDMDL
MODEL 7
REMARK VINA RESULT:    -4.307     13.617     14.462
REMARK INTER + INTRA:          -5.236
REMARK INTER:                  -4.893
REMARK INTRA:                  -0.343
REMARK UNBOUND:                -0.173
REMARK  Name = 4133
REMARK  4 active torsions:
REMARK  status: ('A' for Active; 'I' for Inactive)
REMARK    1  A    between atoms: O_1  and  C_10
REMARK    2  A    between atoms: O_1  and  C_11
REMARK    3  A    between atoms: O_2  and  C_5
REMARK    4  A    between atoms: C_4  and  C_10
REMARK                            x       y       z     vdW  Elec       q    Type
REMARK                         _______ _______ _______ _____ _____    ______ ____
ROOT
ATOM      1  C   UNL     1       4.796  13.338 -12.957  0.00  0.00    +0.000 A 
ATOM      2  C   UNL     1       4.082  12.141 -12.994  0.00  0.00    +0.000 A 
ATOM      3  C   UNL     1       4.820  14.101 -11.790  0.00  0.00    +0.000 A 
ATOM      4  C   UNL     1       3.388  11.707 -11.864  0.00  0.00    +0.000 A 
ATOM      5  C   UNL     1       4.127  13.668 -10.660  0.00  0.00    +0.000 A 
ATOM      6  C   UNL     1       3.411  12.471 -10.697  0.00  0.00    +0.000 A 
ATOM      7  H   UNL     1       5.379  15.030 -11.725  0.00  0.00    +0.000 HD
ATOM      8  H   UNL     1       2.826  10.778 -11.878  0.00  0.00    +0.000 HD
ATOM      9  H   UNL     1       4.147  14.261  -9.750  0.00  0.00    +0.000 HD
ATOM     10  H   UNL     1       2.872  12.134  -9.816  0.00  0.00    +0.000 HD
ENDROOT
BRANCH   2  11
ATOM     11  O   UNL     1       4.045  11.381 -14.125  0.00  0.00    +0.000 OA
ATOM     12  H   UNL     1       4.738  11.685 -14.735  0.00  0.00    +0.000 HD
ENDBRANCH   2  11
BRANCH   1  14
ATOM     13  O   UNL     1       5.338  14.899 -14.676  0.00  0.00    +0.000 OA
ATOM     14  C   UNL     1       5.527  13.808 -14.126  0.00  0.00    +0.000 C 
BRANCH  14  15
ATOM     15  O   UNL     1       6.453  12.890 -14.541  0.00  0.00    +0.000 OA
BRANCH  15  16
ATOM     16  C   UNL     1       6.734  12.845 -15.944  0.00  0.00    +0.000 C 
ATOM     17  H   UNL     1       6.365  13.753 -16.432  0.00  0.00    +0.000 HD
ATOM     18  H   UNL     1       6.280  11.955 -16.391  0.00  0.00    +0.000 HD
ATOM     19  H   UNL     1       7.817  12.791 -16.072  0.00  0.00    +0.000 HD
ENDBRANCH  15  16
ENDBRANCH  14  15
ENDBRANCH   1  14
TORSDOF 4
ENDMDL
MODEL 8
REMARK VINA RESULT:    -4.287     27.492     28.785
REMARK INTER + INTRA:          -5.212
REMARK INTER:                  -4.995
REMARK INTRA:                  -0.217
REMARK UNBOUND:                -0.173
REMARK  Name = 4133
REMARK  4 active torsions:
REMARK  status: ('A' for Active; 'I' for Inactive)
REMARK    1  A    between atoms: O_1  and  C_10
REMARK    2  A    between atoms: O_1  and  C_11
REMARK    3  A    between atoms: O_2  and  C_5
REMARK    4  A    between atoms: C_4  and  C_10
REMARK                            x       y       z     vdW  Elec       q    Type
REMARK                         _______ _______ _______ _____ _____    ______ ____
ROOT
ATOM      1  C   UNL     1       5.145 -11.117 -24.748  0.00  0.00    +0.000 A 
ATOM      2  C   UNL     1       5.605  -9.853 -25.117  0.00  0.00    +0.000 A 
ATOM      3  C   UNL     1       3.982 -11.242 -23.989  0.00  0.00    +0.000 A 
ATOM      4  C   UNL     1       4.903  -8.713 -24.725  0.00  0.00    +0.000 A 
ATOM      5  C   UNL     1       3.279 -10.103 -23.596  0.00  0.00    +0.000 A 
ATOM      6  C   UNL     1       3.740  -8.839 -23.964  0.00  0.00    +0.000 A 
ATOM      7  H   UNL     1       3.590 -12.213 -23.698  0.00  0.00    +0.000 HD
ATOM      8  H   UNL     1       5.249  -7.722 -25.003  0.00  0.00    +0.000 HD
ATOM      9  H   UNL     1       2.372 -10.200 -23.007  0.00  0.00    +0.000 HD
ATOM     10  H   UNL     1       3.191  -7.951 -23.659  0.00  0.00    +0.000 HD
ENDROOT
BRANCH   2  11
ATOM     11  O   UNL     1       6.740  -9.709 -25.858  0.00  0.00    +0.000 OA
ATOM     12  H   UNL     1       7.437 -10.274 -25.486  0.00  0.00    +0.000 HD
ENDBRANCH   2  11
BRANCH   1  14
ATOM     13  O   UNL     1       7.033 -12.333 -25.548  0.00  0.00    +0.000 OA
ATOM     14  C   UNL     1       5.864 -12.319 -25.147  0.00  0.00    +0.000 C 
BRANCH  14  15
ATOM     15  O   UNL     1       5.081 -13.435 -25.024  0.00  0.00    +0.000 OA
BRANCH  15  16
ATOM     16  C   UNL     1       4.703 -14.096 -26.235  0.00  0.00    +0.000 C 
ATOM     17  H   UNL     1       3.786 -13.653 -26.636  0.00  0.00    +0.000 HD
ATOM     18  H   UNL     1       4.568 -15.166 -26.055  0.00  0.00    +0.000 HD
ATOM     19  H   UNL     1       5.507 -13.959 -26.963  0.00  0.00    +0.000 HD
ENDBRANCH  15  16
ENDBRANCH  14  15
ENDBRANCH   1  14
TORSDOF 4
ENDMDL
MODEL 9
REMARK VINA RESULT:    -4.268     19.705     22.732
REMARK INTER + INTRA:          -5.190
REMARK INTER:                  -4.865
REMARK INTRA:                  -0.325
REMARK UNBOUND:                -0.173
REMARK  Name = 4133
REMARK  4 active torsions:
REMARK  status: ('A' for Active; 'I' for Inactive)
REMARK    1  A    between atoms: O_1  and  C_10
REMARK    2  A    between atoms: O_1  and  C_11
REMARK    3  A    between atoms: O_2  and  C_5
REMARK    4  A    between atoms: C_4  and  C_10
REMARK                            x       y       z     vdW  Elec       q    Type
REMARK                         _______ _______ _______ _____ _____    ______ ____
ROOT
ATOM      1  C   UNL     1      -2.166   9.343  12.303  0.00  0.00    +0.000 A 
ATOM      2  C   UNL     1      -2.362  10.331  13.267  0.00  0.00    +0.000 A 
ATOM      3  C   UNL     1      -2.377   8.003  12.623  0.00  0.00    +0.000 A 
ATOM      4  C   UNL     1      -2.769   9.978  14.554  0.00  0.00    +0.000 A 
ATOM      5  C   UNL     1      -2.784   7.649  13.910  0.00  0.00    +0.000 A 
ATOM      6  C   UNL     1      -2.980   8.637  14.875  0.00  0.00    +0.000 A 
ATOM      7  H   UNL     1      -2.247   7.211  11.891  0.00  0.00    +0.000 HD
ATOM      8  H   UNL     1      -2.926  10.737  15.316  0.00  0.00    +0.000 HD
ATOM      9  H   UNL     1      -2.952   6.606  14.159  0.00  0.00    +0.000 HD
ATOM     10  H   UNL     1      -3.298   8.361  15.877  0.00  0.00    +0.000 HD
ENDROOT
BRANCH   2  11
ATOM     11  O   UNL     1      -2.160  11.647  12.974  0.00  0.00    +0.000 OA
ATOM     12  H   UNL     1      -1.905  11.729  12.040  0.00  0.00    +0.000 HD
ENDBRANCH   2  11
BRANCH   1  14
ATOM     13  O   UNL     1      -2.373  10.431  10.191  0.00  0.00    +0.000 OA
ATOM     14  C   UNL     1      -1.741   9.690  10.954  0.00  0.00    +0.000 C 
BRANCH  14  15
ATOM     15  O   UNL     1      -0.552   9.094  10.633  0.00  0.00    +0.000 OA
BRANCH  15  16
ATOM     16  C   UNL     1       0.557   9.962  10.377  0.00  0.00    +0.000 C 
ATOM     17  H   UNL     1       1.406   9.387   9.993  0.00  0.00    +0.000 HD
ATOM     18  H   UNL     1       0.835  10.499  11.289  0.00  0.00    +0.000 HD
ATOM     19  H   UNL     1       0.252  10.689   9.619  0.00  0.00    +0.000 HD
ENDBRANCH  15  16
ENDBRANCH  14  15
ENDBRANCH   1  14
TORSDOF 4
ENDMDL
MODEL 10
REMARK VINA RESULT:    -4.245     27.401     28.630
REMARK INTER + INTRA:          -5.163
REMARK INTER:                  -4.989
REMARK INTRA:                  -0.173
REMARK UNBOUND:                -0.173
REMARK  Name = 4133
REMARK  4 active torsions:
REMARK  status: ('A' for Active; 'I' for Inactive)
REMARK    1  A    between atoms: O_1  and  C_10
REMARK    2  A    between atoms: O_1  and  C_11
REMARK    3  A    between atoms: O_2  and  C_5
REMARK    4  A    between atoms: C_4  and  C_10
REMARK                            x       y       z     vdW  Elec       q    Type
REMARK                         _______ _______ _______ _____ _____    ______ ____
ROOT
ATOM      1  C   UNL     1       5.987 -11.075 -25.209  0.00  0.00    +0.000 A 
ATOM      2  C   UNL     1       6.312 -12.429 -25.139  0.00  0.00    +0.000 A 
ATOM      3  C   UNL     1       6.805 -10.197 -25.919  0.00  0.00    +0.000 A 
ATOM      4  C   UNL     1       7.456 -12.906 -25.778  0.00  0.00    +0.000 A 
ATOM      5  C   UNL     1       7.951 -10.673 -26.558  0.00  0.00    +0.000 A 
ATOM      6  C   UNL     1       8.276 -12.027 -26.487  0.00  0.00    +0.000 A 
ATOM      7  H   UNL     1       6.572  -9.139 -26.005  0.00  0.00    +0.000 HD
ATOM      8  H   UNL     1       7.723 -13.958 -25.731  0.00  0.00    +0.000 HD
ATOM      9  H   UNL     1       8.586  -9.990 -27.113  0.00  0.00    +0.000 HD
ATOM     10  H   UNL     1       9.167 -12.398 -26.986  0.00  0.00    +0.000 HD
ENDROOT
BRANCH   2  11
ATOM     11  O   UNL     1       5.526 -13.303 -24.450  0.00  0.00    +0.000 OA
ATOM     12  H   UNL     1       5.983 -14.158 -24.384  0.00  0.00    +0.000 HD
ENDBRANCH   2  11
BRANCH   1  14
ATOM     13  O   UNL     1       4.076 -11.215 -23.790  0.00  0.00    +0.000 OA
ATOM     14  C   UNL     1       4.796 -10.557 -24.550  0.00  0.00    +0.000 C 
BRANCH  14  15
ATOM     15  O   UNL     1       4.572  -9.247 -24.876  0.00  0.00    +0.000 OA
BRANCH  15  16
ATOM     16  C   UNL     1       3.649  -8.526 -24.054  0.00  0.00    +0.000 C 
ATOM     17  H   UNL     1       2.867  -8.074 -24.672  0.00  0.00    +0.000 HD
ATOM     18  H   UNL     1       4.176  -7.760 -23.477  0.00  0.00    +0.000 HD
ATOM     19  H   UNL     1       3.186  -9.233 -23.361  0.00  0.00    +0.000 HD
ENDBRANCH  15  16
ENDBRANCH  14  15
ENDBRANCH   1  14
TORSDOF 4
ENDMDL
