MODEL 1
REMARK VINA RESULT:    -4.608      0.000      0.000
REMARK INTER + INTRA:          -6.039
REMARK INTER:                  -5.854
REMARK INTRA:                  -0.186
REMARK UNBOUND:                -0.219
REMARK  Name = 82336
REMARK  6 active torsions:
REMARK  status: ('A' for Active; 'I' for Inactive)
REMARK    1  A    between atoms: O_1  and  C_12
REMARK    2  A    between atoms: O_1  and  C_13
REMARK    3  A    between atoms: N_3  and  C_4
REMARK    4  A    between atoms: N_3  and  C_8
REMARK    5  A    between atoms: N_3  and  C_9
REMARK    6  A    between atoms: C_5  and  C_12
REMARK                            x       y       z     vdW  Elec       q    Type
REMARK                         _______ _______ _______ _____ _____    ______ ____
ROOT
ATOM      1  C   UNL     1      10.214   7.657  -3.293  0.00  0.00    +0.000 A 
ATOM      2  C   UNL     1      11.554   7.419  -2.983  0.00  0.00    +0.000 A 
ATOM      3  C   UNL     1       9.257   7.680  -2.279  0.00  0.00    +0.000 A 
ATOM      4  C   UNL     1      11.935   7.204  -1.660  0.00  0.00    +0.000 A 
ATOM      5  C   UNL     1       9.639   7.464  -0.955  0.00  0.00    +0.000 A 
ATOM      6  C   UNL     1      10.978   7.226  -0.646  0.00  0.00    +0.000 A 
ATOM      7  H   UNL     1       8.209   7.857  -2.502  0.00  0.00    +0.000 HD
ATOM      8  H   UNL     1      12.976   7.017  -1.406  0.00  0.00    +0.000 HD
ATOM      9  H   UNL     1       8.893   7.480  -0.165  0.00  0.00    +0.000 HD
ATOM     10  H   UNL     1      11.275   7.058   0.386  0.00  0.00    +0.000 HD
ENDROOT
BRANCH   2  12
ATOM     11  O   UNL     1      13.172   8.389  -4.443  0.00  0.00    +0.000 OA
ATOM     12  C   UNL     1      12.578   7.390  -4.020  0.00  0.00    +0.000 C 
BRANCH  12  13
ATOM     13  O   UNL     1      12.801   6.117  -4.467  0.00  0.00    +0.000 OA
BRANCH  13  14
ATOM     14  C   UNL     1      14.154   5.771  -4.778  0.00  0.00    +0.000 C 
ATOM     15  H   UNL     1      14.671   6.630  -5.216  0.00  0.00    +0.000 HD
ATOM     16  H   UNL     1      14.178   4.917  -5.462  0.00  0.00    +0.000 HD
ATOM     17  H   UNL     1      14.657   5.493  -3.849  0.00  0.00    +0.000 HD
ENDBRANCH  13  14
ENDBRANCH  12  13
ENDBRANCH   2  12
BRANCH   1  18
ATOM     18  N   UNL     1       9.807   7.878  -4.628  0.00  0.00    +0.000 N 
BRANCH  18  19
ATOM     19  C   UNL     1       9.416   6.765  -5.468  0.00  0.00    +0.000 C 
ATOM     20  H   UNL     1       8.809   6.046  -4.907  0.00  0.00    +0.000 HD
ATOM     21  H   UNL     1      10.298   6.248  -5.861  0.00  0.00    +0.000 HD
ATOM     22  H   UNL     1       8.819   7.103  -6.321  0.00  0.00    +0.000 HD
ENDBRANCH  18  19
BRANCH  18  23
ATOM     23  C   UNL     1       9.762   9.222  -5.166  0.00  0.00    +0.000 C 
ATOM     24  H   UNL     1      10.283   9.914  -4.496  0.00  0.00    +0.000 HD
ATOM     25  H   UNL     1       8.736   9.593  -5.270  0.00  0.00    +0.000 HD
ATOM     26  H   UNL     1      10.260   9.266  -6.140  0.00  0.00    +0.000 HD
ENDBRANCH  18  23
ENDBRANCH   1  18
TORSDOF 6
ENDMDL
MODEL 2
REMARK VINA RESULT:    -4.101      2.283      3.810
REMARK INTER + INTRA:          -5.398
REMARK INTER:                  -5.374
REMARK INTRA:                  -0.024
REMARK UNBOUND:                -0.219
REMARK  Name = 82336
REMARK  6 active torsions:
REMARK  status: ('A' for Active; 'I' for Inactive)
REMARK    1  A    between atoms: O_1  and  C_12
REMARK    2  A    between atoms: O_1  and  C_13
REMARK    3  A    between atoms: N_3  and  C_4
REMARK    4  A    between atoms: N_3  and  C_8
REMARK    5  A    between atoms: N_3  and  C_9
REMARK    6  A    between atoms: C_5  and  C_12
REMARK                            x       y       z     vdW  Elec       q    Type
REMARK                         _______ _______ _______ _____ _____    ______ ____
ROOT
ATOM      1  C   UNL     1      10.710   6.905  -3.986  0.00  0.00    +0.000 A 
ATOM      2  C   UNL     1      10.587   6.756  -2.604  0.00  0.00    +0.000 A 
ATOM      3  C   UNL     1      11.724   6.237  -4.671  0.00  0.00    +0.000 A 
ATOM      4  C   UNL     1      11.478   5.940  -1.908  0.00  0.00    +0.000 A 
ATOM      5  C   UNL     1      12.615   5.421  -3.976  0.00  0.00    +0.000 A 
ATOM      6  C   UNL     1      12.492   5.272  -2.594  0.00  0.00    +0.000 A 
ATOM      7  H   UNL     1      11.840   6.346  -5.746  0.00  0.00    +0.000 HD
ATOM      8  H   UNL     1      11.392   5.815  -0.832  0.00  0.00    +0.000 HD
ATOM      9  H   UNL     1      13.407   4.902  -4.509  0.00  0.00    +0.000 HD
ATOM     10  H   UNL     1      13.187   4.636  -2.052  0.00  0.00    +0.000 HD
ENDROOT
BRANCH   2  12
ATOM     11  O   UNL     1       8.339   7.139  -1.905  0.00  0.00    +0.000 OA
ATOM     12  C   UNL     1       9.537   7.440  -1.859  0.00  0.00    +0.000 C 
BRANCH  12  13
ATOM     13  O   UNL     1      10.045   8.458  -1.100  0.00  0.00    +0.000 OA
BRANCH  13  14
ATOM     14  C   UNL     1       9.321   8.800   0.086  0.00  0.00    +0.000 C 
ATOM     15  H   UNL     1       9.262   9.887   0.190  0.00  0.00    +0.000 HD
ATOM     16  H   UNL     1       9.800   8.354   0.964  0.00  0.00    +0.000 HD
ATOM     17  H   UNL     1       8.308   8.399  -0.004  0.00  0.00    +0.000 HD
ENDBRANCH  13  14
ENDBRANCH  12  13
ENDBRANCH   2  12
BRANCH   1  18
ATOM     18  N   UNL     1       9.818   7.728  -4.709  0.00  0.00    +0.000 N 
BRANCH  18  19
ATOM     19  C   UNL     1       9.920   9.170  -4.626  0.00  0.00    +0.000 C 
ATOM     20  H   UNL     1       9.402   9.648  -5.465  0.00  0.00    +0.000 HD
ATOM     21  H   UNL     1      10.969   9.486  -4.637  0.00  0.00    +0.000 HD
ATOM     22  H   UNL     1       9.467   9.547  -3.704  0.00  0.00    +0.000 HD
ENDBRANCH  18  19
BRANCH  18  23
ATOM     23  C   UNL     1       8.799   7.138  -5.553  0.00  0.00    +0.000 C 
ATOM     24  H   UNL     1       7.864   7.028  -4.994  0.00  0.00    +0.000 HD
ATOM     25  H   UNL     1       9.079   6.138  -5.903  0.00  0.00    +0.000 HD
ATOM     26  H   UNL     1       8.594   7.777  -6.418  0.00  0.00    +0.000 HD
ENDBRANCH  18  23
ENDBRANCH   1  18
TORSDOF 6
ENDMDL
MODEL 3
REMARK VINA RESULT:    -4.086     18.990     20.888
REMARK INTER + INTRA:          -5.380
REMARK INTER:                  -5.142
REMARK INTRA:                  -0.238
REMARK UNBOUND:                -0.219
REMARK  Name = 82336
REMARK  6 active torsions:
REMARK  status: ('A' for Active; 'I' for Inactive)
REMARK    1  A    between atoms: O_1  and  C_12
REMARK    2  A    between atoms: O_1  and  C_13
REMARK    3  A    between atoms: N_3  and  C_4
REMARK    4  A    between atoms: N_3  and  C_8
REMARK    5  A    between atoms: N_3  and  C_9
REMARK    6  A    between atoms: C_5  and  C_12
REMARK                            x       y       z     vdW  Elec       q    Type
REMARK                         _______ _______ _______ _____ _____    ______ ____
ROOT
ATOM      1  C   UNL     1      -1.827  10.266  13.476  0.00  0.00    +0.000 A 
ATOM      2  C   UNL     1      -2.046   9.351  12.445  0.00  0.00    +0.000 A 
ATOM      3  C   UNL     1      -2.127   9.918  14.793  0.00  0.00    +0.000 A 
ATOM      4  C   UNL     1      -2.566   8.089  12.732  0.00  0.00    +0.000 A 
ATOM      5  C   UNL     1      -2.647   8.656  15.079  0.00  0.00    +0.000 A 
ATOM      6  C   UNL     1      -2.867   7.742  14.048  0.00  0.00    +0.000 A 
ATOM      7  H   UNL     1      -1.970  10.619  15.608  0.00  0.00    +0.000 HD
ATOM      8  H   UNL     1      -2.741   7.368  11.937  0.00  0.00    +0.000 HD
ATOM      9  H   UNL     1      -2.883   8.385  16.104  0.00  0.00    +0.000 HD
ATOM     10  H   UNL     1      -3.272   6.758  14.272  0.00  0.00    +0.000 HD
ENDROOT
BRANCH   2  12
ATOM     11  O   UNL     1      -2.544  10.208  10.276  0.00  0.00    +0.000 OA
ATOM     12  C   UNL     1      -1.742   9.684  11.060  0.00  0.00    +0.000 C 
BRANCH  12  13
ATOM     13  O   UNL     1      -0.458   9.347  10.734  0.00  0.00    +0.000 OA
BRANCH  13  14
ATOM     14  C   UNL     1       0.253  10.256   9.888  0.00  0.00    +0.000 C 
ATOM     15  H   UNL     1      -0.419  11.044   9.534  0.00  0.00    +0.000 HD
ATOM     16  H   UNL     1       0.696   9.719   9.043  0.00  0.00    +0.000 HD
ATOM     17  H   UNL     1       1.053  10.713  10.474  0.00  0.00    +0.000 HD
ENDBRANCH  13  14
ENDBRANCH  12  13
ENDBRANCH   2  12
BRANCH   1  18
ATOM     18  N   UNL     1      -1.302  11.550  13.207  0.00  0.00    +0.000 N 
BRANCH  18  19
ATOM     19  C   UNL     1      -2.183  12.643  12.855  0.00  0.00    +0.000 C 
ATOM     20  H   UNL     1      -3.066  12.659  13.504  0.00  0.00    +0.000 HD
ATOM     21  H   UNL     1      -2.516  12.554  11.815  0.00  0.00    +0.000 HD
ATOM     22  H   UNL     1      -1.680  13.609  12.963  0.00  0.00    +0.000 HD
ENDBRANCH  18  19
BRANCH  18  23
ATOM     23  C   UNL     1       0.124  11.789  13.295  0.00  0.00    +0.000 C 
ATOM     24  H   UNL     1       0.460  12.385  12.439  0.00  0.00    +0.000 HD
ATOM     25  H   UNL     1       0.703  10.859  13.281  0.00  0.00    +0.000 HD
ATOM     26  H   UNL     1       0.368  12.350  14.203  0.00  0.00    +0.000 HD
ENDBRANCH  18  23
ENDBRANCH   1  18
TORSDOF 6
ENDMDL
MODEL 4
REMARK VINA RESULT:    -4.050     24.402     25.911
REMARK INTER + INTRA:          -5.335
REMARK INTER:                  -5.112
REMARK INTRA:                  -0.223
REMARK UNBOUND:                -0.219
REMARK  Name = 82336
REMARK  6 active torsions:
REMARK  status: ('A' for Active; 'I' for Inactive)
REMARK    1  A    between atoms: O_1  and  C_12
REMARK    2  A    between atoms: O_1  and  C_13
REMARK    3  A    between atoms: N_3  and  C_4
REMARK    4  A    between atoms: N_3  and  C_8
REMARK    5  A    between atoms: N_3  and  C_9
REMARK    6  A    between atoms: C_5  and  C_12
REMARK                            x       y       z     vdW  Elec       q    Type
REMARK                         _______ _______ _______ _____ _____    ______ ____
ROOT
ATOM      1  C   UNL     1      -1.595 -14.612  -8.185  0.00  0.00    +0.000 A 
ATOM      2  C   UNL     1      -1.329 -13.831  -7.060  0.00  0.00    +0.000 A 
ATOM      3  C   UNL     1      -1.327 -14.114  -9.459  0.00  0.00    +0.000 A 
ATOM      4  C   UNL     1      -0.795 -12.552  -7.210  0.00  0.00    +0.000 A 
ATOM      5  C   UNL     1      -0.792 -12.834  -9.609  0.00  0.00    +0.000 A 
ATOM      6  C   UNL     1      -0.527 -12.053  -8.484  0.00  0.00    +0.000 A 
ATOM      7  H   UNL     1      -1.533 -14.705 -10.347  0.00  0.00    +0.000 HD
ATOM      8  H   UNL     1      -0.583 -11.934  -6.341  0.00  0.00    +0.000 HD
ATOM      9  H   UNL     1      -0.585 -12.445 -10.602  0.00  0.00    +0.000 HD
ATOM     10  H   UNL     1      -0.110 -11.056  -8.601  0.00  0.00    +0.000 HD
ENDROOT
BRANCH   2  12
ATOM     11  O   UNL     1      -0.763 -14.890  -4.999  0.00  0.00    +0.000 OA
ATOM     12  C   UNL     1      -1.598 -14.323  -5.715  0.00  0.00    +0.000 C 
BRANCH  12  13
ATOM     13  O   UNL     1      -2.890 -14.078  -5.341  0.00  0.00    +0.000 OA
BRANCH  13  14
ATOM     14  C   UNL     1      -3.520 -15.061  -4.513  0.00  0.00    +0.000 C 
ATOM     15  H   UNL     1      -4.477 -14.684  -4.143  0.00  0.00    +0.000 HD
ATOM     16  H   UNL     1      -2.863 -15.330  -3.680  0.00  0.00    +0.000 HD
ATOM     17  H   UNL     1      -3.703 -15.952  -5.119  0.00  0.00    +0.000 HD
ENDBRANCH  13  14
ENDBRANCH  12  13
ENDBRANCH   2  12
BRANCH   1  18
ATOM     18  N   UNL     1      -2.137 -15.911  -8.055  0.00  0.00    +0.000 N 
BRANCH  18  19
ATOM     19  C   UNL     1      -3.567 -16.120  -8.141  0.00  0.00    +0.000 C 
ATOM     20  H   UNL     1      -3.836 -17.127  -7.806  0.00  0.00    +0.000 HD
ATOM     21  H   UNL     1      -3.917 -15.988  -9.170  0.00  0.00    +0.000 HD
ATOM     22  H   UNL     1      -4.110 -15.409  -7.509  0.00  0.00    +0.000 HD
ENDBRANCH  18  19
BRANCH  18  23
ATOM     23  C   UNL     1      -1.265 -17.049  -7.848  0.00  0.00    +0.000 C 
ATOM     24  H   UNL     1      -0.622 -17.195  -8.723  0.00  0.00    +0.000 HD
ATOM     25  H   UNL     1      -1.826 -17.980  -7.707  0.00  0.00    +0.000 HD
ATOM     26  H   UNL     1      -0.615 -16.887  -6.983  0.00  0.00    +0.000 HD
ENDBRANCH  18  23
ENDBRANCH   1  18
TORSDOF 6
ENDMDL
MODEL 5
REMARK VINA RESULT:    -3.948     19.309     21.229
REMARK INTER + INTRA:          -5.205
REMARK INTER:                  -4.978
REMARK INTRA:                  -0.227
REMARK UNBOUND:                -0.219
REMARK  Name = 82336
REMARK  6 active torsions:
REMARK  status: ('A' for Active; 'I' for Inactive)
REMARK    1  A    between atoms: O_1  and  C_12
REMARK    2  A    between atoms: O_1  and  C_13
REMARK    3  A    between atoms: N_3  and  C_4
REMARK    4  A    between atoms: N_3  and  C_8
REMARK    5  A    between atoms: N_3  and  C_9
REMARK    6  A    between atoms: C_5  and  C_12
REMARK                            x       y       z     vdW  Elec       q    Type
REMARK                         _______ _______ _______ _____ _____    ______ ____
ROOT
ATOM      1  C   UNL     1      -2.011   9.351  12.474  0.00  0.00    +0.000 A 
ATOM      2  C   UNL     1      -1.808  10.233  13.535  0.00  0.00    +0.000 A 
ATOM      3  C   UNL     1      -2.530   8.079  12.713  0.00  0.00    +0.000 A 
ATOM      4  C   UNL     1      -2.124   9.842  14.836  0.00  0.00    +0.000 A 
ATOM      5  C   UNL     1      -2.846   7.688  14.014  0.00  0.00    +0.000 A 
ATOM      6  C   UNL     1      -2.642   8.570  15.076  0.00  0.00    +0.000 A 
ATOM      7  H   UNL     1      -2.689   7.376  11.899  0.00  0.00    +0.000 HD
ATOM      8  H   UNL     1      -1.970  10.520  15.672  0.00  0.00    +0.000 HD
ATOM      9  H   UNL     1      -3.249   6.697  14.201  0.00  0.00    +0.000 HD
ATOM     10  H   UNL     1      -2.889   8.265  16.089  0.00  0.00    +0.000 HD
ENDROOT
BRANCH   2  12
ATOM     11  O   UNL     1      -0.061  11.837  13.288  0.00  0.00    +0.000 OA
ATOM     12  C   UNL     1      -1.268  11.569  13.318  0.00  0.00    +0.000 C 
BRANCH  12  13
ATOM     13  O   UNL     1      -2.264  12.490  13.150  0.00  0.00    +0.000 OA
BRANCH  13  14
ATOM     14  C   UNL     1      -2.042  13.506  12.167  0.00  0.00    +0.000 C 
ATOM     15  H   UNL     1      -1.489  13.094  11.318  0.00  0.00    +0.000 HD
ATOM     16  H   UNL     1      -1.500  14.348  12.608  0.00  0.00    +0.000 HD
ATOM     17  H   UNL     1      -3.015  13.859  11.815  0.00  0.00    +0.000 HD
ENDBRANCH  13  14
ENDBRANCH  12  13
ENDBRANCH   2  12
BRANCH   1  18
ATOM     18  N   UNL     1      -1.698   9.727  11.148  0.00  0.00    +0.000 N 
BRANCH  18  19
ATOM     19  C   UNL     1      -2.695  10.361  10.312  0.00  0.00    +0.000 C 
ATOM     20  H   UNL     1      -3.337   9.614   9.833  0.00  0.00    +0.000 HD
ATOM     21  H   UNL     1      -2.221  10.967   9.532  0.00  0.00    +0.000 HD
ATOM     22  H   UNL     1      -3.344  11.021  10.899  0.00  0.00    +0.000 HD
ENDBRANCH  18  19
BRANCH  18  23
ATOM     23  C   UNL     1      -0.371   9.495  10.616  0.00  0.00    +0.000 C 
ATOM     24  H   UNL     1       0.293  10.325  10.882  0.00  0.00    +0.000 HD
ATOM     25  H   UNL     1      -0.369   9.426   9.522  0.00  0.00    +0.000 HD
ATOM     26  H   UNL     1       0.060   8.580  11.034  0.00  0.00    +0.000 HD
ENDBRANCH  18  23
ENDBRANCH   1  18
TORSDOF 6
ENDMDL
MODEL 6
REMARK VINA RESULT:    -3.938      1.481      3.321
REMARK INTER + INTRA:          -5.193
REMARK INTER:                  -5.245
REMARK INTRA:                   0.052
REMARK UNBOUND:                -0.219
REMARK  Name = 82336
REMARK  6 active torsions:
REMARK  status: ('A' for Active; 'I' for Inactive)
REMARK    1  A    between atoms: O_1  and  C_12
REMARK    2  A    between atoms: O_1  and  C_13
REMARK    3  A    between atoms: N_3  and  C_4
REMARK    4  A    between atoms: N_3  and  C_8
REMARK    5  A    between atoms: N_3  and  C_9
REMARK    6  A    between atoms: C_5  and  C_12
REMARK                            x       y       z     vdW  Elec       q    Type
REMARK                         _______ _______ _______ _____ _____    ______ ____
ROOT
ATOM      1  C   UNL     1      10.380   7.518  -2.904  0.00  0.00    +0.000 A 
ATOM      2  C   UNL     1      11.176   6.896  -3.866  0.00  0.00    +0.000 A 
ATOM      3  C   UNL     1       9.444   8.479  -3.288  0.00  0.00    +0.000 A 
ATOM      4  C   UNL     1      11.037   7.235  -5.211  0.00  0.00    +0.000 A 
ATOM      5  C   UNL     1       9.305   8.817  -4.633  0.00  0.00    +0.000 A 
ATOM      6  C   UNL     1      10.102   8.196  -5.595  0.00  0.00    +0.000 A 
ATOM      7  H   UNL     1       8.820   8.978  -2.552  0.00  0.00    +0.000 HD
ATOM      8  H   UNL     1      11.652   6.757  -5.970  0.00  0.00    +0.000 HD
ATOM      9  H   UNL     1       8.578   9.567  -4.933  0.00  0.00    +0.000 HD
ATOM     10  H   UNL     1       9.993   8.460  -6.644  0.00  0.00    +0.000 HD
ENDROOT
BRANCH   2  12
ATOM     11  O   UNL     1      11.889   4.806  -2.964  0.00  0.00    +0.000 OA
ATOM     12  C   UNL     1      12.162   5.889  -3.497  0.00  0.00    +0.000 C 
BRANCH  12  13
ATOM     13  O   UNL     1      13.430   6.290  -3.815  0.00  0.00    +0.000 OA
BRANCH  13  14
ATOM     14  C   UNL     1      14.236   5.360  -4.546  0.00  0.00    +0.000 C 
ATOM     15  H   UNL     1      13.785   5.158  -5.522  0.00  0.00    +0.000 HD
ATOM     16  H   UNL     1      14.354   4.432  -3.977  0.00  0.00    +0.000 HD
ATOM     17  H   UNL     1      15.221   5.808  -4.699  0.00  0.00    +0.000 HD
ENDBRANCH  13  14
ENDBRANCH  12  13
ENDBRANCH   2  12
BRANCH   1  18
ATOM     18  N   UNL     1      10.505   7.189  -1.535  0.00  0.00    +0.000 N 
BRANCH  18  19
ATOM     19  C   UNL     1      11.648   7.648  -0.774  0.00  0.00    +0.000 C 
ATOM     20  H   UNL     1      12.302   8.277  -1.389  0.00  0.00    +0.000 HD
ATOM     21  H   UNL     1      12.231   6.799  -0.399  0.00  0.00    +0.000 HD
ATOM     22  H   UNL     1      11.336   8.246   0.088  0.00  0.00    +0.000 HD
ENDBRANCH  18  19
BRANCH  18  23
ATOM     23  C   UNL     1       9.484   6.402  -0.876  0.00  0.00    +0.000 C 
ATOM     24  H   UNL     1       9.929   5.806  -0.071  0.00  0.00    +0.000 HD
ATOM     25  H   UNL     1       8.996   5.698  -1.560  0.00  0.00    +0.000 HD
ATOM     26  H   UNL     1       8.725   7.050  -0.426  0.00  0.00    +0.000 HD
ENDBRANCH  18  23
ENDBRANCH   1  18
TORSDOF 6
ENDMDL
MODEL 7
REMARK VINA RESULT:    -3.784     28.515     30.433
REMARK INTER + INTRA:          -4.999
REMARK INTER:                  -4.871
REMARK INTRA:                  -0.127
REMARK UNBOUND:                -0.219
REMARK  Name = 82336
REMARK  6 active torsions:
REMARK  status: ('A' for Active; 'I' for Inactive)
REMARK    1  A    between atoms: O_1  and  C_12
REMARK    2  A    between atoms: O_1  and  C_13
REMARK    3  A    between atoms: N_3  and  C_4
REMARK    4  A    between atoms: N_3  and  C_8
REMARK    5  A    between atoms: N_3  and  C_9
REMARK    6  A    between atoms: C_5  and  C_12
REMARK                            x       y       z     vdW  Elec       q    Type
REMARK                         _______ _______ _______ _____ _____    ______ ____
ROOT
ATOM      1  C   UNL     1       6.612 -11.376 -25.949  0.00  0.00    +0.000 A 
ATOM      2  C   UNL     1       5.331 -11.827 -25.633  0.00  0.00    +0.000 A 
ATOM      3  C   UNL     1       7.040 -10.125 -25.506  0.00  0.00    +0.000 A 
ATOM      4  C   UNL     1       4.477 -11.027 -24.875  0.00  0.00    +0.000 A 
ATOM      5  C   UNL     1       6.186  -9.324 -24.748  0.00  0.00    +0.000 A 
ATOM      6  C   UNL     1       4.904  -9.775 -24.433  0.00  0.00    +0.000 A 
ATOM      7  H   UNL     1       8.033  -9.754 -25.748  0.00  0.00    +0.000 HD
ATOM      8  H   UNL     1       3.476 -11.367 -24.623  0.00  0.00    +0.000 HD
ATOM      9  H   UNL     1       6.519  -8.348 -24.405  0.00  0.00    +0.000 HD
ATOM     10  H   UNL     1       4.239  -9.151 -23.842  0.00  0.00    +0.000 HD
ENDROOT
BRANCH   2  12
ATOM     11  O   UNL     1       4.771 -14.129 -25.356  0.00  0.00    +0.000 OA
ATOM     12  C   UNL     1       4.854 -13.130 -26.080  0.00  0.00    +0.000 C 
BRANCH  12  13
ATOM     13  O   UNL     1       4.508 -13.109 -27.403  0.00  0.00    +0.000 OA
BRANCH  13  14
ATOM     14  C   UNL     1       4.806 -14.283 -28.165  0.00  0.00    +0.000 C 
ATOM     15  H   UNL     1       4.378 -15.165 -27.680  0.00  0.00    +0.000 HD
ATOM     16  H   UNL     1       5.888 -14.394 -28.282  0.00  0.00    +0.000 HD
ATOM     17  H   UNL     1       4.354 -14.171 -29.154  0.00  0.00    +0.000 HD
ENDBRANCH  13  14
ENDBRANCH  12  13
ENDBRANCH   2  12
BRANCH   1  18
ATOM     18  N   UNL     1       7.493 -12.172 -26.716  0.00  0.00    +0.000 N 
BRANCH  18  19
ATOM     19  C   UNL     1       7.738 -11.859 -28.108  0.00  0.00    +0.000 C 
ATOM     20  H   UNL     1       8.811 -11.870 -28.329  0.00  0.00    +0.000 HD
ATOM     21  H   UNL     1       7.338 -10.871 -28.361  0.00  0.00    +0.000 HD
ATOM     22  H   UNL     1       7.261 -12.591 -28.769  0.00  0.00    +0.000 HD
ENDBRANCH  18  19
BRANCH  18  23
ATOM     23  C   UNL     1       8.172 -13.300 -26.113  0.00  0.00    +0.000 C 
ATOM     24  H   UNL     1       9.165 -13.425 -26.559  0.00  0.00    +0.000 HD
ATOM     25  H   UNL     1       7.632 -14.241 -26.271  0.00  0.00    +0.000 HD
ATOM     26  H   UNL     1       8.310 -13.141 -25.039  0.00  0.00    +0.000 HD
ENDBRANCH  18  23
ENDBRANCH   1  18
TORSDOF 6
ENDMDL
MODEL 8
REMARK VINA RESULT:    -3.731     11.331     12.670
REMARK INTER + INTRA:          -4.931
REMARK INTER:                  -4.715
REMARK INTRA:                  -0.216
REMARK UNBOUND:                -0.219
REMARK  Name = 82336
REMARK  6 active torsions:
REMARK  status: ('A' for Active; 'I' for Inactive)
REMARK    1  A    between atoms: O_1  and  C_12
REMARK    2  A    between atoms: O_1  and  C_13
REMARK    3  A    between atoms: N_3  and  C_4
REMARK    4  A    between atoms: N_3  and  C_8
REMARK    5  A    between atoms: N_3  and  C_9
REMARK    6  A    between atoms: C_5  and  C_12
REMARK                            x       y       z     vdW  Elec       q    Type
REMARK                         _______ _______ _______ _____ _____    ______ ____
ROOT
ATOM      1  C   UNL     1       4.514  14.208 -11.594  0.00  0.00    +0.000 A 
ATOM      2  C   UNL     1       3.832  13.637 -10.519  0.00  0.00    +0.000 A 
ATOM      3  C   UNL     1       4.732  13.466 -12.755  0.00  0.00    +0.000 A 
ATOM      4  C   UNL     1       3.370  12.324 -10.604  0.00  0.00    +0.000 A 
ATOM      5  C   UNL     1       4.269  12.153 -12.840  0.00  0.00    +0.000 A 
ATOM      6  C   UNL     1       3.589  11.582 -11.764  0.00  0.00    +0.000 A 
ATOM      7  H   UNL     1       5.266  13.891 -13.600  0.00  0.00    +0.000 HD
ATOM      8  H   UNL     1       2.838  11.869  -9.773  0.00  0.00    +0.000 HD
ATOM      9  H   UNL     1       4.441  11.573 -13.743  0.00  0.00    +0.000 HD
ATOM     10  H   UNL     1       3.228  10.559 -11.831  0.00  0.00    +0.000 HD
ENDROOT
BRANCH   2  12
ATOM     11  O   UNL     1       2.563  15.040  -9.067  0.00  0.00    +0.000 OA
ATOM     12  C   UNL     1       3.588  14.386  -9.293  0.00  0.00    +0.000 C 
BRANCH  12  13
ATOM     13  O   UNL     1       4.636  14.275  -8.422  0.00  0.00    +0.000 OA
BRANCH  13  14
ATOM     14  C   UNL     1       5.043  15.470  -7.747  0.00  0.00    +0.000 C 
ATOM     15  H   UNL     1       5.875  15.938  -8.279  0.00  0.00    +0.000 HD
ATOM     16  H   UNL     1       5.324  15.243  -6.713  0.00  0.00    +0.000 HD
ATOM     17  H   UNL     1       4.197  16.162  -7.738  0.00  0.00    +0.000 HD
ENDBRANCH  13  14
ENDBRANCH  12  13
ENDBRANCH   2  12
BRANCH   1  18
ATOM     18  N   UNL     1       4.991  15.536 -11.529  0.00  0.00    +0.000 N 
BRANCH  18  19
ATOM     19  C   UNL     1       6.359  15.804 -11.137  0.00  0.00    +0.000 C 
ATOM     20  H   UNL     1       6.441  15.909 -10.049  0.00  0.00    +0.000 HD
ATOM     21  H   UNL     1       6.724  16.724 -11.606  0.00  0.00    +0.000 HD
ATOM     22  H   UNL     1       7.025  14.989 -11.437  0.00  0.00    +0.000 HD
ENDBRANCH  18  19
BRANCH  18  23
ATOM     23  C   UNL     1       4.120  16.643 -11.866  0.00  0.00    +0.000 C 
ATOM     24  H   UNL     1       4.665  17.590 -11.782  0.00  0.00    +0.000 HD
ATOM     25  H   UNL     1       3.257  16.713 -11.194  0.00  0.00    +0.000 HD
ATOM     26  H   UNL     1       3.765  16.557 -12.898  0.00  0.00    +0.000 HD
ENDBRANCH  18  23
ENDBRANCH   1  18
TORSDOF 6
ENDMDL
MODEL 9
REMARK VINA RESULT:    -3.612     28.156     29.540
REMARK INTER + INTRA:          -4.781
REMARK INTER:                  -4.589
REMARK INTRA:                  -0.192
REMARK UNBOUND:                -0.219
REMARK  Name = 82336
REMARK  6 active torsions:
REMARK  status: ('A' for Active; 'I' for Inactive)
REMARK    1  A    between atoms: O_1  and  C_12
REMARK    2  A    between atoms: O_1  and  C_13
REMARK    3  A    between atoms: N_3  and  C_4
REMARK    4  A    between atoms: N_3  and  C_8
REMARK    5  A    between atoms: N_3  and  C_9
REMARK    6  A    between atoms: C_5  and  C_12
REMARK                            x       y       z     vdW  Elec       q    Type
REMARK                         _______ _______ _______ _____ _____    ______ ____
ROOT
ATOM      1  C   UNL     1     -18.134   6.716   3.485  0.00  0.00    +0.000 A 
ATOM      2  C   UNL     1     -17.466   7.155   4.629  0.00  0.00    +0.000 A 
ATOM      3  C   UNL     1     -19.314   5.982   3.605  0.00  0.00    +0.000 A 
ATOM      4  C   UNL     1     -17.978   6.859   5.892  0.00  0.00    +0.000 A 
ATOM      5  C   UNL     1     -19.826   5.687   4.868  0.00  0.00    +0.000 A 
ATOM      6  C   UNL     1     -19.158   6.124   6.011  0.00  0.00    +0.000 A 
ATOM      7  H   UNL     1     -19.844   5.627   2.725  0.00  0.00    +0.000 HD
ATOM      8  H   UNL     1     -17.467   7.195   6.791  0.00  0.00    +0.000 HD
ATOM      9  H   UNL     1     -20.744   5.113   4.961  0.00  0.00    +0.000 HD
ATOM     10  H   UNL     1     -19.557   5.894   6.995  0.00  0.00    +0.000 HD
ENDROOT
BRANCH   2  12
ATOM     11  O   UNL     1     -16.182   9.158   4.476  0.00  0.00    +0.000 OA
ATOM     12  C   UNL     1     -16.232   7.924   4.538  0.00  0.00    +0.000 C 
BRANCH  12  13
ATOM     13  O   UNL     1     -15.134   7.109   4.531  0.00  0.00    +0.000 OA
BRANCH  13  14
ATOM     14  C   UNL     1     -13.895   7.700   4.127  0.00  0.00    +0.000 C 
ATOM     15  H   UNL     1     -13.093   6.957   4.168  0.00  0.00    +0.000 HD
ATOM     16  H   UNL     1     -13.660   8.558   4.765  0.00  0.00    +0.000 HD
ATOM     17  H   UNL     1     -14.002   8.046   3.096  0.00  0.00    +0.000 HD
ENDBRANCH  13  14
ENDBRANCH  12  13
ENDBRANCH   2  12
BRANCH   1  18
ATOM     18  N   UNL     1     -17.632   7.005   2.197  0.00  0.00    +0.000 N 
BRANCH  18  19
ATOM     19  C   UNL     1     -16.742   6.076   1.532  0.00  0.00    +0.000 C 
ATOM     20  H   UNL     1     -17.282   5.178   1.211  0.00  0.00    +0.000 HD
ATOM     21  H   UNL     1     -15.927   5.775   2.198  0.00  0.00    +0.000 HD
ATOM     22  H   UNL     1     -16.295   6.525   0.639  0.00  0.00    +0.000 HD
ENDBRANCH  18  19
BRANCH  18  23
ATOM     23  C   UNL     1     -18.013   8.228   1.520  0.00  0.00    +0.000 C 
ATOM     24  H   UNL     1     -19.035   8.143   1.135  0.00  0.00    +0.000 HD
ATOM     25  H   UNL     1     -17.367   8.446   0.662  0.00  0.00    +0.000 HD
ATOM     26  H   UNL     1     -17.990   9.077   2.212  0.00  0.00    +0.000 HD
ENDBRANCH  18  23
ENDBRANCH   1  18
TORSDOF 6
ENDMDL
MODEL 10
REMARK VINA RESULT:    -3.582     16.238     17.536
REMARK INTER + INTRA:          -4.743
REMARK INTER:                  -4.525
REMARK INTRA:                  -0.219
REMARK UNBOUND:                -0.219
REMARK  Name = 82336
REMARK  6 active torsions:
REMARK  status: ('A' for Active; 'I' for Inactive)
REMARK    1  A    between atoms: O_1  and  C_12
REMARK    2  A    between atoms: O_1  and  C_13
REMARK    3  A    between atoms: N_3  and  C_4
REMARK    4  A    between atoms: N_3  and  C_8
REMARK    5  A    between atoms: N_3  and  C_9
REMARK    6  A    between atoms: C_5  and  C_12
REMARK                            x       y       z     vdW  Elec       q    Type
REMARK                         _______ _______ _______ _____ _____    ______ ____
ROOT
ATOM      1  C   UNL     1      17.636  -4.656 -14.143  0.00  0.00    +0.000 A 
ATOM      2  C   UNL     1      18.707  -4.065 -13.472  0.00  0.00    +0.000 A 
ATOM      3  C   UNL     1      16.695  -3.859 -14.794  0.00  0.00    +0.000 A 
ATOM      4  C   UNL     1      18.835  -2.677 -13.451  0.00  0.00    +0.000 A 
ATOM      5  C   UNL     1      16.823  -2.471 -14.773  0.00  0.00    +0.000 A 
ATOM      6  C   UNL     1      17.894  -1.879 -14.101  0.00  0.00    +0.000 A 
ATOM      7  H   UNL     1      15.851  -4.302 -15.316  0.00  0.00    +0.000 HD
ATOM      8  H   UNL     1      19.665  -2.204 -12.932  0.00  0.00    +0.000 HD
ATOM      9  H   UNL     1      16.089  -1.849 -15.278  0.00  0.00    +0.000 HD
ATOM     10  H   UNL     1      17.994  -0.798 -14.085  0.00  0.00    +0.000 HD
ENDROOT
BRANCH   2  12
ATOM     11  O   UNL     1      20.674  -5.406 -13.338  0.00  0.00    +0.000 OA
ATOM     12  C   UNL     1      19.707  -4.870 -12.783  0.00  0.00    +0.000 C 
BRANCH  12  13
ATOM     13  O   UNL     1      19.444  -4.958 -11.444  0.00  0.00    +0.000 OA
BRANCH  13  14
ATOM     14  C   UNL     1      19.607  -6.244 -10.838  0.00  0.00    +0.000 C 
ATOM     15  H   UNL     1      19.177  -6.243  -9.832  0.00  0.00    +0.000 HD
ATOM     16  H   UNL     1      20.667  -6.515 -10.805  0.00  0.00    +0.000 HD
ATOM     17  H   UNL     1      19.074  -6.978 -11.447  0.00  0.00    +0.000 HD
ENDBRANCH  13  14
ENDBRANCH  12  13
ENDBRANCH   2  12
BRANCH   1  18
ATOM     18  N   UNL     1      17.488  -6.061 -14.176  0.00  0.00    +0.000 N 
BRANCH  18  19
ATOM     19  C   UNL     1      16.760  -6.745 -13.128  0.00  0.00    +0.000 C 
ATOM     20  H   UNL     1      15.762  -6.312 -12.997  0.00  0.00    +0.000 HD
ATOM     21  H   UNL     1      17.297  -6.681 -12.176  0.00  0.00    +0.000 HD
ATOM     22  H   UNL     1      16.626  -7.806 -13.365  0.00  0.00    +0.000 HD
ENDBRANCH  18  19
BRANCH  18  23
ATOM     23  C   UNL     1      18.050  -6.831 -15.267  0.00  0.00    +0.000 C 
ATOM     24  H   UNL     1      17.397  -7.677 -15.507  0.00  0.00    +0.000 HD
ATOM     25  H   UNL     1      19.032  -7.249 -15.017  0.00  0.00    +0.000 HD
ATOM     26  H   UNL     1      18.140  -6.217 -16.168  0.00  0.00    +0.000 HD
ENDBRANCH  18  23
ENDBRANCH   1  18
TORSDOF 6
ENDMDL
