MODEL 1
REMARK VINA RESULT:    -5.116      0.000      0.000
REMARK INTER + INTRA:          -7.398
REMARK INTER:                  -7.002
REMARK INTRA:                  -0.397
REMARK UNBOUND:                -0.488
REMARK  Name = 605629
REMARK  8 active torsions:
REMARK  status: ('A' for Active; 'I' for Inactive)
REMARK    1  A    between atoms: O_1  and  C_14
REMARK    2  A    between atoms: O_1  and  C_15
REMARK    3  A    between atoms: C_3  and  C_4
REMARK    4  A    between atoms: C_3  and  C_5
REMARK    5  A    between atoms: C_3  and  C_6
REMARK    6  A    between atoms: C_3  and  C_7
REMARK    7  A    between atoms: C_10  and  C_13
REMARK    8  A    between atoms: C_13  and  C_14
REMARK                            x       y       z     vdW  Elec       q    Type
REMARK                         _______ _______ _______ _____ _____    ______ ____
ROOT
ATOM      1  C   UNL     1       4.400  -4.166  15.456  0.00  0.00    +0.000 A 
ATOM      2  C   UNL     1       3.242  -3.559  15.872  0.00  0.00    +0.000 A 
ATOM      3  C   UNL     1       4.931  -5.276  16.064  0.00  0.00    +0.000 A 
ATOM      4  C   UNL     1       3.079  -5.226  17.614  0.00  0.00    +0.000 A 
ATOM      5  C   UNL     1       2.570  -4.098  16.969  0.00  0.00    +0.000 A 
ATOM      6  C   UNL     1       4.259  -5.815  17.161  0.00  0.00    +0.000 A 
ATOM      7  H   UNL     1       2.828  -2.682  15.387  0.00  0.00    +0.000 HD
ATOM      8  H   UNL     1       5.842  -5.773  15.755  0.00  0.00    +0.000 HD
ATOM      9  H   UNL     1       1.652  -3.628  17.314  0.00  0.00    +0.000 HD
ATOM     10  H   UNL     1       4.666  -6.692  17.655  0.00  0.00    +0.000 HD
ENDROOT
BRANCH   4  11
ATOM     11  C   UNL     1       2.361  -5.801  18.787  0.00  0.00    +0.000 C 
ATOM     12  H   UNL     1       1.278  -5.762  18.616  0.00  0.00    +0.000 HD
ATOM     13  H   UNL     1       2.633  -6.857  18.904  0.00  0.00    +0.000 HD
BRANCH  11  15
ATOM     14  O   UNL     1       3.381  -4.103  20.200  0.00  0.00    +0.000 OA
ATOM     15  C   UNL     1       2.661  -5.086  20.090  0.00  0.00    +0.000 C 
BRANCH  15  16
ATOM     16  O   UNL     1       2.000  -5.710  21.111  0.00  0.00    +0.000 OA
BRANCH  16  17
ATOM     17  C   UNL     1       0.977  -6.629  20.714  0.00  0.00    +0.000 C 
ATOM     18  H   UNL     1       1.012  -6.789  19.632  0.00  0.00    +0.000 HD
ATOM     19  H   UNL     1      -0.005  -6.256  21.019  0.00  0.00    +0.000 HD
ATOM     20  H   UNL     1       1.162  -7.582  21.216  0.00  0.00    +0.000 HD
ENDBRANCH  16  17
ENDBRANCH  15  16
ENDBRANCH  11  15
ENDBRANCH   4  11
BRANCH   1  21
ATOM     21  C   UNL     1       5.141  -3.573  14.246  0.00  0.00    +0.000 C 
BRANCH  21  22
ATOM     22  C   UNL     1       6.645  -3.438  14.573  0.00  0.00    +0.000 C 
ATOM     23  H   UNL     1       6.954  -4.181  15.317  0.00  0.00    +0.000 HD
ATOM     24  H   UNL     1       7.279  -3.587  13.693  0.00  0.00    +0.000 HD
ATOM     25  H   UNL     1       6.873  -2.445  14.979  0.00  0.00    +0.000 HD
ENDBRANCH  21  22
BRANCH  21  26
ATOM     26  C   UNL     1       4.566  -2.176  13.920  0.00  0.00    +0.000 C 
ATOM     27  H   UNL     1       4.218  -2.099  12.884  0.00  0.00    +0.000 HD
ATOM     28  H   UNL     1       3.709  -1.943  14.561  0.00  0.00    +0.000 HD
ATOM     29  H   UNL     1       5.319  -1.394  14.073  0.00  0.00    +0.000 HD
ENDBRANCH  21  26
BRANCH  21  30
ATOM     30  C   UNL     1       5.026  -4.424  12.962  0.00  0.00    +0.000 C 
ATOM     31  H   UNL     1       5.282  -3.829  12.077  0.00  0.00    +0.000 HD
ATOM     32  H   UNL     1       5.714  -5.278  12.973  0.00  0.00    +0.000 HD
ATOM     33  H   UNL     1       4.007  -4.795  12.804  0.00  0.00    +0.000 HD
ENDBRANCH  21  30
ENDBRANCH   1  21
TORSDOF 8
ENDMDL
MODEL 2
REMARK VINA RESULT:    -4.886     11.221     12.623
REMARK INTER + INTRA:          -7.087
REMARK INTER:                  -6.706
REMARK INTRA:                  -0.381
REMARK UNBOUND:                -0.488
REMARK  Name = 605629
REMARK  8 active torsions:
REMARK  status: ('A' for Active; 'I' for Inactive)
REMARK    1  A    between atoms: O_1  and  C_14
REMARK    2  A    between atoms: O_1  and  C_15
REMARK    3  A    between atoms: C_3  and  C_4
REMARK    4  A    between atoms: C_3  and  C_5
REMARK    5  A    between atoms: C_3  and  C_6
REMARK    6  A    between atoms: C_3  and  C_7
REMARK    7  A    between atoms: C_10  and  C_13
REMARK    8  A    between atoms: C_13  and  C_14
REMARK                            x       y       z     vdW  Elec       q    Type
REMARK                         _______ _______ _______ _____ _____    ______ ____
ROOT
ATOM      1  C   UNL     1       1.793   7.500  19.679  0.00  0.00    +0.000 A 
ATOM      2  C   UNL     1       2.226   7.991  20.885  0.00  0.00    +0.000 A 
ATOM      3  C   UNL     1       2.606   6.825  18.803  0.00  0.00    +0.000 A 
ATOM      4  C   UNL     1       4.418   7.110  20.376  0.00  0.00    +0.000 A 
ATOM      5  C   UNL     1       3.561   7.792  21.240  0.00  0.00    +0.000 A 
ATOM      6  C   UNL     1       3.941   6.626  19.158  0.00  0.00    +0.000 A 
ATOM      7  H   UNL     1       1.579   8.524  21.573  0.00  0.00    +0.000 HD
ATOM      8  H   UNL     1       2.290   6.429  17.847  0.00  0.00    +0.000 HD
ATOM      9  H   UNL     1       3.922   8.176  22.191  0.00  0.00    +0.000 HD
ATOM     10  H   UNL     1       4.599   6.096  18.476  0.00  0.00    +0.000 HD
ENDROOT
BRANCH   4  11
ATOM     11  C   UNL     1       5.845   6.899  20.755  0.00  0.00    +0.000 C 
ATOM     12  H   UNL     1       6.411   7.826  20.603  0.00  0.00    +0.000 HD
ATOM     13  H   UNL     1       5.909   6.650  21.821  0.00  0.00    +0.000 HD
BRANCH  11  15
ATOM     14  O   UNL     1       7.231   5.969  18.985  0.00  0.00    +0.000 OA
ATOM     15  C   UNL     1       6.523   5.795  19.967  0.00  0.00    +0.000 C 
BRANCH  15  16
ATOM     16  O   UNL     1       6.218   4.586  20.528  0.00  0.00    +0.000 OA
BRANCH  16  17
ATOM     17  C   UNL     1       6.567   3.439  19.747  0.00  0.00    +0.000 C 
ATOM     18  H   UNL     1       7.572   3.093  20.010  0.00  0.00    +0.000 HD
ATOM     19  H   UNL     1       6.506   3.674  18.680  0.00  0.00    +0.000 HD
ATOM     20  H   UNL     1       5.852   2.643  19.972  0.00  0.00    +0.000 HD
ENDBRANCH  16  17
ENDBRANCH  15  16
ENDBRANCH  11  15
ENDBRANCH   4  11
BRANCH   1  21
ATOM     21  C   UNL     1       0.322   7.719  19.288  0.00  0.00    +0.000 C 
BRANCH  21  22
ATOM     22  C   UNL     1      -0.469   8.233  20.510  0.00  0.00    +0.000 C 
ATOM     23  H   UNL     1      -0.293   9.304  20.672  0.00  0.00    +0.000 HD
ATOM     24  H   UNL     1      -1.550   8.103  20.393  0.00  0.00    +0.000 HD
ATOM     25  H   UNL     1      -0.171   7.706  21.424  0.00  0.00    +0.000 HD
ENDBRANCH  21  22
BRANCH  21  26
ATOM     26  C   UNL     1      -0.292   6.384  18.811  0.00  0.00    +0.000 C 
ATOM     27  H   UNL     1      -0.569   5.730  19.644  0.00  0.00    +0.000 HD
ATOM     28  H   UNL     1      -1.203   6.556  18.226  0.00  0.00    +0.000 HD
ATOM     29  H   UNL     1       0.411   5.831  18.178  0.00  0.00    +0.000 HD
ENDBRANCH  21  26
BRANCH  21  30
ATOM     30  C   UNL     1       0.124   8.744  18.149  0.00  0.00    +0.000 C 
ATOM     31  H   UNL     1       1.015   9.372  18.031  0.00  0.00    +0.000 HD
ATOM     32  H   UNL     1      -0.044   8.255  17.182  0.00  0.00    +0.000 HD
ATOM     33  H   UNL     1      -0.712   9.424  18.349  0.00  0.00    +0.000 HD
ENDBRANCH  21  30
ENDBRANCH   1  21
TORSDOF 8
ENDMDL
MODEL 3
REMARK VINA RESULT:    -4.831     15.946     19.275
REMARK INTER + INTRA:          -7.013
REMARK INTER:                  -6.575
REMARK INTRA:                  -0.438
REMARK UNBOUND:                -0.488
REMARK  Name = 605629
REMARK  8 active torsions:
REMARK  status: ('A' for Active; 'I' for Inactive)
REMARK    1  A    between atoms: O_1  and  C_14
REMARK    2  A    between atoms: O_1  and  C_15
REMARK    3  A    between atoms: C_3  and  C_4
REMARK    4  A    between atoms: C_3  and  C_5
REMARK    5  A    between atoms: C_3  and  C_6
REMARK    6  A    between atoms: C_3  and  C_7
REMARK    7  A    between atoms: C_10  and  C_13
REMARK    8  A    between atoms: C_13  and  C_14
REMARK                            x       y       z     vdW  Elec       q    Type
REMARK                         _______ _______ _______ _____ _____    ______ ____
ROOT
ATOM      1  C   UNL     1       9.338  -0.862   1.273  0.00  0.00    +0.000 A 
ATOM      2  C   UNL     1       8.977  -1.754   0.295  0.00  0.00    +0.000 A 
ATOM      3  C   UNL     1       9.319   0.500   1.098  0.00  0.00    +0.000 A 
ATOM      4  C   UNL     1       8.536   0.126  -1.157  0.00  0.00    +0.000 A 
ATOM      5  C   UNL     1       8.568  -1.252  -0.940  0.00  0.00    +0.000 A 
ATOM      6  C   UNL     1       8.910   1.002  -0.138  0.00  0.00    +0.000 A 
ATOM      7  H   UNL     1       8.994  -2.828   0.441  0.00  0.00    +0.000 HD
ATOM      8  H   UNL     1       9.599   1.223   1.852  0.00  0.00    +0.000 HD
ATOM      9  H   UNL     1       8.281  -1.944  -1.728  0.00  0.00    +0.000 HD
ATOM     10  H   UNL     1       8.892   2.076  -0.295  0.00  0.00    +0.000 HD
ENDROOT
BRANCH   4  11
ATOM     11  C   UNL     1       8.100   0.663  -2.479  0.00  0.00    +0.000 C 
ATOM     12  H   UNL     1       8.056   1.758  -2.439  0.00  0.00    +0.000 HD
ATOM     13  H   UNL     1       8.837   0.395  -3.245  0.00  0.00    +0.000 HD
BRANCH  11  15
ATOM     14  O   UNL     1       5.775   0.007  -2.189  0.00  0.00    +0.000 OA
ATOM     15  C   UNL     1       6.745   0.150  -2.922  0.00  0.00    +0.000 C 
BRANCH  15  16
ATOM     16  O   UNL     1       6.780  -0.121  -4.262  0.00  0.00    +0.000 OA
BRANCH  16  17
ATOM     17  C   UNL     1       7.959  -0.785  -4.726  0.00  0.00    +0.000 C 
ATOM     18  H   UNL     1       8.643  -0.065  -5.187  0.00  0.00    +0.000 HD
ATOM     19  H   UNL     1       7.695  -1.575  -5.436  0.00  0.00    +0.000 HD
ATOM     20  H   UNL     1       8.456  -1.239  -3.865  0.00  0.00    +0.000 HD
ENDBRANCH  16  17
ENDBRANCH  15  16
ENDBRANCH  11  15
ENDBRANCH   4  11
BRANCH   1  21
ATOM     21  C   UNL     1       9.788  -1.415   2.636  0.00  0.00    +0.000 C 
BRANCH  21  22
ATOM     22  C   UNL     1       8.684  -1.168   3.687  0.00  0.00    +0.000 C 
ATOM     23  H   UNL     1       7.693  -1.135   3.219  0.00  0.00    +0.000 HD
ATOM     24  H   UNL     1       8.649  -1.953   4.449  0.00  0.00    +0.000 HD
ATOM     25  H   UNL     1       8.839  -0.213   4.205  0.00  0.00    +0.000 HD
ENDBRANCH  21  22
BRANCH  21  26
ATOM     26  C   UNL     1      11.083  -0.702   3.083  0.00  0.00    +0.000 C 
ATOM     27  H   UNL     1      11.031  -0.351   4.119  0.00  0.00    +0.000 HD
ATOM     28  H   UNL     1      11.946  -1.376   3.019  0.00  0.00    +0.000 HD
ATOM     29  H   UNL     1      11.293   0.168   2.451  0.00  0.00    +0.000 HD
ENDBRANCH  21  26
BRANCH  21  30
ATOM     30  C   UNL     1      10.082  -2.932   2.629  0.00  0.00    +0.000 C 
ATOM     31  H   UNL     1      10.975  -3.157   3.224  0.00  0.00    +0.000 HD
ATOM     32  H   UNL     1       9.261  -3.511   3.068  0.00  0.00    +0.000 HD
ATOM     33  H   UNL     1      10.278  -3.308   1.618  0.00  0.00    +0.000 HD
ENDBRANCH  21  30
ENDBRANCH   1  21
TORSDOF 8
ENDMDL
MODEL 4
REMARK VINA RESULT:    -4.805     24.998     26.315
REMARK INTER + INTRA:          -6.978
REMARK INTER:                  -6.456
REMARK INTRA:                  -0.522
REMARK UNBOUND:                -0.488
REMARK  Name = 605629
REMARK  8 active torsions:
REMARK  status: ('A' for Active; 'I' for Inactive)
REMARK    1  A    between atoms: O_1  and  C_14
REMARK    2  A    between atoms: O_1  and  C_15
REMARK    3  A    between atoms: C_3  and  C_4
REMARK    4  A    between atoms: C_3  and  C_5
REMARK    5  A    between atoms: C_3  and  C_6
REMARK    6  A    between atoms: C_3  and  C_7
REMARK    7  A    between atoms: C_10  and  C_13
REMARK    8  A    between atoms: C_13  and  C_14
REMARK                            x       y       z     vdW  Elec       q    Type
REMARK                         _______ _______ _______ _____ _____    ______ ____
ROOT
ATOM      1  C   UNL     1       9.839  16.381   2.904  0.00  0.00    +0.000 A 
ATOM      2  C   UNL     1       9.566  15.109   2.467  0.00  0.00    +0.000 A 
ATOM      3  C   UNL     1      11.074  16.775   3.354  0.00  0.00    +0.000 A 
ATOM      4  C   UNL     1      11.866  14.533   2.929  0.00  0.00    +0.000 A 
ATOM      5  C   UNL     1      10.596  14.169   2.479  0.00  0.00    +0.000 A 
ATOM      6  C   UNL     1      12.104  15.835   3.367  0.00  0.00    +0.000 A 
ATOM      7  H   UNL     1       8.587  14.804   2.112  0.00  0.00    +0.000 HD
ATOM      8  H   UNL     1      11.314  17.771   3.704  0.00  0.00    +0.000 HD
ATOM      9  H   UNL     1      10.398  13.157   2.138  0.00  0.00    +0.000 HD
ATOM     10  H   UNL     1      13.088  16.130   3.722  0.00  0.00    +0.000 HD
ENDROOT
BRANCH   4  11
ATOM     11  C   UNL     1      12.968  13.528   2.944  0.00  0.00    +0.000 C 
ATOM     12  H   UNL     1      13.831  13.931   3.486  0.00  0.00    +0.000 HD
ATOM     13  H   UNL     1      12.638  12.629   3.479  0.00  0.00    +0.000 HD
BRANCH  11  15
ATOM     14  O   UNL     1      13.060  12.108   0.971  0.00  0.00    +0.000 OA
ATOM     15  C   UNL     1      13.427  13.115   1.560  0.00  0.00    +0.000 C 
BRANCH  15  16
ATOM     16  O   UNL     1      14.309  14.043   1.080  0.00  0.00    +0.000 OA
BRANCH  16  17
ATOM     17  C   UNL     1      15.436  14.316   1.921  0.00  0.00    +0.000 C 
ATOM     18  H   UNL     1      15.572  13.507   2.645  0.00  0.00    +0.000 HD
ATOM     19  H   UNL     1      15.303  15.274   2.431  0.00  0.00    +0.000 HD
ATOM     20  H   UNL     1      16.326  14.374   1.289  0.00  0.00    +0.000 HD
ENDBRANCH  16  17
ENDBRANCH  15  16
ENDBRANCH  11  15
ENDBRANCH   4  11
BRANCH   1  21
ATOM     21  C   UNL     1       8.702  17.417   2.890  0.00  0.00    +0.000 C 
BRANCH  21  22
ATOM     22  C   UNL     1       9.175  18.697   2.169  0.00  0.00    +0.000 C 
ATOM     23  H   UNL     1       8.481  19.528   2.344  0.00  0.00    +0.000 HD
ATOM     24  H   UNL     1      10.161  19.030   2.510  0.00  0.00    +0.000 HD
ATOM     25  H   UNL     1       9.238  18.539   1.085  0.00  0.00    +0.000 HD
ENDBRANCH  21  22
BRANCH  21  26
ATOM     26  C   UNL     1       8.304  17.769   4.341  0.00  0.00    +0.000 C 
ATOM     27  H   UNL     1       7.422  17.215   4.679  0.00  0.00    +0.000 HD
ATOM     28  H   UNL     1       9.114  17.534   5.040  0.00  0.00    +0.000 HD
ATOM     29  H   UNL     1       8.079  18.837   4.439  0.00  0.00    +0.000 HD
ENDBRANCH  21  26
BRANCH  21  30
ATOM     30  C   UNL     1       7.423  16.933   2.172  0.00  0.00    +0.000 C 
ATOM     31  H   UNL     1       7.304  17.440   1.206  0.00  0.00    +0.000 HD
ATOM     32  H   UNL     1       7.454  15.858   1.958  0.00  0.00    +0.000 HD
ATOM     33  H   UNL     1       6.519  17.150   2.752  0.00  0.00    +0.000 HD
ENDBRANCH  21  30
ENDBRANCH   1  21
TORSDOF 8
ENDMDL
MODEL 5
REMARK VINA RESULT:    -4.619     32.342     34.452
REMARK INTER + INTRA:          -6.726
REMARK INTER:                  -6.246
REMARK INTRA:                  -0.481
REMARK UNBOUND:                -0.488
REMARK  Name = 605629
REMARK  8 active torsions:
REMARK  status: ('A' for Active; 'I' for Inactive)
REMARK    1  A    between atoms: O_1  and  C_14
REMARK    2  A    between atoms: O_1  and  C_15
REMARK    3  A    between atoms: C_3  and  C_4
REMARK    4  A    between atoms: C_3  and  C_5
REMARK    5  A    between atoms: C_3  and  C_6
REMARK    6  A    between atoms: C_3  and  C_7
REMARK    7  A    between atoms: C_10  and  C_13
REMARK    8  A    between atoms: C_13  and  C_14
REMARK                            x       y       z     vdW  Elec       q    Type
REMARK                         _______ _______ _______ _____ _____    ______ ____
ROOT
ATOM      1  C   UNL     1       4.198  14.270 -10.047  0.00  0.00    +0.000 A 
ATOM      2  C   UNL     1       4.958  14.657 -11.122  0.00  0.00    +0.000 A 
ATOM      3  C   UNL     1       3.425  13.136 -10.039  0.00  0.00    +0.000 A 
ATOM      4  C   UNL     1       4.172  12.697 -12.294  0.00  0.00    +0.000 A 
ATOM      5  C   UNL     1       4.945  13.857 -12.264  0.00  0.00    +0.000 A 
ATOM      6  C   UNL     1       3.412  12.336 -11.182  0.00  0.00    +0.000 A 
ATOM      7  H   UNL     1       5.566  15.555 -11.122  0.00  0.00    +0.000 HD
ATOM      8  H   UNL     1       2.817  12.809  -9.205  0.00  0.00    +0.000 HD
ATOM      9  H   UNL     1       5.540  14.150 -13.126  0.00  0.00    +0.000 HD
ATOM     10  H   UNL     1       2.804  11.436 -11.193  0.00  0.00    +0.000 HD
ENDROOT
BRANCH   4  11
ATOM     11  C   UNL     1       4.157  11.842 -13.516  0.00  0.00    +0.000 C 
ATOM     12  H   UNL     1       5.172  11.757 -13.922  0.00  0.00    +0.000 HD
ATOM     13  H   UNL     1       3.826  10.830 -13.253  0.00  0.00    +0.000 HD
BRANCH  11  15
ATOM     14  O   UNL     1       2.101  12.750 -14.446  0.00  0.00    +0.000 OA
ATOM     15  C   UNL     1       3.251  12.369 -14.612  0.00  0.00    +0.000 C 
BRANCH  15  16
ATOM     16  O   UNL     1       3.923  12.350 -15.802  0.00  0.00    +0.000 OA
BRANCH  16  17
ATOM     17  C   UNL     1       5.340  12.530 -15.714  0.00  0.00    +0.000 C 
ATOM     18  H   UNL     1       5.801  12.397 -16.697  0.00  0.00    +0.000 HD
ATOM     19  H   UNL     1       5.766  11.830 -14.989  0.00  0.00    +0.000 HD
ATOM     20  H   UNL     1       5.533  13.550 -15.371  0.00  0.00    +0.000 HD
ENDBRANCH  16  17
ENDBRANCH  15  16
ENDBRANCH  11  15
ENDBRANCH   4  11
BRANCH   1  21
ATOM     21  C   UNL     1       4.212  15.152  -8.787  0.00  0.00    +0.000 C 
BRANCH  21  22
ATOM     22  C   UNL     1       2.826  15.110  -8.108  0.00  0.00    +0.000 C 
ATOM     23  H   UNL     1       2.249  16.015  -8.332  0.00  0.00    +0.000 HD
ATOM     24  H   UNL     1       2.223  14.259  -8.441  0.00  0.00    +0.000 HD
ATOM     25  H   UNL     1       2.923  15.039  -7.018  0.00  0.00    +0.000 HD
ENDBRANCH  21  22
BRANCH  21  26
ATOM     26  C   UNL     1       4.541  16.610  -9.178  0.00  0.00    +0.000 C 
ATOM     27  H   UNL     1       4.490  16.775 -10.260  0.00  0.00    +0.000 HD
ATOM     28  H   UNL     1       3.836  17.311  -8.716  0.00  0.00    +0.000 HD
ATOM     29  H   UNL     1       5.550  16.887  -8.851  0.00  0.00    +0.000 HD
ENDBRANCH  21  26
BRANCH  21  30
ATOM     30  C   UNL     1       5.252  14.718  -7.731  0.00  0.00    +0.000 C 
ATOM     31  H   UNL     1       5.123  13.660  -7.469  0.00  0.00    +0.000 HD
ATOM     32  H   UNL     1       6.280  14.825  -8.099  0.00  0.00    +0.000 HD
ATOM     33  H   UNL     1       5.152  15.284  -6.798  0.00  0.00    +0.000 HD
ENDBRANCH  21  30
ENDBRANCH   1  21
TORSDOF 8
ENDMDL
MODEL 6
REMARK VINA RESULT:    -4.559     29.385     30.535
REMARK INTER + INTRA:          -6.646
REMARK INTER:                  -6.118
REMARK INTRA:                  -0.529
REMARK UNBOUND:                -0.488
REMARK  Name = 605629
REMARK  8 active torsions:
REMARK  status: ('A' for Active; 'I' for Inactive)
REMARK    1  A    between atoms: O_1  and  C_14
REMARK    2  A    between atoms: O_1  and  C_15
REMARK    3  A    between atoms: C_3  and  C_4
REMARK    4  A    between atoms: C_3  and  C_5
REMARK    5  A    between atoms: C_3  and  C_6
REMARK    6  A    between atoms: C_3  and  C_7
REMARK    7  A    between atoms: C_10  and  C_13
REMARK    8  A    between atoms: C_13  and  C_14
REMARK                            x       y       z     vdW  Elec       q    Type
REMARK                         _______ _______ _______ _____ _____    ______ ____
ROOT
ATOM      1  C   UNL     1     -21.338 -13.405   6.325  0.00  0.00    +0.000 A 
ATOM      2  C   UNL     1     -22.097 -12.672   7.201  0.00  0.00    +0.000 A 
ATOM      3  C   UNL     1     -21.866 -14.084   5.255  0.00  0.00    +0.000 A 
ATOM      4  C   UNL     1     -24.048 -13.289   5.917  0.00  0.00    +0.000 A 
ATOM      5  C   UNL     1     -23.475 -12.612   6.994  0.00  0.00    +0.000 A 
ATOM      6  C   UNL     1     -23.244 -14.024   5.048  0.00  0.00    +0.000 A 
ATOM      7  H   UNL     1     -21.674 -12.138   8.045  0.00  0.00    +0.000 HD
ATOM      8  H   UNL     1     -21.289 -14.669   4.550  0.00  0.00    +0.000 HD
ATOM      9  H   UNL     1     -24.092 -12.037   7.681  0.00  0.00    +0.000 HD
ATOM     10  H   UNL     1     -23.678 -14.557   4.207  0.00  0.00    +0.000 HD
ENDROOT
BRANCH   4  11
ATOM     11  C   UNL     1     -25.522 -13.226   5.697  0.00  0.00    +0.000 C 
ATOM     12  H   UNL     1     -25.976 -12.530   6.413  0.00  0.00    +0.000 HD
ATOM     13  H   UNL     1     -25.727 -12.837   4.692  0.00  0.00    +0.000 HD
BRANCH  11  15
ATOM     14  O   UNL     1     -26.237 -15.240   6.859  0.00  0.00    +0.000 OA
ATOM     15  C   UNL     1     -26.212 -14.568   5.837  0.00  0.00    +0.000 C 
BRANCH  15  16
ATOM     16  O   UNL     1     -26.799 -14.901   4.648  0.00  0.00    +0.000 OA
BRANCH  16  17
ATOM     17  C   UNL     1     -26.320 -16.105   4.040  0.00  0.00    +0.000 C 
ATOM     18  H   UNL     1     -26.866 -16.304   3.113  0.00  0.00    +0.000 HD
ATOM     19  H   UNL     1     -26.419 -16.945   4.734  0.00  0.00    +0.000 HD
ATOM     20  H   UNL     1     -25.262 -15.969   3.802  0.00  0.00    +0.000 HD
ENDBRANCH  16  17
ENDBRANCH  15  16
ENDBRANCH  11  15
ENDBRANCH   4  11
BRANCH   1  21
ATOM     21  C   UNL     1     -19.819 -13.471   6.553  0.00  0.00    +0.000 C 
BRANCH  21  22
ATOM     22  C   UNL     1     -19.519 -13.446   8.068  0.00  0.00    +0.000 C 
ATOM     23  H   UNL     1     -19.137 -12.467   8.378  0.00  0.00    +0.000 HD
ATOM     24  H   UNL     1     -20.409 -13.646   8.673  0.00  0.00    +0.000 HD
ATOM     25  H   UNL     1     -18.765 -14.197   8.333  0.00  0.00    +0.000 HD
ENDBRANCH  21  22
BRANCH  21  26
ATOM     26  C   UNL     1     -19.140 -12.257   5.882  0.00  0.00    +0.000 C 
ATOM     27  H   UNL     1     -18.720 -12.502   4.900  0.00  0.00    +0.000 HD
ATOM     28  H   UNL     1     -19.856 -11.441   5.726  0.00  0.00    +0.000 HD
ATOM     29  H   UNL     1     -18.323 -11.870   6.501  0.00  0.00    +0.000 HD
ENDBRANCH  21  26
BRANCH  21  30
ATOM     30  C   UNL     1     -19.154 -14.741   5.976  0.00  0.00    +0.000 C 
ATOM     31  H   UNL     1     -19.482 -14.917   4.944  0.00  0.00    +0.000 HD
ATOM     32  H   UNL     1     -18.061 -14.654   5.944  0.00  0.00    +0.000 HD
ATOM     33  H   UNL     1     -19.419 -15.639   6.545  0.00  0.00    +0.000 HD
ENDBRANCH  21  30
ENDBRANCH   1  21
TORSDOF 8
ENDMDL
MODEL 7
REMARK VINA RESULT:    -4.530     32.351     33.563
REMARK INTER + INTRA:          -6.607
REMARK INTER:                  -6.098
REMARK INTRA:                  -0.509
REMARK UNBOUND:                -0.488
REMARK  Name = 605629
REMARK  8 active torsions:
REMARK  status: ('A' for Active; 'I' for Inactive)
REMARK    1  A    between atoms: O_1  and  C_14
REMARK    2  A    between atoms: O_1  and  C_15
REMARK    3  A    between atoms: C_3  and  C_4
REMARK    4  A    between atoms: C_3  and  C_5
REMARK    5  A    between atoms: C_3  and  C_6
REMARK    6  A    between atoms: C_3  and  C_7
REMARK    7  A    between atoms: C_10  and  C_13
REMARK    8  A    between atoms: C_13  and  C_14
REMARK                            x       y       z     vdW  Elec       q    Type
REMARK                         _______ _______ _______ _____ _____    ______ ____
ROOT
ATOM      1  C   UNL     1       1.078  13.773  -9.541  0.00  0.00    +0.000 A 
ATOM      2  C   UNL     1       0.619  12.831 -10.427  0.00  0.00    +0.000 A 
ATOM      3  C   UNL     1       2.411  14.007  -9.310  0.00  0.00    +0.000 A 
ATOM      4  C   UNL     1       2.919  12.281 -10.923  0.00  0.00    +0.000 A 
ATOM      5  C   UNL     1       1.555  12.073 -11.130  0.00  0.00    +0.000 A 
ATOM      6  C   UNL     1       3.346  13.248 -10.013  0.00  0.00    +0.000 A 
ATOM      7  H   UNL     1      -0.436  12.652 -10.604  0.00  0.00    +0.000 HD
ATOM      8  H   UNL     1       2.797  14.743  -8.617  0.00  0.00    +0.000 HD
ATOM      9  H   UNL     1       1.209  11.321 -11.835  0.00  0.00    +0.000 HD
ATOM     10  H   UNL     1       4.405  13.418  -9.842  0.00  0.00    +0.000 HD
ENDROOT
BRANCH   4  11
ATOM     11  C   UNL     1       3.919  11.470 -11.674  0.00  0.00    +0.000 C 
ATOM     12  H   UNL     1       4.803  11.297 -11.048  0.00  0.00    +0.000 HD
ATOM     13  H   UNL     1       3.492  10.487 -11.912  0.00  0.00    +0.000 HD
BRANCH  11  15
ATOM     14  O   UNL     1       5.113  13.088 -13.043  0.00  0.00    +0.000 OA
ATOM     15  C   UNL     1       4.374  12.116 -12.967  0.00  0.00    +0.000 C 
BRANCH  15  16
ATOM     16  O   UNL     1       3.831  11.441 -14.025  0.00  0.00    +0.000 OA
BRANCH  16  17
ATOM     17  C   UNL     1       2.958  12.206 -14.863  0.00  0.00    +0.000 C 
ATOM     18  H   UNL     1       3.432  13.153 -15.139  0.00  0.00    +0.000 HD
ATOM     19  H   UNL     1       2.006  12.384 -14.353  0.00  0.00    +0.000 HD
ATOM     20  H   UNL     1       2.767  11.631 -15.772  0.00  0.00    +0.000 HD
ENDBRANCH  16  17
ENDBRANCH  15  16
ENDBRANCH  11  15
ENDBRANCH   4  11
BRANCH   1  21
ATOM     21  C   UNL     1       0.046  14.610  -8.766  0.00  0.00    +0.000 C 
BRANCH  21  22
ATOM     22  C   UNL     1      -1.179  13.735  -8.422  0.00  0.00    +0.000 C 
ATOM     23  H   UNL     1      -1.170  12.801  -8.996  0.00  0.00    +0.000 HD
ATOM     24  H   UNL     1      -1.211  13.457  -7.363  0.00  0.00    +0.000 HD
ATOM     25  H   UNL     1      -2.115  14.258  -8.653  0.00  0.00    +0.000 HD
ENDBRANCH  21  22
BRANCH  21  26
ATOM     26  C   UNL     1      -0.411  15.804  -9.632  0.00  0.00    +0.000 C 
ATOM     27  H   UNL     1       0.285  16.648  -9.581  0.00  0.00    +0.000 HD
ATOM     28  H   UNL     1      -0.486  15.519 -10.688  0.00  0.00    +0.000 HD
ATOM     29  H   UNL     1      -1.394  16.169  -9.314  0.00  0.00    +0.000 HD
ENDBRANCH  21  26
BRANCH  21  30
ATOM     30  C   UNL     1       0.582  15.190  -7.438  0.00  0.00    +0.000 C 
ATOM     31  H   UNL     1      -0.115  15.932  -7.028  0.00  0.00    +0.000 HD
ATOM     32  H   UNL     1       0.699  14.416  -6.669  0.00  0.00    +0.000 HD
ATOM     33  H   UNL     1       1.541  15.702  -7.570  0.00  0.00    +0.000 HD
ENDBRANCH  21  30
ENDBRANCH   1  21
TORSDOF 8
ENDMDL
MODEL 8
REMARK VINA RESULT:    -4.470     34.056     36.881
REMARK INTER + INTRA:          -6.526
REMARK INTER:                  -6.073
REMARK INTRA:                  -0.453
REMARK UNBOUND:                -0.488
REMARK  Name = 605629
REMARK  8 active torsions:
REMARK  status: ('A' for Active; 'I' for Inactive)
REMARK    1  A    between atoms: O_1  and  C_14
REMARK    2  A    between atoms: O_1  and  C_15
REMARK    3  A    between atoms: C_3  and  C_4
REMARK    4  A    between atoms: C_3  and  C_5
REMARK    5  A    between atoms: C_3  and  C_6
REMARK    6  A    between atoms: C_3  and  C_7
REMARK    7  A    between atoms: C_10  and  C_13
REMARK    8  A    between atoms: C_13  and  C_14
REMARK                            x       y       z     vdW  Elec       q    Type
REMARK                         _______ _______ _______ _____ _____    ______ ____
ROOT
ATOM      1  C   UNL     1      -1.495   1.594 -20.310  0.00  0.00    +0.000 A 
ATOM      2  C   UNL     1      -2.626   0.976 -19.839  0.00  0.00    +0.000 A 
ATOM      3  C   UNL     1      -0.969   2.733 -19.752  0.00  0.00    +0.000 A 
ATOM      4  C   UNL     1      -2.770   2.688 -18.141  0.00  0.00    +0.000 A 
ATOM      5  C   UNL     1      -3.274   1.531 -18.736  0.00  0.00    +0.000 A 
ATOM      6  C   UNL     1      -1.617   3.288 -18.648  0.00  0.00    +0.000 A 
ATOM      7  H   UNL     1      -3.036   0.077 -20.285  0.00  0.00    +0.000 HD
ATOM      8  H   UNL     1      -0.080   3.239 -20.104  0.00  0.00    +0.000 HD
ATOM      9  H   UNL     1      -4.172   1.056 -18.351  0.00  0.00    +0.000 HD
ATOM     10  H   UNL     1      -1.216   4.190 -18.195  0.00  0.00    +0.000 HD
ENDROOT
BRANCH   4  11
ATOM     11  C   UNL     1      -3.463   3.283 -16.962  0.00  0.00    +0.000 C 
ATOM     12  H   UNL     1      -3.258   4.359 -16.914  0.00  0.00    +0.000 HD
ATOM     13  H   UNL     1      -4.548   3.163 -17.074  0.00  0.00    +0.000 HD
BRANCH  11  15
ATOM     14  O   UNL     1      -3.311   1.520 -15.292  0.00  0.00    +0.000 OA
ATOM     15  C   UNL     1      -3.050   2.663 -15.642  0.00  0.00    +0.000 C 
BRANCH  15  16
ATOM     16  O   UNL     1      -2.344   3.579 -14.913  0.00  0.00    +0.000 OA
BRANCH  16  17
ATOM     17  C   UNL     1      -0.924   3.548 -15.092  0.00  0.00    +0.000 C 
ATOM     18  H   UNL     1      -0.462   4.409 -14.599  0.00  0.00    +0.000 HD
ATOM     19  H   UNL     1      -0.678   3.535 -16.158  0.00  0.00    +0.000 HD
ATOM     20  H   UNL     1      -0.543   2.633 -14.632  0.00  0.00    +0.000 HD
ENDBRANCH  16  17
ENDBRANCH  15  16
ENDBRANCH  11  15
ENDBRANCH   4  11
BRANCH   1  21
ATOM     21  C   UNL     1      -0.781   0.982 -21.526  0.00  0.00    +0.000 C 
BRANCH  21  22
ATOM     22  C   UNL     1       0.747   1.132 -21.362  0.00  0.00    +0.000 C 
ATOM     23  H   UNL     1       0.993   1.996 -20.732  0.00  0.00    +0.000 HD
ATOM     24  H   UNL     1       1.206   0.257 -20.892  0.00  0.00    +0.000 HD
ATOM     25  H   UNL     1       1.235   1.279 -22.333  0.00  0.00    +0.000 HD
ENDBRANCH  21  22
BRANCH  21  26
ATOM     26  C   UNL     1      -1.227   1.712 -22.812  0.00  0.00    +0.000 C 
ATOM     27  H   UNL     1      -2.120   2.327 -22.656  0.00  0.00    +0.000 HD
ATOM     28  H   UNL     1      -0.440   2.381 -23.179  0.00  0.00    +0.000 HD
ATOM     29  H   UNL     1      -1.457   0.997 -23.611  0.00  0.00    +0.000 HD
ENDBRANCH  21  26
BRANCH  21  30
ATOM     30  C   UNL     1      -1.073  -0.522 -21.732  0.00  0.00    +0.000 C 
ATOM     31  H   UNL     1      -2.153  -0.706 -21.774  0.00  0.00    +0.000 HD
ATOM     32  H   UNL     1      -0.656  -0.896 -22.675  0.00  0.00    +0.000 HD
ATOM     33  H   UNL     1      -0.685  -1.132 -20.908  0.00  0.00    +0.000 HD
ENDBRANCH  21  30
ENDBRANCH   1  21
TORSDOF 8
ENDMDL
MODEL 9
REMARK VINA RESULT:    -4.449     32.005     33.784
REMARK INTER + INTRA:          -6.497
REMARK INTER:                  -5.969
REMARK INTRA:                  -0.528
REMARK UNBOUND:                -0.488
REMARK  Name = 605629
REMARK  8 active torsions:
REMARK  status: ('A' for Active; 'I' for Inactive)
REMARK    1  A    between atoms: O_1  and  C_14
REMARK    2  A    between atoms: O_1  and  C_15
REMARK    3  A    between atoms: C_3  and  C_4
REMARK    4  A    between atoms: C_3  and  C_5
REMARK    5  A    between atoms: C_3  and  C_6
REMARK    6  A    between atoms: C_3  and  C_7
REMARK    7  A    between atoms: C_10  and  C_13
REMARK    8  A    between atoms: C_13  and  C_14
REMARK                            x       y       z     vdW  Elec       q    Type
REMARK                         _______ _______ _______ _____ _____    ______ ____
ROOT
ATOM      1  C   UNL     1       4.600  13.738 -11.793  0.00  0.00    +0.000 A 
ATOM      2  C   UNL     1       3.730  13.202 -10.877  0.00  0.00    +0.000 A 
ATOM      3  C   UNL     1       5.526  14.702 -11.480  0.00  0.00    +0.000 A 
ATOM      4  C   UNL     1       4.718  14.639  -9.204  0.00  0.00    +0.000 A 
ATOM      5  C   UNL     1       3.790  13.659  -9.561  0.00  0.00    +0.000 A 
ATOM      6  C   UNL     1       5.585  15.160 -10.164  0.00  0.00    +0.000 A 
ATOM      7  H   UNL     1       3.001  12.441 -11.131  0.00  0.00    +0.000 HD
ATOM      8  H   UNL     1       6.222  15.141 -12.183  0.00  0.00    +0.000 HD
ATOM      9  H   UNL     1       3.107  13.248  -8.822  0.00  0.00    +0.000 HD
ATOM     10  H   UNL     1       6.311  15.924  -9.899  0.00  0.00    +0.000 HD
ENDROOT
BRANCH   4  11
ATOM     11  C   UNL     1       4.781  15.129  -7.797  0.00  0.00    +0.000 C 
ATOM     12  H   UNL     1       4.046  14.593  -7.184  0.00  0.00    +0.000 HD
ATOM     13  H   UNL     1       5.772  14.916  -7.378  0.00  0.00    +0.000 HD
BRANCH  11  15
ATOM     14  O   UNL     1       3.508  17.186  -8.056  0.00  0.00    +0.000 OA
ATOM     15  C   UNL     1       4.516  16.615  -7.662  0.00  0.00    +0.000 C 
BRANCH  15  16
ATOM     16  O   UNL     1       5.575  17.208  -7.033  0.00  0.00    +0.000 OA
BRANCH  16  17
ATOM     17  C   UNL     1       6.463  17.944  -7.881  0.00  0.00    +0.000 C 
ATOM     18  H   UNL     1       5.920  18.744  -8.394  0.00  0.00    +0.000 HD
ATOM     19  H   UNL     1       6.938  17.274  -8.604  0.00  0.00    +0.000 HD
ATOM     20  H   UNL     1       7.239  18.392  -7.255  0.00  0.00    +0.000 HD
ENDBRANCH  16  17
ENDBRANCH  15  16
ENDBRANCH  11  15
ENDBRANCH   4  11
BRANCH   1  21
ATOM     21  C   UNL     1       4.535  13.234 -13.244  0.00  0.00    +0.000 C 
BRANCH  21  22
ATOM     22  C   UNL     1       3.731  14.232 -14.105  0.00  0.00    +0.000 C 
ATOM     23  H   UNL     1       3.752  13.946 -15.164  0.00  0.00    +0.000 HD
ATOM     24  H   UNL     1       2.678  14.285 -13.812  0.00  0.00    +0.000 HD
ATOM     25  H   UNL     1       4.146  15.244 -14.026  0.00  0.00    +0.000 HD
ENDBRANCH  21  22
BRANCH  21  26
ATOM     26  C   UNL     1       3.838  11.855 -13.283  0.00  0.00    +0.000 C 
ATOM     27  H   UNL     1       4.110  11.275 -14.172  0.00  0.00    +0.000 HD
ATOM     28  H   UNL     1       4.114  11.249 -12.412  0.00  0.00    +0.000 HD
ATOM     29  H   UNL     1       2.748  11.964 -13.282  0.00  0.00    +0.000 HD
ENDBRANCH  21  26
BRANCH  21  30
ATOM     30  C   UNL     1       5.918  13.064 -13.911  0.00  0.00    +0.000 C 
ATOM     31  H   UNL     1       6.714  13.043 -13.156  0.00  0.00    +0.000 HD
ATOM     32  H   UNL     1       5.992  12.122 -14.468  0.00  0.00    +0.000 HD
ATOM     33  H   UNL     1       6.152  13.893 -14.589  0.00  0.00    +0.000 HD
ENDBRANCH  21  30
ENDBRANCH   1  21
TORSDOF 8
ENDMDL
MODEL 10
REMARK VINA RESULT:    -4.357     24.968     25.854
REMARK INTER + INTRA:          -6.373
REMARK INTER:                  -5.885
REMARK INTRA:                  -0.488
REMARK UNBOUND:                -0.488
REMARK  Name = 605629
REMARK  8 active torsions:
REMARK  status: ('A' for Active; 'I' for Inactive)
REMARK    1  A    between atoms: O_1  and  C_14
REMARK    2  A    between atoms: O_1  and  C_15
REMARK    3  A    between atoms: C_3  and  C_4
REMARK    4  A    between atoms: C_3  and  C_5
REMARK    5  A    between atoms: C_3  and  C_6
REMARK    6  A    between atoms: C_3  and  C_7
REMARK    7  A    between atoms: C_10  and  C_13
REMARK    8  A    between atoms: C_13  and  C_14
REMARK                            x       y       z     vdW  Elec       q    Type
REMARK                         _______ _______ _______ _____ _____    ______ ____
ROOT
ATOM      1  C   UNL     1     -10.468  10.820   1.821  0.00  0.00    +0.000 A 
ATOM      2  C   UNL     1     -11.556  11.181   2.573  0.00  0.00    +0.000 A 
ATOM      3  C   UNL     1     -10.126   9.515   1.566  0.00  0.00    +0.000 A 
ATOM      4  C   UNL     1     -12.042   8.833   2.869  0.00  0.00    +0.000 A 
ATOM      5  C   UNL     1     -12.357  10.171   3.106  0.00  0.00    +0.000 A 
ATOM      6  C   UNL     1     -10.927   8.505   2.099  0.00  0.00    +0.000 A 
ATOM      7  H   UNL     1     -11.821  12.214   2.771  0.00  0.00    +0.000 HD
ATOM      8  H   UNL     1      -9.273   9.204   0.977  0.00  0.00    +0.000 HD
ATOM      9  H   UNL     1     -13.223  10.439   3.707  0.00  0.00    +0.000 HD
ATOM     10  H   UNL     1     -10.669   7.467   1.909  0.00  0.00    +0.000 HD
ENDROOT
BRANCH   4  11
ATOM     11  C   UNL     1     -12.898   7.753   3.440  0.00  0.00    +0.000 C 
ATOM     12  H   UNL     1     -12.270   6.918   3.772  0.00  0.00    +0.000 HD
ATOM     13  H   UNL     1     -13.428   8.132   4.323  0.00  0.00    +0.000 HD
BRANCH  11  15
ATOM     14  O   UNL     1     -13.675   6.475   1.521  0.00  0.00    +0.000 OA
ATOM     15  C   UNL     1     -13.925   7.215   2.463  0.00  0.00    +0.000 C 
BRANCH  15  16
ATOM     16  O   UNL     1     -15.163   7.685   2.804  0.00  0.00    +0.000 OA
BRANCH  16  17
ATOM     17  C   UNL     1     -15.434   7.748   4.207  0.00  0.00    +0.000 C 
ATOM     18  H   UNL     1     -14.778   7.062   4.751  0.00  0.00    +0.000 HD
ATOM     19  H   UNL     1     -16.485   7.513   4.401  0.00  0.00    +0.000 HD
ATOM     20  H   UNL     1     -15.234   8.768   4.547  0.00  0.00    +0.000 HD
ENDBRANCH  16  17
ENDBRANCH  15  16
ENDBRANCH  11  15
ENDBRANCH   4  11
BRANCH   1  21
ATOM     21  C   UNL     1      -9.585  11.933   1.233  0.00  0.00    +0.000 C 
BRANCH  21  22
ATOM     22  C   UNL     1      -8.363  12.165   2.148  0.00  0.00    +0.000 C 
ATOM     23  H   UNL     1      -7.661  11.324   2.089  0.00  0.00    +0.000 HD
ATOM     24  H   UNL     1      -7.803  13.066   1.879  0.00  0.00    +0.000 HD
ATOM     25  H   UNL     1      -8.669  12.268   3.196  0.00  0.00    +0.000 HD
ENDBRANCH  21  22
BRANCH  21  26
ATOM     26  C   UNL     1     -10.398  13.242   1.132  0.00  0.00    +0.000 C 
ATOM     27  H   UNL     1     -10.517  13.583   0.098  0.00  0.00    +0.000 HD
ATOM     28  H   UNL     1     -11.407  13.112   1.541  0.00  0.00    +0.000 HD
ATOM     29  H   UNL     1      -9.914  14.051   1.691  0.00  0.00    +0.000 HD
ENDBRANCH  21  26
BRANCH  21  30
ATOM     30  C   UNL     1      -9.045  11.623  -0.181  0.00  0.00    +0.000 C 
ATOM     31  H   UNL     1      -9.610  10.804  -0.642  0.00  0.00    +0.000 HD
ATOM     32  H   UNL     1      -9.139  12.484  -0.854  0.00  0.00    +0.000 HD
ATOM     33  H   UNL     1      -7.996  11.305  -0.161  0.00  0.00    +0.000 HD
ENDBRANCH  21  30
ENDBRANCH   1  21
TORSDOF 8
ENDMDL
