MODEL 1
REMARK VINA RESULT:    -4.267      0.000      0.000
REMARK INTER + INTRA:          -6.181
REMARK INTER:                  -5.775
REMARK INTRA:                  -0.406
REMARK UNBOUND:                -0.293
REMARK  Name = 454
REMARK  7 active torsions:
REMARK  status: ('A' for Active; 'I' for Inactive)
REMARK    1  A    between atoms: C_2  and  C_3
REMARK    2  A    between atoms: C_2  and  C_4
REMARK    3  A    between atoms: C_3  and  C_5
REMARK    4  A    between atoms: C_4  and  C_6
REMARK    5  A    between atoms: C_5  and  C_7
REMARK    6  A    between atoms: C_6  and  C_8
REMARK    7  A    between atoms: C_7  and  C_9
REMARK                            x       y       z     vdW  Elec       q    Type
REMARK                         _______ _______ _______ _____ _____    ______ ____
ROOT
ATOM      1  C   UNL     1       6.687   0.411  -1.983  0.00  0.00    +0.000 C 
ATOM      2  H   UNL     1       6.162  -0.546  -1.888  0.00  0.00    +0.000 HD
ATOM      3  H   UNL     1       6.679   0.885  -0.994  0.00  0.00    +0.000 HD
ENDROOT
BRANCH   1   4
ATOM      4  C   UNL     1       8.134   0.162  -2.415  0.00  0.00    +0.000 C 
ATOM      5  H   UNL     1       8.793   0.230  -1.540  0.00  0.00    +0.000 HD
ATOM      6  H   UNL     1       8.443   0.956  -3.106  0.00  0.00    +0.000 HD
BRANCH   4   7
ATOM      7  C   UNL     1       8.342  -1.196  -3.088  0.00  0.00    +0.000 C 
ATOM      8  H   UNL     1       8.840  -1.877  -2.387  0.00  0.00    +0.000 HD
ATOM      9  H   UNL     1       7.362  -1.639  -3.304  0.00  0.00    +0.000 HD
BRANCH   7  10
ATOM     10  C   UNL     1       9.152  -1.115  -4.379  0.00  0.00    +0.000 C 
ATOM     11  H   UNL     1       8.627  -1.625  -5.194  0.00  0.00    +0.000 HD
ATOM     12  H   UNL     1       9.301  -0.070  -4.670  0.00  0.00    +0.000 HD
BRANCH  10  14
ATOM     13  O   UNL     1      11.559  -1.267  -4.668  0.00  0.00    +0.000 OA
ATOM     14  C   UNL     1      10.514  -1.755  -4.249  0.00  0.00    +0.000 C 
ATOM     15  H   UNL     1      10.522  -2.728  -3.728  0.00  0.00    +0.000 HD
ENDBRANCH  10  14
ENDBRANCH   7  10
ENDBRANCH   4   7
ENDBRANCH   1   4
BRANCH   1  16
ATOM     16  C   UNL     1       5.955   1.304  -2.987  0.00  0.00    +0.000 C 
ATOM     17  H   UNL     1       6.684   1.805  -3.635  0.00  0.00    +0.000 HD
ATOM     18  H   UNL     1       5.409   2.089  -2.449  0.00  0.00    +0.000 HD
BRANCH  16  19
ATOM     19  C   UNL     1       4.977   0.498  -3.841  0.00  0.00    +0.000 C 
ATOM     20  H   UNL     1       4.725  -0.439  -3.331  0.00  0.00    +0.000 HD
ATOM     21  H   UNL     1       4.044   1.059  -3.970  0.00  0.00    +0.000 HD
BRANCH  19  22
ATOM     22  C   UNL     1       5.560   0.181  -5.209  0.00  0.00    +0.000 C 
ATOM     23  H   UNL     1       5.509   1.054  -5.868  0.00  0.00    +0.000 HD
ATOM     24  H   UNL     1       5.002  -0.634  -5.680  0.00  0.00    +0.000 HD
ATOM     25  H   UNL     1       6.607  -0.127  -5.127  0.00  0.00    +0.000 HD
ENDBRANCH  19  22
ENDBRANCH  16  19
ENDBRANCH   1  16
TORSDOF 7
ENDMDL
MODEL 2
REMARK VINA RESULT:    -4.190     16.153     17.210
REMARK INTER + INTRA:          -6.074
REMARK INTER:                  -5.907
REMARK INTRA:                  -0.167
REMARK UNBOUND:                -0.293
REMARK  Name = 454
REMARK  7 active torsions:
REMARK  status: ('A' for Active; 'I' for Inactive)
REMARK    1  A    between atoms: C_2  and  C_3
REMARK    2  A    between atoms: C_2  and  C_4
REMARK    3  A    between atoms: C_3  and  C_5
REMARK    4  A    between atoms: C_4  and  C_6
REMARK    5  A    between atoms: C_5  and  C_7
REMARK    6  A    between atoms: C_6  and  C_8
REMARK    7  A    between atoms: C_7  and  C_9
REMARK                            x       y       z     vdW  Elec       q    Type
REMARK                         _______ _______ _______ _____ _____    ______ ____
ROOT
ATOM      1  C   UNL     1      -1.305 -12.200  -9.229  0.00  0.00    +0.000 C 
ATOM      2  H   UNL     1      -1.243 -11.235  -9.746  0.00  0.00    +0.000 HD
ATOM      3  H   UNL     1      -2.347 -12.334  -8.915  0.00  0.00    +0.000 HD
ENDROOT
BRANCH   1   4
ATOM      4  C   UNL     1      -0.918 -13.324 -10.194  0.00  0.00    +0.000 C 
ATOM      5  H   UNL     1      -1.821 -13.715 -10.679  0.00  0.00    +0.000 HD
ATOM      6  H   UNL     1      -0.480 -14.152  -9.622  0.00  0.00    +0.000 HD
BRANCH   4   7
ATOM      7  C   UNL     1       0.073 -12.883 -11.274  0.00  0.00    +0.000 C 
ATOM      8  H   UNL     1       0.045 -11.789 -11.368  0.00  0.00    +0.000 HD
ATOM      9  H   UNL     1       1.089 -13.138 -10.949  0.00  0.00    +0.000 HD
BRANCH   7  10
ATOM     10  C   UNL     1      -0.193 -13.516 -12.636  0.00  0.00    +0.000 C 
ATOM     11  H   UNL     1      -0.287 -12.743 -13.407  0.00  0.00    +0.000 HD
ATOM     12  H   UNL     1       0.632 -14.179 -12.916  0.00  0.00    +0.000 HD
BRANCH  10  14
ATOM     13  O   UNL     1      -1.518 -15.540 -12.867  0.00  0.00    +0.000 OA
ATOM     14  C   UNL     1      -1.464 -14.332 -12.657  0.00  0.00    +0.000 C 
ATOM     15  H   UNL     1      -2.386 -13.759 -12.459  0.00  0.00    +0.000 HD
ENDBRANCH  10  14
ENDBRANCH   7  10
ENDBRANCH   4   7
ENDBRANCH   1   4
BRANCH   1  16
ATOM     16  C   UNL     1      -0.394 -12.187  -8.000  0.00  0.00    +0.000 C 
ATOM     17  H   UNL     1      -0.188 -11.151  -7.705  0.00  0.00    +0.000 HD
ATOM     18  H   UNL     1       0.569 -12.647  -8.253  0.00  0.00    +0.000 HD
BRANCH  16  19
ATOM     19  C   UNL     1      -1.027 -12.939  -6.830  0.00  0.00    +0.000 C 
ATOM     20  H   UNL     1      -2.104 -12.737  -6.797  0.00  0.00    +0.000 HD
ATOM     21  H   UNL     1      -0.903 -14.019  -6.971  0.00  0.00    +0.000 HD
BRANCH  19  22
ATOM     22  C   UNL     1      -0.402 -12.536  -5.504  0.00  0.00    +0.000 C 
ATOM     23  H   UNL     1      -1.108 -12.679  -4.679  0.00  0.00    +0.000 HD
ATOM     24  H   UNL     1      -0.114 -11.480  -5.525  0.00  0.00    +0.000 HD
ATOM     25  H   UNL     1       0.494 -13.129  -5.296  0.00  0.00    +0.000 HD
ENDBRANCH  19  22
ENDBRANCH  16  19
ENDBRANCH   1  16
TORSDOF 7
ENDMDL
MODEL 3
REMARK VINA RESULT:    -4.155     15.607     16.727
REMARK INTER + INTRA:          -6.026
REMARK INTER:                  -5.767
REMARK INTRA:                  -0.259
REMARK UNBOUND:                -0.293
REMARK  Name = 454
REMARK  7 active torsions:
REMARK  status: ('A' for Active; 'I' for Inactive)
REMARK    1  A    between atoms: C_2  and  C_3
REMARK    2  A    between atoms: C_2  and  C_4
REMARK    3  A    between atoms: C_3  and  C_5
REMARK    4  A    between atoms: C_4  and  C_6
REMARK    5  A    between atoms: C_5  and  C_7
REMARK    6  A    between atoms: C_6  and  C_8
REMARK    7  A    between atoms: C_7  and  C_9
REMARK                            x       y       z     vdW  Elec       q    Type
REMARK                         _______ _______ _______ _____ _____    ______ ____
ROOT
ATOM      1  C   UNL     1      -0.177 -12.655 -10.421  0.00  0.00    +0.000 C 
ATOM      2  H   UNL     1      -0.334 -11.801 -11.092  0.00  0.00    +0.000 HD
ATOM      3  H   UNL     1       0.850 -13.006 -10.578  0.00  0.00    +0.000 HD
ENDROOT
BRANCH   1   4
ATOM      4  C   UNL     1      -0.340 -12.202  -8.968  0.00  0.00    +0.000 C 
ATOM      5  H   UNL     1      -0.367 -11.106  -8.928  0.00  0.00    +0.000 HD
ATOM      6  H   UNL     1       0.539 -12.518  -8.393  0.00  0.00    +0.000 HD
BRANCH   4   7
ATOM      7  C   UNL     1      -1.601 -12.754  -8.298  0.00  0.00    +0.000 C 
ATOM      8  H   UNL     1      -2.360 -11.963  -8.244  0.00  0.00    +0.000 HD
ATOM      9  H   UNL     1      -2.023 -13.543  -8.932  0.00  0.00    +0.000 HD
BRANCH   7  10
ATOM     10  C   UNL     1      -1.349 -13.312  -6.900  0.00  0.00    +0.000 C 
ATOM     11  H   UNL     1      -2.293 -13.418  -6.354  0.00  0.00    +0.000 HD
ATOM     12  H   UNL     1      -0.879 -14.299  -6.964  0.00  0.00    +0.000 HD
BRANCH  10  14
ATOM     13  O   UNL     1       0.050 -12.740  -4.999  0.00  0.00    +0.000 OA
ATOM     14  C   UNL     1      -0.448 -12.425  -6.076  0.00  0.00    +0.000 C 
ATOM     15  H   UNL     1      -0.245 -11.433  -6.514  0.00  0.00    +0.000 HD
ENDBRANCH  10  14
ENDBRANCH   7  10
ENDBRANCH   4   7
ENDBRANCH   1   4
BRANCH   1  16
ATOM     16  C   UNL     1      -1.163 -13.772 -10.768  0.00  0.00    +0.000 C 
ATOM     17  H   UNL     1      -2.183 -13.453 -10.521  0.00  0.00    +0.000 HD
ATOM     18  H   UNL     1      -0.944 -14.656 -10.156  0.00  0.00    +0.000 HD
BRANCH  16  19
ATOM     19  C   UNL     1      -1.085 -14.144 -12.248  0.00  0.00    +0.000 C 
ATOM     20  H   UNL     1      -0.903 -15.220 -12.351  0.00  0.00    +0.000 HD
ATOM     21  H   UNL     1      -2.042 -13.929 -12.737  0.00  0.00    +0.000 HD
BRANCH  19  22
ATOM     22  C   UNL     1       0.020 -13.380 -12.959  0.00  0.00    +0.000 C 
ATOM     23  H   UNL     1       0.970 -13.920 -12.900  0.00  0.00    +0.000 HD
ATOM     24  H   UNL     1       0.159 -12.397 -12.497  0.00  0.00    +0.000 HD
ATOM     25  H   UNL     1      -0.225 -13.228 -14.014  0.00  0.00    +0.000 HD
ENDBRANCH  19  22
ENDBRANCH  16  19
ENDBRANCH   1  16
TORSDOF 7
ENDMDL
MODEL 4
REMARK VINA RESULT:    -4.131      1.446      2.670
REMARK INTER + INTRA:          -5.993
REMARK INTER:                  -5.639
REMARK INTRA:                  -0.354
REMARK UNBOUND:                -0.293
REMARK  Name = 454
REMARK  7 active torsions:
REMARK  status: ('A' for Active; 'I' for Inactive)
REMARK    1  A    between atoms: C_2  and  C_3
REMARK    2  A    between atoms: C_2  and  C_4
REMARK    3  A    between atoms: C_3  and  C_5
REMARK    4  A    between atoms: C_4  and  C_6
REMARK    5  A    between atoms: C_5  and  C_7
REMARK    6  A    between atoms: C_6  and  C_8
REMARK    7  A    between atoms: C_7  and  C_9
REMARK                            x       y       z     vdW  Elec       q    Type
REMARK                         _______ _______ _______ _____ _____    ______ ____
ROOT
ATOM      1  C   UNL     1       5.341   0.136  -3.340  0.00  0.00    +0.000 C 
ATOM      2  H   UNL     1       4.249   0.216  -3.404  0.00  0.00    +0.000 HD
ATOM      3  H   UNL     1       5.566  -0.692  -2.657  0.00  0.00    +0.000 HD
ENDROOT
BRANCH   1   4
ATOM      4  C   UNL     1       5.915  -0.177  -4.724  0.00  0.00    +0.000 C 
ATOM      5  H   UNL     1       6.379   0.726  -5.139  0.00  0.00    +0.000 HD
ATOM      6  H   UNL     1       5.093  -0.449  -5.399  0.00  0.00    +0.000 HD
BRANCH   4   7
ATOM      7  C   UNL     1       6.948  -1.305  -4.712  0.00  0.00    +0.000 C 
ATOM      8  H   UNL     1       6.827  -1.900  -3.798  0.00  0.00    +0.000 HD
ATOM      9  H   UNL     1       6.743  -1.983  -5.550  0.00  0.00    +0.000 HD
BRANCH   7  10
ATOM     10  C   UNL     1       8.388  -0.810  -4.808  0.00  0.00    +0.000 C 
ATOM     11  H   UNL     1       8.897  -1.272  -5.661  0.00  0.00    +0.000 HD
ATOM     12  H   UNL     1       8.408   0.277  -4.945  0.00  0.00    +0.000 HD
BRANCH  10  14
ATOM     13  O   UNL     1      10.030  -0.388  -3.068  0.00  0.00    +0.000 OA
ATOM     14  C   UNL     1       9.195  -1.133  -3.573  0.00  0.00    +0.000 C 
ATOM     15  H   UNL     1       8.981  -2.117  -3.123  0.00  0.00    +0.000 HD
ENDBRANCH  10  14
ENDBRANCH   7  10
ENDBRANCH   4   7
ENDBRANCH   1   4
BRANCH   1  16
ATOM     16  C   UNL     1       5.922   1.436  -2.780  0.00  0.00    +0.000 C 
ATOM     17  H   UNL     1       5.108   2.080  -2.425  0.00  0.00    +0.000 HD
ATOM     18  H   UNL     1       6.438   1.981  -3.580  0.00  0.00    +0.000 HD
BRANCH  16  19
ATOM     19  C   UNL     1       6.899   1.164  -1.637  0.00  0.00    +0.000 C 
ATOM     20  H   UNL     1       6.626   0.231  -1.130  0.00  0.00    +0.000 HD
ATOM     21  H   UNL     1       7.912   1.032  -2.036  0.00  0.00    +0.000 HD
BRANCH  19  22
ATOM     22  C   UNL     1       6.906   2.299  -0.626  0.00  0.00    +0.000 C 
ATOM     23  H   UNL     1       6.749   1.920   0.389  0.00  0.00    +0.000 HD
ATOM     24  H   UNL     1       6.106   3.012  -0.850  0.00  0.00    +0.000 HD
ATOM     25  H   UNL     1       7.858   2.838  -0.648  0.00  0.00    +0.000 HD
ENDBRANCH  19  22
ENDBRANCH  16  19
ENDBRANCH   1  16
TORSDOF 7
ENDMDL
MODEL 5
REMARK VINA RESULT:    -4.064      3.522      4.714
REMARK INTER + INTRA:          -5.901
REMARK INTER:                  -5.649
REMARK INTRA:                  -0.252
REMARK UNBOUND:                -0.293
REMARK  Name = 454
REMARK  7 active torsions:
REMARK  status: ('A' for Active; 'I' for Inactive)
REMARK    1  A    between atoms: C_2  and  C_3
REMARK    2  A    between atoms: C_2  and  C_4
REMARK    3  A    between atoms: C_3  and  C_5
REMARK    4  A    between atoms: C_4  and  C_6
REMARK    5  A    between atoms: C_5  and  C_7
REMARK    6  A    between atoms: C_6  and  C_8
REMARK    7  A    between atoms: C_7  and  C_9
REMARK                            x       y       z     vdW  Elec       q    Type
REMARK                         _______ _______ _______ _____ _____    ______ ____
ROOT
ATOM      1  C   UNL     1       6.005  -0.722  -2.268  0.00  0.00    +0.000 C 
ATOM      2  H   UNL     1       5.937  -1.466  -1.465  0.00  0.00    +0.000 HD
ATOM      3  H   UNL     1       5.033  -0.219  -2.327  0.00  0.00    +0.000 HD
ENDROOT
BRANCH   1   4
ATOM      4  C   UNL     1       7.088   0.304  -1.927  0.00  0.00    +0.000 C 
ATOM      5  H   UNL     1       7.765   0.418  -2.782  0.00  0.00    +0.000 HD
ATOM      6  H   UNL     1       7.692  -0.076  -1.093  0.00  0.00    +0.000 HD
BRANCH   4   7
ATOM      7  C   UNL     1       6.526   1.677  -1.552  0.00  0.00    +0.000 C 
ATOM      8  H   UNL     1       6.529   2.326  -2.438  0.00  0.00    +0.000 HD
ATOM      9  H   UNL     1       5.475   1.563  -1.259  0.00  0.00    +0.000 HD
BRANCH   7  10
ATOM     10  C   UNL     1       7.292   2.358  -0.422  0.00  0.00    +0.000 C 
ATOM     11  H   UNL     1       7.349   1.701   0.453  0.00  0.00    +0.000 HD
ATOM     12  H   UNL     1       8.313   2.592  -0.742  0.00  0.00    +0.000 HD
BRANCH  10  14
ATOM     13  O   UNL     1       7.184   4.749  -0.005  0.00  0.00    +0.000 OA
ATOM     14  C   UNL     1       6.644   3.648   0.023  0.00  0.00    +0.000 C 
ATOM     15  H   UNL     1       5.608   3.544   0.387  0.00  0.00    +0.000 HD
ENDBRANCH  10  14
ENDBRANCH   7  10
ENDBRANCH   4   7
ENDBRANCH   1   4
BRANCH   1  16
ATOM     16  C   UNL     1       6.304  -1.423  -3.595  0.00  0.00    +0.000 C 
ATOM     17  H   UNL     1       5.441  -2.029  -3.894  0.00  0.00    +0.000 HD
ATOM     18  H   UNL     1       7.151  -2.108  -3.465  0.00  0.00    +0.000 HD
BRANCH  16  19
ATOM     19  C   UNL     1       6.630  -0.414  -4.697  0.00  0.00    +0.000 C 
ATOM     20  H   UNL     1       7.352   0.322  -4.324  0.00  0.00    +0.000 HD
ATOM     21  H   UNL     1       7.097  -0.927  -5.545  0.00  0.00    +0.000 HD
BRANCH  19  22
ATOM     22  C   UNL     1       5.383   0.309  -5.178  0.00  0.00    +0.000 C 
ATOM     23  H   UNL     1       4.539  -0.383  -5.268  0.00  0.00    +0.000 HD
ATOM     24  H   UNL     1       5.560   0.757  -6.161  0.00  0.00    +0.000 HD
ATOM     25  H   UNL     1       5.100   1.107  -4.486  0.00  0.00    +0.000 HD
ENDBRANCH  19  22
ENDBRANCH  16  19
ENDBRANCH   1  16
TORSDOF 7
ENDMDL
MODEL 6
REMARK VINA RESULT:    -3.835     16.159     17.162
REMARK INTER + INTRA:          -5.585
REMARK INTER:                  -5.376
REMARK INTRA:                  -0.209
REMARK UNBOUND:                -0.293
REMARK  Name = 454
REMARK  7 active torsions:
REMARK  status: ('A' for Active; 'I' for Inactive)
REMARK    1  A    between atoms: C_2  and  C_3
REMARK    2  A    between atoms: C_2  and  C_4
REMARK    3  A    between atoms: C_3  and  C_5
REMARK    4  A    between atoms: C_4  and  C_6
REMARK    5  A    between atoms: C_5  and  C_7
REMARK    6  A    between atoms: C_6  and  C_8
REMARK    7  A    between atoms: C_7  and  C_9
REMARK                            x       y       z     vdW  Elec       q    Type
REMARK                         _______ _______ _______ _____ _____    ______ ____
ROOT
ATOM      1  C   UNL     1      -0.578 -12.467  -8.536  0.00  0.00    +0.000 C 
ATOM      2  H   UNL     1       0.371 -12.486  -7.987  0.00  0.00    +0.000 HD
ATOM      3  H   UNL     1      -1.051 -11.499  -8.333  0.00  0.00    +0.000 HD
ENDROOT
BRANCH   1   4
ATOM      4  C   UNL     1      -0.305 -12.593 -10.037  0.00  0.00    +0.000 C 
ATOM      5  H   UNL     1       0.762 -12.794 -10.198  0.00  0.00    +0.000 HD
ATOM      6  H   UNL     1      -0.523 -11.633 -10.522  0.00  0.00    +0.000 HD
BRANCH   4   7
ATOM      7  C   UNL     1      -1.125 -13.693 -10.714  0.00  0.00    +0.000 C 
ATOM      8  H   UNL     1      -1.043 -14.619 -10.129  0.00  0.00    +0.000 HD
ATOM      9  H   UNL     1      -2.184 -13.409 -10.695  0.00  0.00    +0.000 HD
BRANCH   7  10
ATOM     10  C   UNL     1      -0.702 -13.964 -12.155  0.00  0.00    +0.000 C 
ATOM     11  H   UNL     1      -0.317 -14.985 -12.256  0.00  0.00    +0.000 HD
ATOM     12  H   UNL     1      -1.558 -13.854 -12.829  0.00  0.00    +0.000 HD
BRANCH  10  14
ATOM     13  O   UNL     1       0.632 -12.782 -13.804  0.00  0.00    +0.000 OA
ATOM     14  C   UNL     1       0.380 -13.024 -12.628  0.00  0.00    +0.000 C 
ATOM     15  H   UNL     1       0.958 -12.538 -11.823  0.00  0.00    +0.000 HD
ENDBRANCH  10  14
ENDBRANCH   7  10
ENDBRANCH   4   7
ENDBRANCH   1   4
BRANCH   1  16
ATOM     16  C   UNL     1      -1.484 -13.597  -8.041  0.00  0.00    +0.000 C 
ATOM     17  H   UNL     1      -1.102 -14.560  -8.401  0.00  0.00    +0.000 HD
ATOM     18  H   UNL     1      -2.489 -13.471  -8.462  0.00  0.00    +0.000 HD
BRANCH  16  19
ATOM     19  C   UNL     1      -1.569 -13.615  -6.515  0.00  0.00    +0.000 C 
ATOM     20  H   UNL     1      -0.650 -14.044  -6.098  0.00  0.00    +0.000 HD
ATOM     21  H   UNL     1      -1.651 -12.590  -6.135  0.00  0.00    +0.000 HD
BRANCH  19  22
ATOM     22  C   UNL     1      -2.763 -14.422  -6.032  0.00  0.00    +0.000 C 
ATOM     23  H   UNL     1      -3.030 -15.197  -6.758  0.00  0.00    +0.000 HD
ATOM     24  H   UNL     1      -3.631 -13.770  -5.895  0.00  0.00    +0.000 HD
ATOM     25  H   UNL     1      -2.547 -14.907  -5.076  0.00  0.00    +0.000 HD
ENDBRANCH  19  22
ENDBRANCH  16  19
ENDBRANCH   1  16
TORSDOF 7
ENDMDL
MODEL 7
REMARK VINA RESULT:    -3.738      4.257      5.511
REMARK INTER + INTRA:          -5.451
REMARK INTER:                  -5.289
REMARK INTRA:                  -0.162
REMARK UNBOUND:                -0.293
REMARK  Name = 454
REMARK  7 active torsions:
REMARK  status: ('A' for Active; 'I' for Inactive)
REMARK    1  A    between atoms: C_2  and  C_3
REMARK    2  A    between atoms: C_2  and  C_4
REMARK    3  A    between atoms: C_3  and  C_5
REMARK    4  A    between atoms: C_4  and  C_6
REMARK    5  A    between atoms: C_5  and  C_7
REMARK    6  A    between atoms: C_6  and  C_8
REMARK    7  A    between atoms: C_7  and  C_9
REMARK                            x       y       z     vdW  Elec       q    Type
REMARK                         _______ _______ _______ _____ _____    ______ ____
ROOT
ATOM      1  C   UNL     1       8.597  -0.351  -0.248  0.00  0.00    +0.000 C 
ATOM      2  H   UNL     1       9.568  -0.669   0.150  0.00  0.00    +0.000 HD
ATOM      3  H   UNL     1       7.889  -0.346   0.590  0.00  0.00    +0.000 HD
ENDROOT
BRANCH   1   4
ATOM      4  C   UNL     1       8.714   1.064  -0.820  0.00  0.00    +0.000 C 
ATOM      5  H   UNL     1       7.874   1.253  -1.500  0.00  0.00    +0.000 HD
ATOM      6  H   UNL     1       9.630   1.131  -1.422  0.00  0.00    +0.000 HD
BRANCH   4   7
ATOM      7  C   UNL     1       8.740   2.153   0.254  0.00  0.00    +0.000 C 
ATOM      8  H   UNL     1       8.696   1.686   1.246  0.00  0.00    +0.000 HD
ATOM      9  H   UNL     1       9.701   2.680   0.203  0.00  0.00    +0.000 HD
BRANCH   7  10
ATOM     10  C   UNL     1       7.605   3.164   0.118  0.00  0.00    +0.000 C 
ATOM     11  H   UNL     1       7.167   3.117  -0.885  0.00  0.00    +0.000 HD
ATOM     12  H   UNL     1       6.815   2.949   0.846  0.00  0.00    +0.000 HD
BRANCH  10  14
ATOM     13  O   UNL     1       7.786   5.262   1.330  0.00  0.00    +0.000 OA
ATOM     14  C   UNL     1       8.064   4.585   0.345  0.00  0.00    +0.000 C 
ATOM     15  H   UNL     1       8.698   5.001  -0.457  0.00  0.00    +0.000 HD
ENDBRANCH  10  14
ENDBRANCH   7  10
ENDBRANCH   4   7
ENDBRANCH   1   4
BRANCH   1  16
ATOM     16  C   UNL     1       8.126  -1.343  -1.314  0.00  0.00    +0.000 C 
ATOM     17  H   UNL     1       8.284  -2.368  -0.959  0.00  0.00    +0.000 HD
ATOM     18  H   UNL     1       8.730  -1.219  -2.222  0.00  0.00    +0.000 HD
BRANCH  16  19
ATOM     19  C   UNL     1       6.650  -1.138  -1.653  0.00  0.00    +0.000 C 
ATOM     20  H   UNL     1       6.069  -1.031  -0.729  0.00  0.00    +0.000 HD
ATOM     21  H   UNL     1       6.524  -0.212  -2.225  0.00  0.00    +0.000 HD
BRANCH  19  22
ATOM     22  C   UNL     1       6.096  -2.301  -2.460  0.00  0.00    +0.000 C 
ATOM     23  H   UNL     1       5.011  -2.216  -2.575  0.00  0.00    +0.000 HD
ATOM     24  H   UNL     1       6.311  -3.249  -1.958  0.00  0.00    +0.000 HD
ATOM     25  H   UNL     1       6.546  -2.335  -3.457  0.00  0.00    +0.000 HD
ENDBRANCH  19  22
ENDBRANCH  16  19
ENDBRANCH   1  16
TORSDOF 7
ENDMDL
MODEL 8
REMARK VINA RESULT:    -3.703      5.072      6.659
REMARK INTER + INTRA:          -5.403
REMARK INTER:                  -5.123
REMARK INTRA:                  -0.281
REMARK UNBOUND:                -0.293
REMARK  Name = 454
REMARK  7 active torsions:
REMARK  status: ('A' for Active; 'I' for Inactive)
REMARK    1  A    between atoms: C_2  and  C_3
REMARK    2  A    between atoms: C_2  and  C_4
REMARK    3  A    between atoms: C_3  and  C_5
REMARK    4  A    between atoms: C_4  and  C_6
REMARK    5  A    between atoms: C_5  and  C_7
REMARK    6  A    between atoms: C_6  and  C_8
REMARK    7  A    between atoms: C_7  and  C_9
REMARK                            x       y       z     vdW  Elec       q    Type
REMARK                         _______ _______ _______ _____ _____    ______ ____
ROOT
ATOM      1  C   UNL     1       9.477   1.026   0.370  0.00  0.00    +0.000 C 
ATOM      2  H   UNL     1      10.498   0.929  -0.019  0.00  0.00    +0.000 HD
ATOM      3  H   UNL     1       9.556   1.158   1.456  0.00  0.00    +0.000 HD
ENDROOT
BRANCH   1   4
ATOM      4  C   UNL     1       8.809   2.259  -0.243  0.00  0.00    +0.000 C 
ATOM      5  H   UNL     1       8.939   2.240  -1.333  0.00  0.00    +0.000 HD
ATOM      6  H   UNL     1       9.318   3.160   0.121  0.00  0.00    +0.000 HD
BRANCH   4   7
ATOM      7  C   UNL     1       7.316   2.363   0.076  0.00  0.00    +0.000 C 
ATOM      8  H   UNL     1       6.737   1.934  -0.752  0.00  0.00    +0.000 HD
ATOM      9  H   UNL     1       7.098   1.746   0.957  0.00  0.00    +0.000 HD
BRANCH   7  10
ATOM     10  C   UNL     1       6.850   3.792   0.335  0.00  0.00    +0.000 C 
ATOM     11  H   UNL     1       6.611   4.295  -0.609  0.00  0.00    +0.000 HD
ATOM     12  H   UNL     1       5.950   3.792   0.960  0.00  0.00    +0.000 HD
BRANCH  10  14
ATOM     13  O   UNL     1       8.274   5.732   0.667  0.00  0.00    +0.000 OA
ATOM     14  C   UNL     1       7.897   4.625   1.037  0.00  0.00    +0.000 C 
ATOM     15  H   UNL     1       8.321   4.166   1.946  0.00  0.00    +0.000 HD
ENDBRANCH  10  14
ENDBRANCH   7  10
ENDBRANCH   4   7
ENDBRANCH   1   4
BRANCH   1  16
ATOM     16  C   UNL     1       8.684  -0.246   0.062  0.00  0.00    +0.000 C 
ATOM     17  H   UNL     1       8.982  -0.638  -0.918  0.00  0.00    +0.000 HD
ATOM     18  H   UNL     1       7.615  -0.005   0.001  0.00  0.00    +0.000 HD
BRANCH  16  19
ATOM     19  C   UNL     1       8.906  -1.314   1.132  0.00  0.00    +0.000 C 
ATOM     20  H   UNL     1       7.999  -1.425   1.738  0.00  0.00    +0.000 HD
ATOM     21  H   UNL     1       9.099  -2.283   0.656  0.00  0.00    +0.000 HD
BRANCH  19  22
ATOM     22  C   UNL     1      10.074  -0.962   2.038  0.00  0.00    +0.000 C 
ATOM     23  H   UNL     1      11.006  -1.395   1.661  0.00  0.00    +0.000 HD
ATOM     24  H   UNL     1       9.902  -1.351   3.047  0.00  0.00    +0.000 HD
ATOM     25  H   UNL     1      10.203   0.122   2.109  0.00  0.00    +0.000 HD
ENDBRANCH  19  22
ENDBRANCH  16  19
ENDBRANCH   1  16
TORSDOF 7
ENDMDL
MODEL 9
REMARK VINA RESULT:    -3.630     17.054     18.104
REMARK INTER + INTRA:          -5.302
REMARK INTER:                  -5.010
REMARK INTRA:                  -0.293
REMARK UNBOUND:                -0.293
REMARK  Name = 454
REMARK  7 active torsions:
REMARK  status: ('A' for Active; 'I' for Inactive)
REMARK    1  A    between atoms: C_2  and  C_3
REMARK    2  A    between atoms: C_2  and  C_4
REMARK    3  A    between atoms: C_3  and  C_5
REMARK    4  A    between atoms: C_4  and  C_6
REMARK    5  A    between atoms: C_5  and  C_7
REMARK    6  A    between atoms: C_6  and  C_8
REMARK    7  A    between atoms: C_7  and  C_9
REMARK                            x       y       z     vdW  Elec       q    Type
REMARK                         _______ _______ _______ _____ _____    ______ ____
ROOT
ATOM      1  C   UNL     1      -1.535 -15.630  -9.819  0.00  0.00    +0.000 C 
ATOM      2  H   UNL     1      -2.421 -16.121  -9.399  0.00  0.00    +0.000 HD
ATOM      3  H   UNL     1      -0.689 -15.872  -9.165  0.00  0.00    +0.000 HD
ENDROOT
BRANCH   1   4
ATOM      4  C   UNL     1      -1.263 -16.176 -11.223  0.00  0.00    +0.000 C 
ATOM      5  H   UNL     1      -2.079 -16.847 -11.518  0.00  0.00    +0.000 HD
ATOM      6  H   UNL     1      -0.348 -16.782 -11.200  0.00  0.00    +0.000 HD
BRANCH   4   7
ATOM      7  C   UNL     1      -1.112 -15.082 -12.282  0.00  0.00    +0.000 C 
ATOM      8  H   UNL     1      -1.565 -15.421 -13.222  0.00  0.00    +0.000 HD
ATOM      9  H   UNL     1      -1.682 -14.200 -11.965  0.00  0.00    +0.000 HD
BRANCH   7  10
ATOM     10  C   UNL     1       0.338 -14.679 -12.534  0.00  0.00    +0.000 C 
ATOM     11  H   UNL     1       0.970 -14.970 -11.688  0.00  0.00    +0.000 HD
ATOM     12  H   UNL     1       0.720 -15.175 -13.433  0.00  0.00    +0.000 HD
BRANCH  10  14
ATOM     13  O   UNL     1       0.616 -12.633 -13.815  0.00  0.00    +0.000 OA
ATOM     14  C   UNL     1       0.500 -13.190 -12.727  0.00  0.00    +0.000 C 
ATOM     15  H   UNL     1       0.504 -12.599 -11.796  0.00  0.00    +0.000 HD
ENDBRANCH  10  14
ENDBRANCH   7  10
ENDBRANCH   4   7
ENDBRANCH   1   4
BRANCH   1  16
ATOM     16  C   UNL     1      -1.748 -14.115  -9.846  0.00  0.00    +0.000 C 
ATOM     17  H   UNL     1      -2.823 -13.894  -9.837  0.00  0.00    +0.000 HD
ATOM     18  H   UNL     1      -1.342 -13.704 -10.778  0.00  0.00    +0.000 HD
BRANCH  16  19
ATOM     19  C   UNL     1      -1.074 -13.436  -8.654  0.00  0.00    +0.000 C 
ATOM     20  H   UNL     1      -1.826 -13.184  -7.896  0.00  0.00    +0.000 HD
ATOM     21  H   UNL     1      -0.361 -14.125  -8.187  0.00  0.00    +0.000 HD
BRANCH  19  22
ATOM     22  C   UNL     1      -0.343 -12.171  -9.072  0.00  0.00    +0.000 C 
ATOM     23  H   UNL     1       0.693 -12.391  -9.350  0.00  0.00    +0.000 HD
ATOM     24  H   UNL     1      -0.327 -11.451  -8.248  0.00  0.00    +0.000 HD
ATOM     25  H   UNL     1      -0.835 -11.698  -9.928  0.00  0.00    +0.000 HD
ENDBRANCH  19  22
ENDBRANCH  16  19
ENDBRANCH   1  16
TORSDOF 7
ENDMDL
MODEL 10
REMARK VINA RESULT:    -3.611     19.028     20.623
REMARK INTER + INTRA:          -5.276
REMARK INTER:                  -4.994
REMARK INTRA:                  -0.282
REMARK UNBOUND:                -0.293
REMARK  Name = 454
REMARK  7 active torsions:
REMARK  status: ('A' for Active; 'I' for Inactive)
REMARK    1  A    between atoms: C_2  and  C_3
REMARK    2  A    between atoms: C_2  and  C_4
REMARK    3  A    between atoms: C_3  and  C_5
REMARK    4  A    between atoms: C_4  and  C_6
REMARK    5  A    between atoms: C_5  and  C_7
REMARK    6  A    between atoms: C_6  and  C_8
REMARK    7  A    between atoms: C_7  and  C_9
REMARK                            x       y       z     vdW  Elec       q    Type
REMARK                         _______ _______ _______ _____ _____    ______ ____
ROOT
ATOM      1  C   UNL     1      -2.754   9.430  12.622  0.00  0.00    +0.000 C 
ATOM      2  H   UNL     1      -2.516  10.298  13.248  0.00  0.00    +0.000 HD
ATOM      3  H   UNL     1      -3.739   9.613  12.176  0.00  0.00    +0.000 HD
ENDROOT
BRANCH   1   4
ATOM      4  C   UNL     1      -1.710   9.297  11.510  0.00  0.00    +0.000 C 
ATOM      5  H   UNL     1      -0.797   9.832  11.801  0.00  0.00    +0.000 HD
ATOM      6  H   UNL     1      -2.089   9.786  10.604  0.00  0.00    +0.000 HD
BRANCH   4   7
ATOM      7  C   UNL     1      -1.352   7.846  11.184  0.00  0.00    +0.000 C 
ATOM      8  H   UNL     1      -1.410   7.242  12.099  0.00  0.00    +0.000 HD
ATOM      9  H   UNL     1      -2.106   7.440  10.498  0.00  0.00    +0.000 HD
BRANCH   7  10
ATOM     10  C   UNL     1       0.032   7.689  10.559  0.00  0.00    +0.000 C 
ATOM     11  H   UNL     1       0.635   6.981  11.138  0.00  0.00    +0.000 HD
ATOM     12  H   UNL     1      -0.053   7.310   9.536  0.00  0.00    +0.000 HD
BRANCH  10  14
ATOM     13  O   UNL     1       1.877   9.146   9.950  0.00  0.00    +0.000 OA
ATOM     14  C   UNL     1       0.793   8.992  10.505  0.00  0.00    +0.000 C 
ATOM     15  H   UNL     1       0.300   9.840  11.009  0.00  0.00    +0.000 HD
ENDBRANCH  10  14
ENDBRANCH   7  10
ENDBRANCH   4   7
ENDBRANCH   1   4
BRANCH   1  16
ATOM     16  C   UNL     1      -2.806   8.169  13.487  0.00  0.00    +0.000 C 
ATOM     17  H   UNL     1      -2.061   7.447  13.131  0.00  0.00    +0.000 HD
ATOM     18  H   UNL     1      -3.790   7.694  13.384  0.00  0.00    +0.000 HD
BRANCH  16  19
ATOM     19  C   UNL     1      -2.548   8.491  14.958  0.00  0.00    +0.000 C 
ATOM     20  H   UNL     1      -2.890   7.659  15.586  0.00  0.00    +0.000 HD
ATOM     21  H   UNL     1      -1.471   8.605  15.131  0.00  0.00    +0.000 HD
BRANCH  19  22
ATOM     22  C   UNL     1      -3.259   9.765  15.384  0.00  0.00    +0.000 C 
ATOM     23  H   UNL     1      -3.278  10.493  14.568  0.00  0.00    +0.000 HD
ATOM     24  H   UNL     1      -2.742  10.222  16.234  0.00  0.00    +0.000 HD
ATOM     25  H   UNL     1      -4.290   9.557  15.685  0.00  0.00    +0.000 HD
ENDBRANCH  19  22
ENDBRANCH  16  19
ENDBRANCH   1  16
TORSDOF 7
ENDMDL
