MODEL 1
REMARK VINA RESULT:    -5.092      0.000      0.000
REMARK INTER + INTRA:          -7.346
REMARK INTER:                  -6.875
REMARK INTRA:                  -0.470
REMARK UNBOUND:                -0.170
REMARK  Name = 379
REMARK  8 active torsions:
REMARK  status: ('A' for Active; 'I' for Inactive)
REMARK    1  A    between atoms: O_1  and  C_10
REMARK    2  A    between atoms: C_3  and  C_4
REMARK    3  A    between atoms: C_3  and  C_5
REMARK    4  A    between atoms: C_4  and  C_6
REMARK    5  A    between atoms: C_5  and  C_7
REMARK    6  A    between atoms: C_6  and  C_8
REMARK    7  A    between atoms: C_7  and  C_9
REMARK    8  A    between atoms: C_8  and  C_10
REMARK                            x       y       z     vdW  Elec       q    Type
REMARK                         _______ _______ _______ _____ _____    ______ ____
ROOT
ATOM      1  C   UNL     1       6.376  -2.160  -3.006  0.00  0.00    +0.000 C 
ATOM      2  H   UNL     1       6.506  -3.243  -3.131  0.00  0.00    +0.000 HD
ATOM      3  H   UNL     1       5.391  -2.010  -2.547  0.00  0.00    +0.000 HD
ENDROOT
BRANCH   1   4
ATOM      4  C   UNL     1       7.453  -1.639  -2.050  0.00  0.00    +0.000 C 
ATOM      5  H   UNL     1       7.444  -0.541  -2.074  0.00  0.00    +0.000 HD
ATOM      6  H   UNL     1       7.178  -1.927  -1.026  0.00  0.00    +0.000 HD
BRANCH   4   7
ATOM      7  C   UNL     1       8.880  -2.123  -2.324  0.00  0.00    +0.000 C 
ATOM      8  H   UNL     1       9.329  -2.462  -1.381  0.00  0.00    +0.000 HD
ATOM      9  H   UNL     1       8.839  -3.002  -2.978  0.00  0.00    +0.000 HD
BRANCH   7  10
ATOM     10  C   UNL     1       9.773  -1.056  -2.954  0.00  0.00    +0.000 C 
ATOM     11  H   UNL     1      10.686  -0.937  -2.360  0.00  0.00    +0.000 HD
ATOM     12  H   UNL     1       9.240  -0.100  -2.985  0.00  0.00    +0.000 HD
BRANCH  10  14
ATOM     13  O   UNL     1      10.829  -2.400  -4.688  0.00  0.00    +0.000 OA
ATOM     14  C   UNL     1      10.174  -1.419  -4.366  0.00  0.00    +0.000 C 
BRANCH  14  15
ATOM     15  O   UNL     1       9.707  -0.512  -5.263  0.00  0.00    +0.000 OA
ATOM     16  H   UNL     1      10.341   0.224  -5.402  0.00  0.00    +0.000 HD
ENDBRANCH  14  15
ENDBRANCH  10  14
ENDBRANCH   7  10
ENDBRANCH   4   7
ENDBRANCH   1   4
BRANCH   1  17
ATOM     17  C   UNL     1       6.402  -1.484  -4.379  0.00  0.00    +0.000 C 
ATOM     18  H   UNL     1       7.291  -1.810  -4.932  0.00  0.00    +0.000 HD
ATOM     19  H   UNL     1       5.526  -1.800  -4.957  0.00  0.00    +0.000 HD
BRANCH  17  20
ATOM     20  C   UNL     1       6.409   0.040  -4.244  0.00  0.00    +0.000 C 
ATOM     21  H   UNL     1       6.843   0.327  -3.280  0.00  0.00    +0.000 HD
ATOM     22  H   UNL     1       7.036   0.480  -5.028  0.00  0.00    +0.000 HD
BRANCH  20  23
ATOM     23  C   UNL     1       5.004   0.614  -4.346  0.00  0.00    +0.000 C 
ATOM     24  H   UNL     1       5.006   1.693  -4.161  0.00  0.00    +0.000 HD
ATOM     25  H   UNL     1       4.348   0.144  -3.606  0.00  0.00    +0.000 HD
ATOM     26  H   UNL     1       4.579   0.436  -5.339  0.00  0.00    +0.000 HD
ENDBRANCH  20  23
ENDBRANCH  17  20
ENDBRANCH   1  17
TORSDOF 8
ENDMDL
MODEL 2
REMARK VINA RESULT:    -4.505      7.630      8.478
REMARK INTER + INTRA:          -6.518
REMARK INTER:                  -6.164
REMARK INTRA:                  -0.354
REMARK UNBOUND:                -0.170
REMARK  Name = 379
REMARK  8 active torsions:
REMARK  status: ('A' for Active; 'I' for Inactive)
REMARK    1  A    between atoms: O_1  and  C_10
REMARK    2  A    between atoms: C_3  and  C_4
REMARK    3  A    between atoms: C_3  and  C_5
REMARK    4  A    between atoms: C_4  and  C_6
REMARK    5  A    between atoms: C_5  and  C_7
REMARK    6  A    between atoms: C_6  and  C_8
REMARK    7  A    between atoms: C_7  and  C_9
REMARK    8  A    between atoms: C_8  and  C_10
REMARK                            x       y       z     vdW  Elec       q    Type
REMARK                         _______ _______ _______ _____ _____    ______ ____
ROOT
ATOM      1  C   UNL     1      11.479   7.125  -3.017  0.00  0.00    +0.000 C 
ATOM      2  H   UNL     1      11.452   6.037  -2.877  0.00  0.00    +0.000 HD
ATOM      3  H   UNL     1      11.666   7.566  -2.030  0.00  0.00    +0.000 HD
ENDROOT
BRANCH   1   4
ATOM      4  C   UNL     1      12.644   7.477  -3.946  0.00  0.00    +0.000 C 
ATOM      5  H   UNL     1      12.248   8.008  -4.821  0.00  0.00    +0.000 HD
ATOM      6  H   UNL     1      13.301   8.188  -3.426  0.00  0.00    +0.000 HD
BRANCH   4   7
ATOM      7  C   UNL     1      13.491   6.297  -4.431  0.00  0.00    +0.000 C 
ATOM      8  H   UNL     1      13.614   6.371  -5.520  0.00  0.00    +0.000 HD
ATOM      9  H   UNL     1      14.496   6.379  -4.002  0.00  0.00    +0.000 HD
BRANCH   7  10
ATOM     10  C   UNL     1      12.894   4.935  -4.081  0.00  0.00    +0.000 C 
ATOM     11  H   UNL     1      11.838   4.907  -4.373  0.00  0.00    +0.000 HD
ATOM     12  H   UNL     1      12.971   4.765  -3.002  0.00  0.00    +0.000 HD
BRANCH  10  14
ATOM     13  O   UNL     1      14.810   3.757  -5.011  0.00  0.00    +0.000 OA
ATOM     14  C   UNL     1      13.609   3.808  -4.790  0.00  0.00    +0.000 C 
BRANCH  14  15
ATOM     15  O   UNL     1      12.744   2.827  -5.160  0.00  0.00    +0.000 OA
ATOM     16  H   UNL     1      12.157   3.115  -5.892  0.00  0.00    +0.000 HD
ENDBRANCH  14  15
ENDBRANCH  10  14
ENDBRANCH   7  10
ENDBRANCH   4   7
ENDBRANCH   1   4
BRANCH   1  17
ATOM     17  C   UNL     1      10.121   7.604  -3.534  0.00  0.00    +0.000 C 
ATOM     18  H   UNL     1       9.358   6.845  -3.321  0.00  0.00    +0.000 HD
ATOM     19  H   UNL     1       9.828   8.516  -3.000  0.00  0.00    +0.000 HD
BRANCH  17  20
ATOM     20  C   UNL     1      10.168   7.881  -5.038  0.00  0.00    +0.000 C 
ATOM     21  H   UNL     1      10.212   8.961  -5.217  0.00  0.00    +0.000 HD
ATOM     22  H   UNL     1      11.076   7.442  -5.468  0.00  0.00    +0.000 HD
BRANCH  20  23
ATOM     23  C   UNL     1       8.950   7.309  -5.747  0.00  0.00    +0.000 C 
ATOM     24  H   UNL     1       8.871   6.230  -5.582  0.00  0.00    +0.000 HD
ATOM     25  H   UNL     1       9.022   7.484  -6.824  0.00  0.00    +0.000 HD
ATOM     26  H   UNL     1       8.030   7.781  -5.387  0.00  0.00    +0.000 HD
ENDBRANCH  20  23
ENDBRANCH  17  20
ENDBRANCH   1  17
TORSDOF 8
ENDMDL
MODEL 3
REMARK VINA RESULT:    -4.471     14.953     16.116
REMARK INTER + INTRA:          -6.471
REMARK INTER:                  -6.219
REMARK INTRA:                  -0.252
REMARK UNBOUND:                -0.170
REMARK  Name = 379
REMARK  8 active torsions:
REMARK  status: ('A' for Active; 'I' for Inactive)
REMARK    1  A    between atoms: O_1  and  C_10
REMARK    2  A    between atoms: C_3  and  C_4
REMARK    3  A    between atoms: C_3  and  C_5
REMARK    4  A    between atoms: C_4  and  C_6
REMARK    5  A    between atoms: C_5  and  C_7
REMARK    6  A    between atoms: C_6  and  C_8
REMARK    7  A    between atoms: C_7  and  C_9
REMARK    8  A    between atoms: C_8  and  C_10
REMARK                            x       y       z     vdW  Elec       q    Type
REMARK                         _______ _______ _______ _____ _____    ______ ____
ROOT
ATOM      1  C   UNL     1      -1.212 -13.732 -10.323  0.00  0.00    +0.000 C 
ATOM      2  H   UNL     1      -0.998 -14.536  -9.607  0.00  0.00    +0.000 HD
ATOM      3  H   UNL     1      -2.269 -13.468 -10.194  0.00  0.00    +0.000 HD
ENDROOT
BRANCH   1   4
ATOM      4  C   UNL     1      -0.351 -12.515  -9.974  0.00  0.00    +0.000 C 
ATOM      5  H   UNL     1       0.695 -12.742 -10.221  0.00  0.00    +0.000 HD
ATOM      6  H   UNL     1      -0.647 -11.681 -10.624  0.00  0.00    +0.000 HD
BRANCH   4   7
ATOM      7  C   UNL     1      -0.419 -12.045  -8.518  0.00  0.00    +0.000 C 
ATOM      8  H   UNL     1       0.603 -11.902  -8.141  0.00  0.00    +0.000 HD
ATOM      9  H   UNL     1      -0.899 -11.060  -8.483  0.00  0.00    +0.000 HD
BRANCH   7  10
ATOM     10  C   UNL     1      -1.165 -13.012  -7.600  0.00  0.00    +0.000 C 
ATOM     11  H   UNL     1      -0.956 -14.045  -7.902  0.00  0.00    +0.000 HD
ATOM     12  H   UNL     1      -2.242 -12.830  -7.670  0.00  0.00    +0.000 HD
BRANCH  10  14
ATOM     13  O   UNL     1      -1.068 -13.595  -5.238  0.00  0.00    +0.000 OA
ATOM     14  C   UNL     1      -0.751 -12.851  -6.155  0.00  0.00    +0.000 C 
BRANCH  14  15
ATOM     15  O   UNL     1       0.038 -11.758  -5.985  0.00  0.00    +0.000 OA
ATOM     16  H   UNL     1       0.332 -11.661  -5.054  0.00  0.00    +0.000 HD
ENDBRANCH  14  15
ENDBRANCH  10  14
ENDBRANCH   7  10
ENDBRANCH   4   7
ENDBRANCH   1   4
BRANCH   1  17
ATOM     17  C   UNL     1      -0.991 -14.247 -11.746  0.00  0.00    +0.000 C 
ATOM     18  H   UNL     1      -0.563 -15.257 -11.709  0.00  0.00    +0.000 HD
ATOM     19  H   UNL     1      -1.956 -14.323 -12.261  0.00  0.00    +0.000 HD
BRANCH  17  20
ATOM     20  C   UNL     1      -0.059 -13.322 -12.531  0.00  0.00    +0.000 C 
ATOM     21  H   UNL     1      -0.549 -12.996 -13.455  0.00  0.00    +0.000 HD
ATOM     22  H   UNL     1       0.154 -12.422 -11.941  0.00  0.00    +0.000 HD
BRANCH  20  23
ATOM     23  C   UNL     1       1.248 -14.014 -12.880  0.00  0.00    +0.000 C 
ATOM     24  H   UNL     1       1.537 -14.726 -12.099  0.00  0.00    +0.000 HD
ATOM     25  H   UNL     1       2.052 -13.279 -12.982  0.00  0.00    +0.000 HD
ATOM     26  H   UNL     1       1.164 -14.559 -13.826  0.00  0.00    +0.000 HD
ENDBRANCH  20  23
ENDBRANCH  17  20
ENDBRANCH   1  17
TORSDOF 8
ENDMDL
MODEL 4
REMARK VINA RESULT:    -4.202      8.956      9.591
REMARK INTER + INTRA:          -6.092
REMARK INTER:                  -5.882
REMARK INTRA:                  -0.210
REMARK UNBOUND:                -0.170
REMARK  Name = 379
REMARK  8 active torsions:
REMARK  status: ('A' for Active; 'I' for Inactive)
REMARK    1  A    between atoms: O_1  and  C_10
REMARK    2  A    between atoms: C_3  and  C_4
REMARK    3  A    between atoms: C_3  and  C_5
REMARK    4  A    between atoms: C_4  and  C_6
REMARK    5  A    between atoms: C_5  and  C_7
REMARK    6  A    between atoms: C_6  and  C_8
REMARK    7  A    between atoms: C_7  and  C_9
REMARK    8  A    between atoms: C_8  and  C_10
REMARK                            x       y       z     vdW  Elec       q    Type
REMARK                         _______ _______ _______ _____ _____    ______ ____
ROOT
ATOM      1  C   UNL     1      10.554   7.258  -3.444  0.00  0.00    +0.000 C 
ATOM      2  H   UNL     1       9.841   8.087  -3.351  0.00  0.00    +0.000 HD
ATOM      3  H   UNL     1       9.984   6.388  -3.793  0.00  0.00    +0.000 HD
ENDROOT
BRANCH   1   4
ATOM      4  C   UNL     1      11.601   7.621  -4.501  0.00  0.00    +0.000 C 
ATOM      5  H   UNL     1      11.415   7.020  -5.401  0.00  0.00    +0.000 HD
ATOM      6  H   UNL     1      11.451   8.669  -4.795  0.00  0.00    +0.000 HD
BRANCH   4   7
ATOM      7  C   UNL     1      13.063   7.438  -4.083  0.00  0.00    +0.000 C 
ATOM      8  H   UNL     1      13.661   8.250  -4.515  0.00  0.00    +0.000 HD
ATOM      9  H   UNL     1      13.139   7.546  -2.995  0.00  0.00    +0.000 HD
BRANCH   7  10
ATOM     10  C   UNL     1      13.653   6.094  -4.508  0.00  0.00    +0.000 C 
ATOM     11  H   UNL     1      12.907   5.523  -5.072  0.00  0.00    +0.000 HD
ATOM     12  H   UNL     1      13.944   5.522  -3.620  0.00  0.00    +0.000 HD
BRANCH  10  14
ATOM     13  O   UNL     1      15.723   5.411  -5.593  0.00  0.00    +0.000 OA
ATOM     14  C   UNL     1      14.875   6.266  -5.381  0.00  0.00    +0.000 C 
BRANCH  14  15
ATOM     15  O   UNL     1      14.926   7.511  -5.923  0.00  0.00    +0.000 OA
ATOM     16  H   UNL     1      15.003   7.481  -6.901  0.00  0.00    +0.000 HD
ENDBRANCH  14  15
ENDBRANCH  10  14
ENDBRANCH   7  10
ENDBRANCH   4   7
ENDBRANCH   1   4
BRANCH   1  17
ATOM     17  C   UNL     1      11.156   6.948  -2.072  0.00  0.00    +0.000 C 
ATOM     18  H   UNL     1      11.038   5.880  -1.852  0.00  0.00    +0.000 HD
ATOM     19  H   UNL     1      12.231   7.159  -2.089  0.00  0.00    +0.000 HD
BRANCH  17  20
ATOM     20  C   UNL     1      10.486   7.777  -0.974  0.00  0.00    +0.000 C 
ATOM     21  H   UNL     1      11.246   8.192  -0.304  0.00  0.00    +0.000 HD
ATOM     22  H   UNL     1       9.950   8.622  -1.421  0.00  0.00    +0.000 HD
BRANCH  20  23
ATOM     23  C   UNL     1       9.511   6.939  -0.161  0.00  0.00    +0.000 C 
ATOM     24  H   UNL     1       8.494   7.339  -0.233  0.00  0.00    +0.000 HD
ATOM     25  H   UNL     1       9.802   6.937   0.893  0.00  0.00    +0.000 HD
ATOM     26  H   UNL     1       9.498   5.902  -0.513  0.00  0.00    +0.000 HD
ENDBRANCH  20  23
ENDBRANCH  17  20
ENDBRANCH   1  17
TORSDOF 8
ENDMDL
MODEL 5
REMARK VINA RESULT:    -4.180      4.319      5.174
REMARK INTER + INTRA:          -6.062
REMARK INTER:                  -5.750
REMARK INTRA:                  -0.312
REMARK UNBOUND:                -0.170
REMARK  Name = 379
REMARK  8 active torsions:
REMARK  status: ('A' for Active; 'I' for Inactive)
REMARK    1  A    between atoms: O_1  and  C_10
REMARK    2  A    between atoms: C_3  and  C_4
REMARK    3  A    between atoms: C_3  and  C_5
REMARK    4  A    between atoms: C_4  and  C_6
REMARK    5  A    between atoms: C_5  and  C_7
REMARK    6  A    between atoms: C_6  and  C_8
REMARK    7  A    between atoms: C_7  and  C_9
REMARK    8  A    between atoms: C_8  and  C_10
REMARK                            x       y       z     vdW  Elec       q    Type
REMARK                         _______ _______ _______ _____ _____    ______ ____
ROOT
ATOM      1  C   UNL     1       8.535   1.355   0.363  0.00  0.00    +0.000 C 
ATOM      2  H   UNL     1       8.023   1.361   1.333  0.00  0.00    +0.000 HD
ATOM      3  H   UNL     1       9.556   0.997   0.545  0.00  0.00    +0.000 HD
ENDROOT
BRANCH   1   4
ATOM      4  C   UNL     1       7.823   0.367  -0.567  0.00  0.00    +0.000 C 
ATOM      5  H   UNL     1       8.308  -0.613  -0.476  0.00  0.00    +0.000 HD
ATOM      6  H   UNL     1       6.792   0.234  -0.210  0.00  0.00    +0.000 HD
BRANCH   4   7
ATOM      7  C   UNL     1       7.779   0.757  -2.047  0.00  0.00    +0.000 C 
ATOM      8  H   UNL     1       8.357   1.679  -2.190  0.00  0.00    +0.000 HD
ATOM      9  H   UNL     1       8.285  -0.018  -2.635  0.00  0.00    +0.000 HD
BRANCH   7  10
ATOM     10  C   UNL     1       6.361   0.960  -2.580  0.00  0.00    +0.000 C 
ATOM     11  H   UNL     1       6.371   1.706  -3.383  0.00  0.00    +0.000 HD
ATOM     12  H   UNL     1       5.710   1.312  -1.773  0.00  0.00    +0.000 HD
BRANCH  10  14
ATOM     13  O   UNL     1       5.293  -1.225  -2.469  0.00  0.00    +0.000 OA
ATOM     14  C   UNL     1       5.779  -0.320  -3.133  0.00  0.00    +0.000 C 
BRANCH  14  15
ATOM     15  O   UNL     1       5.852  -0.354  -4.490  0.00  0.00    +0.000 OA
ATOM     16  H   UNL     1       5.376   0.400  -4.900  0.00  0.00    +0.000 HD
ENDBRANCH  14  15
ENDBRANCH  10  14
ENDBRANCH   7  10
ENDBRANCH   4   7
ENDBRANCH   1   4
BRANCH   1  17
ATOM     17  C   UNL     1       8.591   2.780  -0.191  0.00  0.00    +0.000 C 
ATOM     18  H   UNL     1       9.559   3.233   0.060  0.00  0.00    +0.000 HD
ATOM     19  H   UNL     1       8.522   2.749  -1.284  0.00  0.00    +0.000 HD
BRANCH  17  20
ATOM     20  C   UNL     1       7.458   3.638   0.374  0.00  0.00    +0.000 C 
ATOM     21  H   UNL     1       6.847   4.034  -0.445  0.00  0.00    +0.000 HD
ATOM     22  H   UNL     1       6.802   3.022   1.000  0.00  0.00    +0.000 HD
BRANCH  20  23
ATOM     23  C   UNL     1       7.995   4.797   1.199  0.00  0.00    +0.000 C 
ATOM     24  H   UNL     1       7.409   5.705   1.028  0.00  0.00    +0.000 HD
ATOM     25  H   UNL     1       9.034   5.006   0.926  0.00  0.00    +0.000 HD
ATOM     26  H   UNL     1       7.965   4.564   2.268  0.00  0.00    +0.000 HD
ENDBRANCH  20  23
ENDBRANCH  17  20
ENDBRANCH   1  17
TORSDOF 8
ENDMDL
MODEL 6
REMARK VINA RESULT:    -4.008     23.360     24.265
REMARK INTER + INTRA:          -5.819
REMARK INTER:                  -5.320
REMARK INTRA:                  -0.499
REMARK UNBOUND:                -0.170
REMARK  Name = 379
REMARK  8 active torsions:
REMARK  status: ('A' for Active; 'I' for Inactive)
REMARK    1  A    between atoms: O_1  and  C_10
REMARK    2  A    between atoms: C_3  and  C_4
REMARK    3  A    between atoms: C_3  and  C_5
REMARK    4  A    between atoms: C_4  and  C_6
REMARK    5  A    between atoms: C_5  and  C_7
REMARK    6  A    between atoms: C_6  and  C_8
REMARK    7  A    between atoms: C_7  and  C_9
REMARK    8  A    between atoms: C_8  and  C_10
REMARK                            x       y       z     vdW  Elec       q    Type
REMARK                         _______ _______ _______ _____ _____    ______ ____
ROOT
ATOM      1  C   UNL     1       6.318  -9.946 -26.077  0.00  0.00    +0.000 C 
ATOM      2  H   UNL     1       6.423  -9.170 -26.846  0.00  0.00    +0.000 HD
ATOM      3  H   UNL     1       5.475 -10.579 -26.381  0.00  0.00    +0.000 HD
ENDROOT
BRANCH   1   4
ATOM      4  C   UNL     1       7.592 -10.796 -26.053  0.00  0.00    +0.000 C 
ATOM      5  H   UNL     1       8.189 -10.559 -26.943  0.00  0.00    +0.000 HD
ATOM      6  H   UNL     1       8.196 -10.493 -25.187  0.00  0.00    +0.000 HD
BRANCH   4   7
ATOM      7  C   UNL     1       7.382 -12.312 -25.993  0.00  0.00    +0.000 C 
ATOM      8  H   UNL     1       8.101 -12.798 -26.664  0.00  0.00    +0.000 HD
ATOM      9  H   UNL     1       7.617 -12.665 -24.982  0.00  0.00    +0.000 HD
BRANCH   7  10
ATOM     10  C   UNL     1       5.966 -12.745 -26.370  0.00  0.00    +0.000 C 
ATOM     11  H   UNL     1       5.980 -13.257 -27.339  0.00  0.00    +0.000 HD
ATOM     12  H   UNL     1       5.317 -11.865 -26.441  0.00  0.00    +0.000 HD
BRANCH  10  14
ATOM     13  O   UNL     1       4.380 -14.380 -25.510  0.00  0.00    +0.000 OA
ATOM     14  C   UNL     1       5.374 -13.687 -25.347  0.00  0.00    +0.000 C 
BRANCH  14  15
ATOM     15  O   UNL     1       6.093 -13.682 -24.194  0.00  0.00    +0.000 OA
ATOM     16  H   UNL     1       6.775 -12.977 -24.192  0.00  0.00    +0.000 HD
ENDBRANCH  14  15
ENDBRANCH  10  14
ENDBRANCH   7  10
ENDBRANCH   4   7
ENDBRANCH   1   4
BRANCH   1  17
ATOM     17  C   UNL     1       5.997  -9.290 -24.733  0.00  0.00    +0.000 C 
ATOM     18  H   UNL     1       6.437  -9.882 -23.920  0.00  0.00    +0.000 HD
ATOM     19  H   UNL     1       6.456  -8.295 -24.693  0.00  0.00    +0.000 HD
BRANCH  17  20
ATOM     20  C   UNL     1       4.487  -9.170 -24.522  0.00  0.00    +0.000 C 
ATOM     21  H   UNL     1       4.277  -8.439 -23.733  0.00  0.00    +0.000 HD
ATOM     22  H   UNL     1       4.011  -8.802 -25.439  0.00  0.00    +0.000 HD
BRANCH  20  23
ATOM     23  C   UNL     1       3.870 -10.506 -24.139  0.00  0.00    +0.000 C 
ATOM     24  H   UNL     1       2.819 -10.554 -24.441  0.00  0.00    +0.000 HD
ATOM     25  H   UNL     1       3.919 -10.649 -23.056  0.00  0.00    +0.000 HD
ATOM     26  H   UNL     1       4.403 -11.335 -24.617  0.00  0.00    +0.000 HD
ENDBRANCH  20  23
ENDBRANCH  17  20
ENDBRANCH   1  17
TORSDOF 8
ENDMDL
MODEL 7
REMARK VINA RESULT:    -3.885     19.367     20.357
REMARK INTER + INTRA:          -5.645
REMARK INTER:                  -5.348
REMARK INTRA:                  -0.297
REMARK UNBOUND:                -0.170
REMARK  Name = 379
REMARK  8 active torsions:
REMARK  status: ('A' for Active; 'I' for Inactive)
REMARK    1  A    between atoms: O_1  and  C_10
REMARK    2  A    between atoms: C_3  and  C_4
REMARK    3  A    between atoms: C_3  and  C_5
REMARK    4  A    between atoms: C_4  and  C_6
REMARK    5  A    between atoms: C_5  and  C_7
REMARK    6  A    between atoms: C_6  and  C_8
REMARK    7  A    between atoms: C_7  and  C_9
REMARK    8  A    between atoms: C_8  and  C_10
REMARK                            x       y       z     vdW  Elec       q    Type
REMARK                         _______ _______ _______ _____ _____    ______ ____
ROOT
ATOM      1  C   UNL     1      -1.503   9.276  11.931  0.00  0.00    +0.000 C 
ATOM      2  H   UNL     1      -0.689   9.350  12.663  0.00  0.00    +0.000 HD
ATOM      3  H   UNL     1      -1.385  10.120  11.240  0.00  0.00    +0.000 HD
ENDROOT
BRANCH   1   4
ATOM      4  C   UNL     1      -1.346   7.969  11.147  0.00  0.00    +0.000 C 
ATOM      5  H   UNL     1      -1.527   7.127  11.828  0.00  0.00    +0.000 HD
ATOM      6  H   UNL     1      -2.135   7.924  10.385  0.00  0.00    +0.000 HD
BRANCH   4   7
ATOM      7  C   UNL     1       0.007   7.761  10.461  0.00  0.00    +0.000 C 
ATOM      8  H   UNL     1       0.434   6.807  10.796  0.00  0.00    +0.000 HD
ATOM      9  H   UNL     1      -0.152   7.665   9.381  0.00  0.00    +0.000 HD
BRANCH   7  10
ATOM     10  C   UNL     1       1.006   8.885  10.734  0.00  0.00    +0.000 C 
ATOM     11  H   UNL     1       1.958   8.461  11.075  0.00  0.00    +0.000 HD
ATOM     12  H   UNL     1       0.612   9.549  11.510  0.00  0.00    +0.000 HD
BRANCH  10  14
ATOM     13  O   UNL     1       0.485  10.485   8.974  0.00  0.00    +0.000 OA
ATOM     14  C   UNL     1       1.275   9.711   9.496  0.00  0.00    +0.000 C 
BRANCH  14  15
ATOM     15  O   UNL     1       2.529   9.497   9.019  0.00  0.00    +0.000 OA
ATOM     16  H   UNL     1       2.709  10.027   8.214  0.00  0.00    +0.000 HD
ENDBRANCH  14  15
ENDBRANCH  10  14
ENDBRANCH   7  10
ENDBRANCH   4   7
ENDBRANCH   1   4
BRANCH   1  17
ATOM     17  C   UNL     1      -2.847   9.396  12.652  0.00  0.00    +0.000 C 
ATOM     18  H   UNL     1      -2.907  10.368  13.158  0.00  0.00    +0.000 HD
ATOM     19  H   UNL     1      -3.659   9.364  11.916  0.00  0.00    +0.000 HD
BRANCH  17  20
ATOM     20  C   UNL     1      -3.030   8.272  13.672  0.00  0.00    +0.000 C 
ATOM     21  H   UNL     1      -4.086   7.984  13.724  0.00  0.00    +0.000 HD
ATOM     22  H   UNL     1      -2.467   7.386  13.355  0.00  0.00    +0.000 HD
BRANCH  20  23
ATOM     23  C   UNL     1      -2.562   8.694  15.056  0.00  0.00    +0.000 C 
ATOM     24  H   UNL     1      -1.783   8.022  15.430  0.00  0.00    +0.000 HD
ATOM     25  H   UNL     1      -3.398   8.672  15.762  0.00  0.00    +0.000 HD
ATOM     26  H   UNL     1      -2.158   9.712  15.039  0.00  0.00    +0.000 HD
ENDBRANCH  20  23
ENDBRANCH  17  20
ENDBRANCH   1  17
TORSDOF 8
ENDMDL
MODEL 8
REMARK VINA RESULT:    -3.859     27.370     28.665
REMARK INTER + INTRA:          -5.609
REMARK INTER:                  -5.439
REMARK INTRA:                  -0.170
REMARK UNBOUND:                -0.170
REMARK  Name = 379
REMARK  8 active torsions:
REMARK  status: ('A' for Active; 'I' for Inactive)
REMARK    1  A    between atoms: O_1  and  C_10
REMARK    2  A    between atoms: C_3  and  C_4
REMARK    3  A    between atoms: C_3  and  C_5
REMARK    4  A    between atoms: C_4  and  C_6
REMARK    5  A    between atoms: C_5  and  C_7
REMARK    6  A    between atoms: C_6  and  C_8
REMARK    7  A    between atoms: C_7  and  C_9
REMARK    8  A    between atoms: C_8  and  C_10
REMARK                            x       y       z     vdW  Elec       q    Type
REMARK                         _______ _______ _______ _____ _____    ______ ____
ROOT
ATOM      1  C   UNL     1     -18.802 -12.186   4.015  0.00  0.00    +0.000 C 
ATOM      2  H   UNL     1     -19.763 -12.069   3.497  0.00  0.00    +0.000 HD
ATOM      3  H   UNL     1     -18.130 -12.704   3.320  0.00  0.00    +0.000 HD
ENDROOT
BRANCH   1   4
ATOM      4  C   UNL     1     -18.230 -10.798   4.315  0.00  0.00    +0.000 C 
ATOM      5  H   UNL     1     -18.995 -10.044   4.084  0.00  0.00    +0.000 HD
ATOM      6  H   UNL     1     -18.042 -10.725   5.395  0.00  0.00    +0.000 HD
BRANCH   4   7
ATOM      7  C   UNL     1     -16.942 -10.432   3.572  0.00  0.00    +0.000 C 
ATOM      8  H   UNL     1     -16.120 -10.361   4.295  0.00  0.00    +0.000 HD
ATOM      9  H   UNL     1     -16.680 -11.248   2.888  0.00  0.00    +0.000 HD
BRANCH   7  10
ATOM     10  C   UNL     1     -17.042  -9.122   2.790  0.00  0.00    +0.000 C 
ATOM     11  H   UNL     1     -16.888  -8.274   3.467  0.00  0.00    +0.000 HD
ATOM     12  H   UNL     1     -18.034  -9.040   2.334  0.00  0.00    +0.000 HD
BRANCH  10  14
ATOM     13  O   UNL     1     -15.063  -9.806   1.547  0.00  0.00    +0.000 OA
ATOM     14  C   UNL     1     -16.008  -9.043   1.690  0.00  0.00    +0.000 C 
BRANCH  14  15
ATOM     15  O   UNL     1     -16.255  -8.003   0.852  0.00  0.00    +0.000 OA
ATOM     16  H   UNL     1     -16.264  -8.285  -0.088  0.00  0.00    +0.000 HD
ENDBRANCH  14  15
ENDBRANCH  10  14
ENDBRANCH   7  10
ENDBRANCH   4   7
ENDBRANCH   1   4
BRANCH   1  17
ATOM     17  C   UNL     1     -19.000 -13.047   5.264  0.00  0.00    +0.000 C 
ATOM     18  H   UNL     1     -19.680 -13.877   5.034  0.00  0.00    +0.000 HD
ATOM     19  H   UNL     1     -18.040 -13.488   5.558  0.00  0.00    +0.000 HD
BRANCH  17  20
ATOM     20  C   UNL     1     -19.566 -12.222   6.420  0.00  0.00    +0.000 C 
ATOM     21  H   UNL     1     -18.940 -11.340   6.591  0.00  0.00    +0.000 HD
ATOM     22  H   UNL     1     -20.570 -11.864   6.165  0.00  0.00    +0.000 HD
BRANCH  20  23
ATOM     23  C   UNL     1     -19.636 -13.037   7.703  0.00  0.00    +0.000 C 
ATOM     24  H   UNL     1     -20.213 -13.955   7.554  0.00  0.00    +0.000 HD
ATOM     25  H   UNL     1     -20.120 -12.456   8.494  0.00  0.00    +0.000 HD
ATOM     26  H   UNL     1     -18.634 -13.312   8.047  0.00  0.00    +0.000 HD
ENDBRANCH  20  23
ENDBRANCH  17  20
ENDBRANCH   1  17
TORSDOF 8
ENDMDL
MODEL 9
REMARK VINA RESULT:    -3.835     16.094     16.933
REMARK INTER + INTRA:          -5.575
REMARK INTER:                  -5.328
REMARK INTRA:                  -0.247
REMARK UNBOUND:                -0.170
REMARK  Name = 379
REMARK  8 active torsions:
REMARK  status: ('A' for Active; 'I' for Inactive)
REMARK    1  A    between atoms: O_1  and  C_10
REMARK    2  A    between atoms: C_3  and  C_4
REMARK    3  A    between atoms: C_3  and  C_5
REMARK    4  A    between atoms: C_4  and  C_6
REMARK    5  A    between atoms: C_5  and  C_7
REMARK    6  A    between atoms: C_6  and  C_8
REMARK    7  A    between atoms: C_7  and  C_9
REMARK    8  A    between atoms: C_8  and  C_10
REMARK                            x       y       z     vdW  Elec       q    Type
REMARK                         _______ _______ _______ _____ _____    ______ ____
ROOT
ATOM      1  C   UNL     1       3.607  12.942 -10.626  0.00  0.00    +0.000 C 
ATOM      2  H   UNL     1       3.914  13.633 -11.422  0.00  0.00    +0.000 HD
ATOM      3  H   UNL     1       4.510  12.701 -10.052  0.00  0.00    +0.000 HD
ENDROOT
BRANCH   1   4
ATOM      4  C   UNL     1       2.612  13.657  -9.708  0.00  0.00    +0.000 C 
ATOM      5  H   UNL     1       1.909  14.230 -10.328  0.00  0.00    +0.000 HD
ATOM      6  H   UNL     1       2.013  12.899  -9.185  0.00  0.00    +0.000 HD
BRANCH   4   7
ATOM      7  C   UNL     1       3.223  14.598  -8.665  0.00  0.00    +0.000 C 
ATOM      8  H   UNL     1       3.063  15.636  -8.984  0.00  0.00    +0.000 HD
ATOM      9  H   UNL     1       2.682  14.481  -7.719  0.00  0.00    +0.000 HD
BRANCH   7  10
ATOM     10  C   UNL     1       4.715  14.364  -8.435  0.00  0.00    +0.000 C 
ATOM     11  H   UNL     1       5.205  14.131  -9.387  0.00  0.00    +0.000 HD
ATOM     12  H   UNL     1       4.855  13.524  -7.746  0.00  0.00    +0.000 HD
BRANCH  10  14
ATOM     13  O   UNL     1       4.827  16.608  -7.498  0.00  0.00    +0.000 OA
ATOM     14  C   UNL     1       5.391  15.579  -7.842  0.00  0.00    +0.000 C 
BRANCH  14  15
ATOM     15  O   UNL     1       6.732  15.393  -7.724  0.00  0.00    +0.000 OA
ATOM     16  H   UNL     1       7.233  16.212  -7.926  0.00  0.00    +0.000 HD
ENDBRANCH  14  15
ENDBRANCH  10  14
ENDBRANCH   7  10
ENDBRANCH   4   7
ENDBRANCH   1   4
BRANCH   1  17
ATOM     17  C   UNL     1       3.048  11.663 -11.251  0.00  0.00    +0.000 C 
ATOM     18  H   UNL     1       3.648  11.391 -12.130  0.00  0.00    +0.000 HD
ATOM     19  H   UNL     1       3.134  10.839 -10.534  0.00  0.00    +0.000 HD
BRANCH  17  20
ATOM     20  C   UNL     1       1.585  11.840 -11.661  0.00  0.00    +0.000 C 
ATOM     21  H   UNL     1       1.210  12.802 -11.295  0.00  0.00    +0.000 HD
ATOM     22  H   UNL     1       1.504  11.855 -12.755  0.00  0.00    +0.000 HD
BRANCH  20  23
ATOM     23  C   UNL     1       0.713  10.724 -11.109  0.00  0.00    +0.000 C 
ATOM     24  H   UNL     1       0.554   9.942 -11.859  0.00  0.00    +0.000 HD
ATOM     25  H   UNL     1      -0.265  11.117 -10.816  0.00  0.00    +0.000 HD
ATOM     26  H   UNL     1       1.174  10.266 -10.227  0.00  0.00    +0.000 HD
ENDBRANCH  20  23
ENDBRANCH  17  20
ENDBRANCH   1  17
TORSDOF 8
ENDMDL
MODEL 10
REMARK VINA RESULT:    -3.804     26.309     27.517
REMARK INTER + INTRA:          -5.530
REMARK INTER:                  -5.257
REMARK INTRA:                  -0.273
REMARK UNBOUND:                -0.170
REMARK  Name = 379
REMARK  8 active torsions:
REMARK  status: ('A' for Active; 'I' for Inactive)
REMARK    1  A    between atoms: O_1  and  C_10
REMARK    2  A    between atoms: C_3  and  C_4
REMARK    3  A    between atoms: C_3  and  C_5
REMARK    4  A    between atoms: C_4  and  C_6
REMARK    5  A    between atoms: C_5  and  C_7
REMARK    6  A    between atoms: C_6  and  C_8
REMARK    7  A    between atoms: C_7  and  C_9
REMARK    8  A    between atoms: C_8  and  C_10
REMARK                            x       y       z     vdW  Elec       q    Type
REMARK                         _______ _______ _______ _____ _____    ______ ____
ROOT
ATOM      1  C   UNL     1     -17.286  -9.747  -0.461  0.00  0.00    +0.000 C 
ATOM      2  H   UNL     1     -16.647 -10.630  -0.589  0.00  0.00    +0.000 HD
ATOM      3  H   UNL     1     -18.179 -10.080   0.084  0.00  0.00    +0.000 HD
ENDROOT
BRANCH   1   4
ATOM      4  C   UNL     1     -16.541  -8.717   0.393  0.00  0.00    +0.000 C 
ATOM      5  H   UNL     1     -15.806  -8.201  -0.239  0.00  0.00    +0.000 HD
ATOM      6  H   UNL     1     -17.258  -7.951   0.719  0.00  0.00    +0.000 HD
BRANCH   4   7
ATOM      7  C   UNL     1     -15.823  -9.268   1.628  0.00  0.00    +0.000 C 
ATOM      8  H   UNL     1     -14.770  -9.448   1.378  0.00  0.00    +0.000 HD
ATOM      9  H   UNL     1     -15.825  -8.502   2.413  0.00  0.00    +0.000 HD
BRANCH   7  10
ATOM     10  C   UNL     1     -16.442 -10.556   2.168  0.00  0.00    +0.000 C 
ATOM     11  H   UNL     1     -15.728 -11.381   2.068  0.00  0.00    +0.000 HD
ATOM     12  H   UNL     1     -17.348 -10.795   1.601  0.00  0.00    +0.000 HD
BRANCH  10  14
ATOM     13  O   UNL     1     -16.277 -11.021   4.553  0.00  0.00    +0.000 OA
ATOM     14  C   UNL     1     -16.818 -10.432   3.627  0.00  0.00    +0.000 C 
BRANCH  14  15
ATOM     15  O   UNL     1     -17.849  -9.565   3.802  0.00  0.00    +0.000 OA
ATOM     16  H   UNL     1     -18.353  -9.756   4.622  0.00  0.00    +0.000 HD
ENDBRANCH  14  15
ENDBRANCH  10  14
ENDBRANCH   7  10
ENDBRANCH   4   7
ENDBRANCH   1   4
BRANCH   1  17
ATOM     17  C   UNL     1     -17.701  -9.215  -1.834  0.00  0.00    +0.000 C 
ATOM     18  H   UNL     1     -17.599  -8.123  -1.851  0.00  0.00    +0.000 HD
ATOM     19  H   UNL     1     -17.027  -9.616  -2.599  0.00  0.00    +0.000 HD
BRANCH  17  20
ATOM     20  C   UNL     1     -19.144  -9.603  -2.164  0.00  0.00    +0.000 C 
ATOM     21  H   UNL     1     -19.773  -8.706  -2.195  0.00  0.00    +0.000 HD
ATOM     22  H   UNL     1     -19.187 -10.065  -3.157  0.00  0.00    +0.000 HD
BRANCH  20  23
ATOM     23  C   UNL     1     -19.709 -10.570  -1.135  0.00  0.00    +0.000 C 
ATOM     24  H   UNL     1     -20.765 -10.783  -1.335  0.00  0.00    +0.000 HD
ATOM     25  H   UNL     1     -19.633 -10.142  -0.131  0.00  0.00    +0.000 HD
ATOM     26  H   UNL     1     -19.160 -11.517  -1.144  0.00  0.00    +0.000 HD
ENDBRANCH  20  23
ENDBRANCH  17  20
ENDBRANCH   1  17
TORSDOF 8
ENDMDL
