MODEL 1
REMARK VINA RESULT:    -5.340      0.000      0.000
REMARK INTER + INTRA:          -5.820
REMARK INTER:                  -5.805
REMARK INTRA:                  -0.015
REMARK UNBOUND:                -0.012
REMARK  Name = 244
REMARK  2 active torsions:
REMARK  status: ('A' for Active; 'I' for Inactive)
REMARK    1  A    between atoms: O_1  and  C_3
REMARK    2  A    between atoms: C_2  and  C_3
REMARK                            x       y       z     vdW  Elec       q    Type
REMARK                         _______ _______ _______ _____ _____    ______ ____
ROOT
ATOM      1  C   UNL     1       7.727  -0.248  -3.849  0.00  0.00    +0.000 A 
ATOM      2  C   UNL     1       6.895  -0.484  -4.943  0.00  0.00    +0.000 A 
ATOM      3  C   UNL     1       7.281   0.547  -2.793  0.00  0.00    +0.000 A 
ATOM      4  C   UNL     1       5.617   0.075  -4.982  0.00  0.00    +0.000 A 
ATOM      5  C   UNL     1       6.003   1.105  -2.831  0.00  0.00    +0.000 A 
ATOM      6  C   UNL     1       5.172   0.868  -3.925  0.00  0.00    +0.000 A 
ATOM      7  H   UNL     1       7.230  -1.103  -5.771  0.00  0.00    +0.000 HD
ATOM      8  H   UNL     1       7.918   0.736  -1.933  0.00  0.00    +0.000 HD
ATOM      9  H   UNL     1       4.970  -0.110  -5.834  0.00  0.00    +0.000 HD
ATOM     10  H   UNL     1       5.655   1.723  -2.009  0.00  0.00    +0.000 HD
ATOM     11  H   UNL     1       4.176   1.303  -3.955  0.00  0.00    +0.000 HD
ENDROOT
BRANCH   1  12
ATOM     12  C   UNL     1       9.093  -0.846  -3.807  0.00  0.00    +0.000 C 
ATOM     13  H   UNL     1       9.705  -0.391  -3.021  0.00  0.00    +0.000 HD
ATOM     14  H   UNL     1       9.053  -1.921  -3.606  0.00  0.00    +0.000 HD
BRANCH  12  15
ATOM     15  O   UNL     1       9.735  -0.644  -5.060  0.00  0.00    +0.000 OA
ATOM     16  H   UNL     1       9.977   0.296  -5.132  0.00  0.00    +0.000 HD
ENDBRANCH  12  15
ENDBRANCH   1  12
TORSDOF 2
ENDMDL
MODEL 2
REMARK VINA RESULT:    -5.132      1.315      2.154
REMARK INTER + INTRA:          -5.594
REMARK INTER:                  -5.583
REMARK INTRA:                  -0.010
REMARK UNBOUND:                -0.012
REMARK  Name = 244
REMARK  2 active torsions:
REMARK  status: ('A' for Active; 'I' for Inactive)
REMARK    1  A    between atoms: O_1  and  C_3
REMARK    2  A    between atoms: C_2  and  C_3
REMARK                            x       y       z     vdW  Elec       q    Type
REMARK                         _______ _______ _______ _____ _____    ______ ____
ROOT
ATOM      1  C   UNL     1       7.908  -0.638  -3.389  0.00  0.00    +0.000 A 
ATOM      2  C   UNL     1       7.492   0.300  -2.444  0.00  0.00    +0.000 A 
ATOM      3  C   UNL     1       7.135  -0.872  -4.527  0.00  0.00    +0.000 A 
ATOM      4  C   UNL     1       6.303   1.004  -2.637  0.00  0.00    +0.000 A 
ATOM      5  C   UNL     1       5.947  -0.167  -4.720  0.00  0.00    +0.000 A 
ATOM      6  C   UNL     1       5.531   0.770  -3.775  0.00  0.00    +0.000 A 
ATOM      7  H   UNL     1       8.086   0.493  -1.556  0.00  0.00    +0.000 HD
ATOM      8  H   UNL     1       7.450  -1.598  -5.271  0.00  0.00    +0.000 HD
ATOM      9  H   UNL     1       5.980   1.735  -1.901  0.00  0.00    +0.000 HD
ATOM     10  H   UNL     1       5.345  -0.349  -5.605  0.00  0.00    +0.000 HD
ATOM     11  H   UNL     1       4.606   1.319  -3.925  0.00  0.00    +0.000 HD
ENDROOT
BRANCH   1  12
ATOM     12  C   UNL     1       9.180  -1.390  -3.183  0.00  0.00    +0.000 C 
ATOM     13  H   UNL     1       9.576  -1.773  -4.130  0.00  0.00    +0.000 HD
ATOM     14  H   UNL     1       9.954  -0.754  -2.741  0.00  0.00    +0.000 HD
BRANCH  12  15
ATOM     15  O   UNL     1       8.943  -2.487  -2.310  0.00  0.00    +0.000 OA
ATOM     16  H   UNL     1       8.888  -2.147  -1.400  0.00  0.00    +0.000 HD
ENDBRANCH  12  15
ENDBRANCH   1  12
TORSDOF 2
ENDMDL
MODEL 3
REMARK VINA RESULT:    -5.043      8.431      9.400
REMARK INTER + INTRA:          -5.497
REMARK INTER:                  -5.476
REMARK INTRA:                  -0.021
REMARK UNBOUND:                -0.012
REMARK  Name = 244
REMARK  2 active torsions:
REMARK  status: ('A' for Active; 'I' for Inactive)
REMARK    1  A    between atoms: O_1  and  C_3
REMARK    2  A    between atoms: C_2  and  C_3
REMARK                            x       y       z     vdW  Elec       q    Type
REMARK                         _______ _______ _______ _____ _____    ______ ____
ROOT
ATOM      1  C   UNL     1      13.658   6.488  -4.543  0.00  0.00    +0.000 A 
ATOM      2  C   UNL     1      12.830   5.570  -3.897  0.00  0.00    +0.000 A 
ATOM      3  C   UNL     1      14.621   6.042  -5.449  0.00  0.00    +0.000 A 
ATOM      4  C   UNL     1      12.966   4.206  -4.155  0.00  0.00    +0.000 A 
ATOM      5  C   UNL     1      14.756   4.678  -5.708  0.00  0.00    +0.000 A 
ATOM      6  C   UNL     1      13.928   3.761  -5.061  0.00  0.00    +0.000 A 
ATOM      7  H   UNL     1      12.076   5.905  -3.191  0.00  0.00    +0.000 HD
ATOM      8  H   UNL     1      15.270   6.748  -5.961  0.00  0.00    +0.000 HD
ATOM      9  H   UNL     1      12.321   3.491  -3.652  0.00  0.00    +0.000 HD
ATOM     10  H   UNL     1      15.505   4.330  -6.413  0.00  0.00    +0.000 HD
ATOM     11  H   UNL     1      14.034   2.698  -5.263  0.00  0.00    +0.000 HD
ENDROOT
BRANCH   1  12
ATOM     12  C   UNL     1      13.513   7.947  -4.267  0.00  0.00    +0.000 C 
ATOM     13  H   UNL     1      12.499   8.297  -4.485  0.00  0.00    +0.000 HD
ATOM     14  H   UNL     1      13.715   8.176  -3.215  0.00  0.00    +0.000 HD
BRANCH  12  15
ATOM     15  O   UNL     1      14.432   8.674  -5.073  0.00  0.00    +0.000 OA
ATOM     16  H   UNL     1      14.016   9.516  -5.326  0.00  0.00    +0.000 HD
ENDBRANCH  12  15
ENDBRANCH   1  12
TORSDOF 2
ENDMDL
MODEL 4
REMARK VINA RESULT:    -4.740      8.691      9.197
REMARK INTER + INTRA:          -5.167
REMARK INTER:                  -5.156
REMARK INTRA:                  -0.010
REMARK UNBOUND:                -0.012
REMARK  Name = 244
REMARK  2 active torsions:
REMARK  status: ('A' for Active; 'I' for Inactive)
REMARK    1  A    between atoms: O_1  and  C_3
REMARK    2  A    between atoms: C_2  and  C_3
REMARK                            x       y       z     vdW  Elec       q    Type
REMARK                         _______ _______ _______ _____ _____    ______ ____
ROOT
ATOM      1  C   UNL     1      12.238   7.597  -4.084  0.00  0.00    +0.000 A 
ATOM      2  C   UNL     1      12.159   7.697  -2.694  0.00  0.00    +0.000 A 
ATOM      3  C   UNL     1      11.075   7.628  -4.852  0.00  0.00    +0.000 A 
ATOM      4  C   UNL     1      10.916   7.828  -2.074  0.00  0.00    +0.000 A 
ATOM      5  C   UNL     1       9.832   7.761  -4.232  0.00  0.00    +0.000 A 
ATOM      6  C   UNL     1       9.753   7.861  -2.844  0.00  0.00    +0.000 A 
ATOM      7  H   UNL     1      13.058   7.677  -2.085  0.00  0.00    +0.000 HD
ATOM      8  H   UNL     1      11.123   7.554  -5.936  0.00  0.00    +0.000 HD
ATOM      9  H   UNL     1      10.855   7.907  -0.993  0.00  0.00    +0.000 HD
ATOM     10  H   UNL     1       8.926   7.786  -4.831  0.00  0.00    +0.000 HD
ATOM     11  H   UNL     1       8.786   7.963  -2.361  0.00  0.00    +0.000 HD
ENDROOT
BRANCH   1  12
ATOM     12  C   UNL     1      13.567   7.457  -4.746  0.00  0.00    +0.000 C 
ATOM     13  H   UNL     1      14.237   6.811  -4.168  0.00  0.00    +0.000 HD
ATOM     14  H   UNL     1      13.472   7.014  -5.744  0.00  0.00    +0.000 HD
BRANCH  12  15
ATOM     15  O   UNL     1      14.168   8.739  -4.877  0.00  0.00    +0.000 OA
ATOM     16  H   UNL     1      15.048   8.707  -4.463  0.00  0.00    +0.000 HD
ENDBRANCH  12  15
ENDBRANCH   1  12
TORSDOF 2
ENDMDL
MODEL 5
REMARK VINA RESULT:    -4.655     22.565     23.451
REMARK INTER + INTRA:          -5.075
REMARK INTER:                  -5.057
REMARK INTRA:                  -0.018
REMARK UNBOUND:                -0.012
REMARK  Name = 244
REMARK  2 active torsions:
REMARK  status: ('A' for Active; 'I' for Inactive)
REMARK    1  A    between atoms: O_1  and  C_3
REMARK    2  A    between atoms: C_2  and  C_3
REMARK                            x       y       z     vdW  Elec       q    Type
REMARK                         _______ _______ _______ _____ _____    ______ ____
ROOT
ATOM      1  C   UNL     1       4.415 -10.373 -24.303  0.00  0.00    +0.000 A 
ATOM      2  C   UNL     1       5.324  -9.329 -24.477  0.00  0.00    +0.000 A 
ATOM      3  C   UNL     1       4.751 -11.665 -24.709  0.00  0.00    +0.000 A 
ATOM      4  C   UNL     1       6.569  -9.577 -25.056  0.00  0.00    +0.000 A 
ATOM      5  C   UNL     1       5.997 -11.913 -25.287  0.00  0.00    +0.000 A 
ATOM      6  C   UNL     1       6.905 -10.869 -25.460  0.00  0.00    +0.000 A 
ATOM      7  H   UNL     1       5.075  -8.319 -24.164  0.00  0.00    +0.000 HD
ATOM      8  H   UNL     1       4.053 -12.487 -24.577  0.00  0.00    +0.000 HD
ATOM      9  H   UNL     1       7.276  -8.764 -25.190  0.00  0.00    +0.000 HD
ATOM     10  H   UNL     1       6.259 -12.918 -25.602  0.00  0.00    +0.000 HD
ATOM     11  H   UNL     1       7.874 -11.062 -25.911  0.00  0.00    +0.000 HD
ENDROOT
BRANCH   1  12
ATOM     12  C   UNL     1       3.084 -10.108 -23.685  0.00  0.00    +0.000 C 
ATOM     13  H   UNL     1       2.337 -10.837 -24.014  0.00  0.00    +0.000 HD
ATOM     14  H   UNL     1       3.133 -10.165 -22.592  0.00  0.00    +0.000 HD
BRANCH  12  15
ATOM     15  O   UNL     1       2.644  -8.806 -24.050  0.00  0.00    +0.000 OA
ATOM     16  H   UNL     1       1.935  -8.541 -23.440  0.00  0.00    +0.000 HD
ENDBRANCH  12  15
ENDBRANCH   1  12
TORSDOF 2
ENDMDL
MODEL 6
REMARK VINA RESULT:    -4.604      8.423      8.986
REMARK INTER + INTRA:          -5.020
REMARK INTER:                  -4.999
REMARK INTRA:                  -0.021
REMARK UNBOUND:                -0.012
REMARK  Name = 244
REMARK  2 active torsions:
REMARK  status: ('A' for Active; 'I' for Inactive)
REMARK    1  A    between atoms: O_1  and  C_3
REMARK    2  A    between atoms: C_2  and  C_3
REMARK                            x       y       z     vdW  Elec       q    Type
REMARK                         _______ _______ _______ _____ _____    ______ ____
ROOT
ATOM      1  C   UNL     1      13.276   6.688  -4.256  0.00  0.00    +0.000 A 
ATOM      2  C   UNL     1      12.970   5.383  -3.868  0.00  0.00    +0.000 A 
ATOM      3  C   UNL     1      12.692   7.767  -3.592  0.00  0.00    +0.000 A 
ATOM      4  C   UNL     1      12.081   5.158  -2.817  0.00  0.00    +0.000 A 
ATOM      5  C   UNL     1      11.803   7.542  -2.541  0.00  0.00    +0.000 A 
ATOM      6  C   UNL     1      11.498   6.237  -2.154  0.00  0.00    +0.000 A 
ATOM      7  H   UNL     1      13.420   4.534  -4.375  0.00  0.00    +0.000 HD
ATOM      8  H   UNL     1      12.923   8.788  -3.883  0.00  0.00    +0.000 HD
ATOM      9  H   UNL     1      11.844   4.141  -2.515  0.00  0.00    +0.000 HD
ATOM     10  H   UNL     1      11.349   8.381  -2.023  0.00  0.00    +0.000 HD
ATOM     11  H   UNL     1      10.806   6.061  -1.335  0.00  0.00    +0.000 HD
ENDROOT
BRANCH   1  12
ATOM     12  C   UNL     1      14.227   6.929  -5.379  0.00  0.00    +0.000 C 
ATOM     13  H   UNL     1      15.145   6.344  -5.260  0.00  0.00    +0.000 HD
ATOM     14  H   UNL     1      13.787   6.648  -6.342  0.00  0.00    +0.000 HD
BRANCH  12  15
ATOM     15  O   UNL     1      14.566   8.309  -5.423  0.00  0.00    +0.000 OA
ATOM     16  H   UNL     1      13.982   8.747  -6.065  0.00  0.00    +0.000 HD
ENDBRANCH  12  15
ENDBRANCH   1  12
TORSDOF 2
ENDMDL
MODEL 7
REMARK VINA RESULT:    -4.419     22.872     23.698
REMARK INTER + INTRA:          -4.818
REMARK INTER:                  -4.806
REMARK INTRA:                  -0.012
REMARK UNBOUND:                -0.012
REMARK  Name = 244
REMARK  2 active torsions:
REMARK  status: ('A' for Active; 'I' for Inactive)
REMARK    1  A    between atoms: O_1  and  C_3
REMARK    2  A    between atoms: C_2  and  C_3
REMARK                            x       y       z     vdW  Elec       q    Type
REMARK                         _______ _______ _______ _____ _____    ______ ____
ROOT
ATOM      1  C   UNL     1       5.788 -11.718 -24.992  0.00  0.00    +0.000 A 
ATOM      2  C   UNL     1       4.465 -11.405 -24.681  0.00  0.00    +0.000 A 
ATOM      3  C   UNL     1       6.736 -10.701 -25.107  0.00  0.00    +0.000 A 
ATOM      4  C   UNL     1       4.090 -10.076 -24.485  0.00  0.00    +0.000 A 
ATOM      5  C   UNL     1       6.361  -9.372 -24.910  0.00  0.00    +0.000 A 
ATOM      6  C   UNL     1       5.038  -9.060 -24.599  0.00  0.00    +0.000 A 
ATOM      7  H   UNL     1       3.718 -12.188 -24.587  0.00  0.00    +0.000 HD
ATOM      8  H   UNL     1       7.771 -10.932 -25.347  0.00  0.00    +0.000 HD
ATOM      9  H   UNL     1       3.059  -9.833 -24.242  0.00  0.00    +0.000 HD
ATOM     10  H   UNL     1       7.099  -8.580 -24.998  0.00  0.00    +0.000 HD
ATOM     11  H   UNL     1       4.746  -8.025 -24.446  0.00  0.00    +0.000 HD
ENDROOT
BRANCH   1  12
ATOM     12  C   UNL     1       6.189 -13.139 -25.202  0.00  0.00    +0.000 C 
ATOM     13  H   UNL     1       5.538 -13.636 -25.929  0.00  0.00    +0.000 HD
ATOM     14  H   UNL     1       7.214 -13.213 -25.582  0.00  0.00    +0.000 HD
BRANCH  12  15
ATOM     15  O   UNL     1       6.113 -13.839 -23.967  0.00  0.00    +0.000 OA
ATOM     16  H   UNL     1       7.016 -14.081 -23.697  0.00  0.00    +0.000 HD
ENDBRANCH  12  15
ENDBRANCH   1  12
TORSDOF 2
ENDMDL
MODEL 8
REMARK VINA RESULT:    -4.396      7.671      8.601
REMARK INTER + INTRA:          -4.793
REMARK INTER:                  -4.773
REMARK INTRA:                  -0.021
REMARK UNBOUND:                -0.012
REMARK  Name = 244
REMARK  2 active torsions:
REMARK  status: ('A' for Active; 'I' for Inactive)
REMARK    1  A    between atoms: O_1  and  C_3
REMARK    2  A    between atoms: C_2  and  C_3
REMARK                            x       y       z     vdW  Elec       q    Type
REMARK                         _______ _______ _______ _____ _____    ______ ____
ROOT
ATOM      1  C   UNL     1      14.026   5.498  -4.843  0.00  0.00    +0.000 A 
ATOM      2  C   UNL     1      14.534   4.219  -5.071  0.00  0.00    +0.000 A 
ATOM      3  C   UNL     1      12.982   5.682  -3.935  0.00  0.00    +0.000 A 
ATOM      4  C   UNL     1      14.000   3.124  -4.391  0.00  0.00    +0.000 A 
ATOM      5  C   UNL     1      12.449   4.587  -3.255  0.00  0.00    +0.000 A 
ATOM      6  C   UNL     1      12.958   3.309  -3.483  0.00  0.00    +0.000 A 
ATOM      7  H   UNL     1      15.348   4.064  -5.773  0.00  0.00    +0.000 HD
ATOM      8  H   UNL     1      12.579   6.673  -3.747  0.00  0.00    +0.000 HD
ATOM      9  H   UNL     1      14.397   2.129  -4.568  0.00  0.00    +0.000 HD
ATOM     10  H   UNL     1      11.637   4.730  -2.548  0.00  0.00    +0.000 HD
ATOM     11  H   UNL     1      12.542   2.457  -2.953  0.00  0.00    +0.000 HD
ENDROOT
BRANCH   1  12
ATOM     12  C   UNL     1      14.597   6.669  -5.570  0.00  0.00    +0.000 C 
ATOM     13  H   UNL     1      15.581   6.943  -5.177  0.00  0.00    +0.000 HD
ATOM     14  H   UNL     1      14.723   6.454  -6.637  0.00  0.00    +0.000 HD
BRANCH  12  15
ATOM     15  O   UNL     1      13.723   7.782  -5.433  0.00  0.00    +0.000 OA
ATOM     16  H   UNL     1      13.984   8.457  -6.083  0.00  0.00    +0.000 HD
ENDBRANCH  12  15
ENDBRANCH   1  12
TORSDOF 2
ENDMDL
MODEL 9
REMARK VINA RESULT:    -4.272      7.767      8.456
REMARK INTER + INTRA:          -4.659
REMARK INTER:                  -4.642
REMARK INTRA:                  -0.016
REMARK UNBOUND:                -0.012
REMARK  Name = 244
REMARK  2 active torsions:
REMARK  status: ('A' for Active; 'I' for Inactive)
REMARK    1  A    between atoms: O_1  and  C_3
REMARK    2  A    between atoms: C_2  and  C_3
REMARK                            x       y       z     vdW  Elec       q    Type
REMARK                         _______ _______ _______ _____ _____    ______ ____
ROOT
ATOM      1  C   UNL     1      13.471   5.227  -4.392  0.00  0.00    +0.000 A 
ATOM      2  C   UNL     1      12.405   5.268  -3.493  0.00  0.00    +0.000 A 
ATOM      3  C   UNL     1      14.051   6.414  -4.841  0.00  0.00    +0.000 A 
ATOM      4  C   UNL     1      11.919   6.495  -3.043  0.00  0.00    +0.000 A 
ATOM      5  C   UNL     1      13.565   7.642  -4.390  0.00  0.00    +0.000 A 
ATOM      6  C   UNL     1      12.499   7.682  -3.491  0.00  0.00    +0.000 A 
ATOM      7  H   UNL     1      11.947   4.351  -3.134  0.00  0.00    +0.000 HD
ATOM      8  H   UNL     1      14.883   6.396  -5.539  0.00  0.00    +0.000 HD
ATOM      9  H   UNL     1      11.089   6.526  -2.342  0.00  0.00    +0.000 HD
ATOM     10  H   UNL     1      14.016   8.566  -4.738  0.00  0.00    +0.000 HD
ATOM     11  H   UNL     1      12.120   8.638  -3.140  0.00  0.00    +0.000 HD
ENDROOT
BRANCH   1  12
ATOM     12  C   UNL     1      13.991   3.914  -4.873  0.00  0.00    +0.000 C 
ATOM     13  H   UNL     1      14.596   4.031  -5.779  0.00  0.00    +0.000 HD
ATOM     14  H   UNL     1      14.626   3.435  -4.120  0.00  0.00    +0.000 HD
BRANCH  12  15
ATOM     15  O   UNL     1      12.899   3.050  -5.161  0.00  0.00    +0.000 OA
ATOM     16  H   UNL     1      12.300   3.051  -4.394  0.00  0.00    +0.000 HD
ENDBRANCH  12  15
ENDBRANCH   1  12
TORSDOF 2
ENDMDL
MODEL 10
REMARK VINA RESULT:    -4.260      8.546      9.407
REMARK INTER + INTRA:          -4.645
REMARK INTER:                  -4.625
REMARK INTRA:                  -0.020
REMARK UNBOUND:                -0.012
REMARK  Name = 244
REMARK  2 active torsions:
REMARK  status: ('A' for Active; 'I' for Inactive)
REMARK    1  A    between atoms: O_1  and  C_3
REMARK    2  A    between atoms: C_2  and  C_3
REMARK                            x       y       z     vdW  Elec       q    Type
REMARK                         _______ _______ _______ _____ _____    ______ ____
ROOT
ATOM      1  C   UNL     1      12.461   7.048  -4.048  0.00  0.00    +0.000 A 
ATOM      2  C   UNL     1      13.539   7.414  -4.854  0.00  0.00    +0.000 A 
ATOM      3  C   UNL     1      12.272   5.710  -3.701  0.00  0.00    +0.000 A 
ATOM      4  C   UNL     1      14.428   6.441  -5.313  0.00  0.00    +0.000 A 
ATOM      5  C   UNL     1      13.162   4.738  -4.158  0.00  0.00    +0.000 A 
ATOM      6  C   UNL     1      14.239   5.104  -4.964  0.00  0.00    +0.000 A 
ATOM      7  H   UNL     1      13.698   8.452  -5.130  0.00  0.00    +0.000 HD
ATOM      8  H   UNL     1      11.437   5.413  -3.071  0.00  0.00    +0.000 HD
ATOM      9  H   UNL     1      15.268   6.727  -5.940  0.00  0.00    +0.000 HD
ATOM     10  H   UNL     1      13.016   3.697  -3.888  0.00  0.00    +0.000 HD
ATOM     11  H   UNL     1      14.932   4.347  -5.321  0.00  0.00    +0.000 HD
ENDROOT
BRANCH   1  12
ATOM     12  C   UNL     1      11.510   8.088  -3.558  0.00  0.00    +0.000 C 
ATOM     13  H   UNL     1      10.475   7.729  -3.586  0.00  0.00    +0.000 HD
ATOM     14  H   UNL     1      11.726   8.371  -2.522  0.00  0.00    +0.000 HD
BRANCH  12  15
ATOM     15  O   UNL     1      11.614   9.247  -4.375  0.00  0.00    +0.000 OA
ATOM     16  H   UNL     1      12.513   9.608  -4.280  0.00  0.00    +0.000 HD
ENDBRANCH  12  15
ENDBRANCH   1  12
TORSDOF 2
ENDMDL
