MODEL 1
REMARK VINA RESULT:    -3.583      0.000      0.000
REMARK INTER + INTRA:          -4.577
REMARK INTER:                  -4.488
REMARK INTRA:                  -0.089
REMARK UNBOUND:                -0.156
REMARK  Name = 7997
REMARK  5 active torsions:
REMARK  status: ('A' for Active; 'I' for Inactive)
REMARK    1  A    between atoms: O_1  and  C_4
REMARK    2  A    between atoms: O_1  and  C_6
REMARK    3  A    between atoms: C_3  and  C_4
REMARK    4  A    between atoms: C_3  and  C_5
REMARK    5  A    between atoms: C_6  and  C_7
REMARK                            x       y       z     vdW  Elec       q    Type
REMARK                         _______ _______ _______ _____ _____    ______ ____
ROOT
ATOM      1  C   UNL     1      10.342   7.818  -3.720  0.00  0.00    +0.000 C 
ATOM      2  H   UNL     1      10.959   6.947  -3.971  0.00  0.00    +0.000 HD
ATOM      3  H   UNL     1      10.980   8.598  -3.290  0.00  0.00    +0.000 HD
ENDROOT
BRANCH   1   4
ATOM      4  C   UNL     1       9.649   8.342  -4.968  0.00  0.00    +0.000 C 
ATOM      5  H   UNL     1       8.928   9.122  -4.690  0.00  0.00    +0.000 HD
ATOM      6  H   UNL     1      10.383   8.829  -5.620  0.00  0.00    +0.000 HD
BRANCH   4   7
ATOM      7  C   UNL     1       8.940   7.235  -5.728  0.00  0.00    +0.000 C 
ATOM      8  H   UNL     1       9.572   6.844  -6.531  0.00  0.00    +0.000 HD
ATOM      9  H   UNL     1       8.695   6.408  -5.054  0.00  0.00    +0.000 HD
ATOM     10  H   UNL     1       8.007   7.600  -6.171  0.00  0.00    +0.000 HD
ENDBRANCH   4   7
ENDBRANCH   1   4
BRANCH   1  11
ATOM     11  O   UNL     1       9.354   7.438  -2.771  0.00  0.00    +0.000 OA
BRANCH  11  13
ATOM     12  O   UNL     1       8.662   8.535  -0.859  0.00  0.00    +0.000 OA
ATOM     13  C   UNL     1       9.513   7.945  -1.510  0.00  0.00    +0.000 C 
BRANCH  13  14
ATOM     14  C   UNL     1      10.903   7.671  -1.023  0.00  0.00    +0.000 C 
ATOM     15  H   UNL     1      11.046   6.594  -0.895  0.00  0.00    +0.000 HD
ATOM     16  H   UNL     1      11.078   8.196  -0.081  0.00  0.00    +0.000 HD
ATOM     17  H   UNL     1      11.625   8.032  -1.762  0.00  0.00    +0.000 HD
ENDBRANCH  13  14
ENDBRANCH  11  13
ENDBRANCH   1  11
TORSDOF 5
ENDMDL
MODEL 2
REMARK VINA RESULT:    -3.330     23.678     24.854
REMARK INTER + INTRA:          -4.264
REMARK INTER:                  -4.173
REMARK INTRA:                  -0.091
REMARK UNBOUND:                -0.156
REMARK  Name = 7997
REMARK  5 active torsions:
REMARK  status: ('A' for Active; 'I' for Inactive)
REMARK    1  A    between atoms: O_1  and  C_4
REMARK    2  A    between atoms: O_1  and  C_6
REMARK    3  A    between atoms: C_3  and  C_4
REMARK    4  A    between atoms: C_3  and  C_5
REMARK    5  A    between atoms: C_6  and  C_7
REMARK                            x       y       z     vdW  Elec       q    Type
REMARK                         _______ _______ _______ _____ _____    ______ ____
ROOT
ATOM      1  C   UNL     1      -0.628 -13.111 -10.450  0.00  0.00    +0.000 C 
ATOM      2  H   UNL     1      -0.523 -14.163 -10.158  0.00  0.00    +0.000 HD
ATOM      3  H   UNL     1      -1.630 -12.952 -10.864  0.00  0.00    +0.000 HD
ENDROOT
BRANCH   1   4
ATOM      4  C   UNL     1      -0.414 -12.211  -9.243  0.00  0.00    +0.000 C 
ATOM      5  H   UNL     1       0.660 -12.119  -9.037  0.00  0.00    +0.000 HD
ATOM      6  H   UNL     1      -0.764 -11.198  -9.472  0.00  0.00    +0.000 HD
BRANCH   4   7
ATOM      7  C   UNL     1      -1.130 -12.737  -8.012  0.00  0.00    +0.000 C 
ATOM      8  H   UNL     1      -0.455 -12.775  -7.152  0.00  0.00    +0.000 HD
ATOM      9  H   UNL     1      -1.972 -12.087  -7.755  0.00  0.00    +0.000 HD
ATOM     10  H   UNL     1      -1.520 -13.745  -8.187  0.00  0.00    +0.000 HD
ENDBRANCH   4   7
ENDBRANCH   1   4
BRANCH   1  11
ATOM     11  O   UNL     1       0.346 -12.795 -11.436  0.00  0.00    +0.000 OA
BRANCH  11  13
ATOM     12  O   UNL     1       0.643 -12.861 -13.726  0.00  0.00    +0.000 OA
ATOM     13  C   UNL     1       0.064 -13.214 -12.708  0.00  0.00    +0.000 C 
BRANCH  13  14
ATOM     14  C   UNL     1      -1.076 -14.186 -12.683  0.00  0.00    +0.000 C 
ATOM     15  H   UNL     1      -1.703 -14.045 -13.568  0.00  0.00    +0.000 HD
ATOM     16  H   UNL     1      -1.661 -14.049 -11.771  0.00  0.00    +0.000 HD
ATOM     17  H   UNL     1      -0.682 -15.207 -12.695  0.00  0.00    +0.000 HD
ENDBRANCH  13  14
ENDBRANCH  11  13
ENDBRANCH   1  11
TORSDOF 5
ENDMDL
MODEL 3
REMARK VINA RESULT:    -3.139      4.011      4.666
REMARK INTER + INTRA:          -4.029
REMARK INTER:                  -3.911
REMARK INTRA:                  -0.118
REMARK UNBOUND:                -0.156
REMARK  Name = 7997
REMARK  5 active torsions:
REMARK  status: ('A' for Active; 'I' for Inactive)
REMARK    1  A    between atoms: O_1  and  C_4
REMARK    2  A    between atoms: O_1  and  C_6
REMARK    3  A    between atoms: C_3  and  C_4
REMARK    4  A    between atoms: C_3  and  C_5
REMARK    5  A    between atoms: C_6  and  C_7
REMARK                            x       y       z     vdW  Elec       q    Type
REMARK                         _______ _______ _______ _____ _____    ______ ____
ROOT
ATOM      1  C   UNL     1      14.208   7.002  -5.177  0.00  0.00    +0.000 C 
ATOM      2  H   UNL     1      15.174   7.405  -5.508  0.00  0.00    +0.000 HD
ATOM      3  H   UNL     1      13.494   7.060  -6.006  0.00  0.00    +0.000 HD
ENDROOT
BRANCH   1   4
ATOM      4  C   UNL     1      14.372   5.558  -4.730  0.00  0.00    +0.000 C 
ATOM      5  H   UNL     1      15.058   5.512  -3.875  0.00  0.00    +0.000 HD
ATOM      6  H   UNL     1      13.411   5.175  -4.365  0.00  0.00    +0.000 HD
BRANCH   4   7
ATOM      7  C   UNL     1      14.887   4.674  -5.851  0.00  0.00    +0.000 C 
ATOM      8  H   UNL     1      14.252   3.791  -5.978  0.00  0.00    +0.000 HD
ATOM      9  H   UNL     1      14.896   5.225  -6.796  0.00  0.00    +0.000 HD
ATOM     10  H   UNL     1      15.907   4.335  -5.645  0.00  0.00    +0.000 HD
ENDBRANCH   4   7
ENDBRANCH   1   4
BRANCH   1  11
ATOM     11  O   UNL     1      13.727   7.770  -4.082  0.00  0.00    +0.000 OA
BRANCH  11  13
ATOM     12  O   UNL     1      11.531   7.777  -4.800  0.00  0.00    +0.000 OA
ATOM     13  C   UNL     1      12.369   7.775  -3.909  0.00  0.00    +0.000 C 
BRANCH  13  14
ATOM     14  C   UNL     1      12.042   7.775  -2.447  0.00  0.00    +0.000 C 
ATOM     15  H   UNL     1      11.900   6.749  -2.099  0.00  0.00    +0.000 HD
ATOM     16  H   UNL     1      11.145   8.370  -2.267  0.00  0.00    +0.000 HD
ATOM     17  H   UNL     1      12.873   8.220  -1.889  0.00  0.00    +0.000 HD
ENDBRANCH  13  14
ENDBRANCH  11  13
ENDBRANCH   1  11
TORSDOF 5
ENDMDL
MODEL 4
REMARK VINA RESULT:    -3.041     24.700     26.082
REMARK INTER + INTRA:          -3.907
REMARK INTER:                  -3.782
REMARK INTRA:                  -0.125
REMARK UNBOUND:                -0.156
REMARK  Name = 7997
REMARK  5 active torsions:
REMARK  status: ('A' for Active; 'I' for Inactive)
REMARK    1  A    between atoms: O_1  and  C_4
REMARK    2  A    between atoms: O_1  and  C_6
REMARK    3  A    between atoms: C_3  and  C_4
REMARK    4  A    between atoms: C_3  and  C_5
REMARK    5  A    between atoms: C_6  and  C_7
REMARK                            x       y       z     vdW  Elec       q    Type
REMARK                         _______ _______ _______ _____ _____    ______ ____
ROOT
ATOM      1  C   UNL     1      -1.645 -13.693 -10.348  0.00  0.00    +0.000 C 
ATOM      2  H   UNL     1      -2.735 -13.577 -10.358  0.00  0.00    +0.000 HD
ATOM      3  H   UNL     1      -1.197 -12.932 -10.997  0.00  0.00    +0.000 HD
ENDROOT
BRANCH   1   4
ATOM      4  C   UNL     1      -1.118 -13.544  -8.929  0.00  0.00    +0.000 C 
ATOM      5  H   UNL     1      -1.940 -13.673  -8.215  0.00  0.00    +0.000 HD
ATOM      6  H   UNL     1      -0.404 -14.348  -8.715  0.00  0.00    +0.000 HD
BRANCH   4   7
ATOM      7  C   UNL     1      -0.456 -12.195  -8.711  0.00  0.00    +0.000 C 
ATOM      8  H   UNL     1      -0.802 -11.734  -7.781  0.00  0.00    +0.000 HD
ATOM      9  H   UNL     1       0.630 -12.310  -8.650  0.00  0.00    +0.000 HD
ATOM     10  H   UNL     1      -0.679 -11.511  -9.537  0.00  0.00    +0.000 HD
ENDBRANCH   4   7
ENDBRANCH   1   4
BRANCH   1  11
ATOM     11  O   UNL     1      -1.303 -14.986 -10.831  0.00  0.00    +0.000 OA
BRANCH  11  13
ATOM     12  O   UNL     1      -1.518 -16.065 -12.862  0.00  0.00    +0.000 OA
ATOM     13  C   UNL     1      -1.180 -15.101 -12.189  0.00  0.00    +0.000 C 
BRANCH  13  14
ATOM     14  C   UNL     1      -0.562 -13.857 -12.752  0.00  0.00    +0.000 C 
ATOM     15  H   UNL     1      -0.236 -14.037 -13.779  0.00  0.00    +0.000 HD
ATOM     16  H   UNL     1       0.280 -13.546 -12.130  0.00  0.00    +0.000 HD
ATOM     17  H   UNL     1      -1.306 -13.054 -12.758  0.00  0.00    +0.000 HD
ENDBRANCH  13  14
ENDBRANCH  11  13
ENDBRANCH   1  11
TORSDOF 5
ENDMDL
MODEL 5
REMARK VINA RESULT:    -2.998     23.711     24.675
REMARK INTER + INTRA:          -3.855
REMARK INTER:                  -3.736
REMARK INTRA:                  -0.119
REMARK UNBOUND:                -0.156
REMARK  Name = 7997
REMARK  5 active torsions:
REMARK  status: ('A' for Active; 'I' for Inactive)
REMARK    1  A    between atoms: O_1  and  C_4
REMARK    2  A    between atoms: O_1  and  C_6
REMARK    3  A    between atoms: C_3  and  C_4
REMARK    4  A    between atoms: C_3  and  C_5
REMARK    5  A    between atoms: C_6  and  C_7
REMARK                            x       y       z     vdW  Elec       q    Type
REMARK                         _______ _______ _______ _____ _____    ______ ____
ROOT
ATOM      1  C   UNL     1      -0.053 -12.697 -10.799  0.00  0.00    +0.000 C 
ATOM      2  H   UNL     1       0.887 -12.735 -10.235  0.00  0.00    +0.000 HD
ATOM      3  H   UNL     1      -0.411 -11.661 -10.830  0.00  0.00    +0.000 HD
ENDROOT
BRANCH   1   4
ATOM      4  C   UNL     1       0.165 -13.214 -12.212  0.00  0.00    +0.000 C 
ATOM      5  H   UNL     1       0.352 -12.371 -12.889  0.00  0.00    +0.000 HD
ATOM      6  H   UNL     1       1.071 -13.831 -12.242  0.00  0.00    +0.000 HD
BRANCH   4   7
ATOM      7  C   UNL     1      -1.023 -14.019 -12.709  0.00  0.00    +0.000 C 
ATOM      8  H   UNL     1      -0.710 -15.010 -13.051  0.00  0.00    +0.000 HD
ATOM      9  H   UNL     1      -1.755 -14.151 -11.907  0.00  0.00    +0.000 HD
ATOM     10  H   UNL     1      -1.520 -13.510 -13.541  0.00  0.00    +0.000 HD
ENDBRANCH   4   7
ENDBRANCH   1   4
BRANCH   1  11
ATOM     11  O   UNL     1      -1.022 -13.513 -10.155  0.00  0.00    +0.000 OA
BRANCH  11  13
ATOM     12  O   UNL     1      -1.407 -14.352  -8.037  0.00  0.00    +0.000 OA
ATOM     13  C   UNL     1      -1.030 -13.463  -8.787  0.00  0.00    +0.000 C 
BRANCH  13  14
ATOM     14  C   UNL     1      -0.499 -12.140  -8.324  0.00  0.00    +0.000 C 
ATOM     15  H   UNL     1       0.396 -11.879  -8.894  0.00  0.00    +0.000 HD
ATOM     16  H   UNL     1      -0.276 -12.184  -7.255  0.00  0.00    +0.000 HD
ATOM     17  H   UNL     1      -1.256 -11.367  -8.490  0.00  0.00    +0.000 HD
ENDBRANCH  13  14
ENDBRANCH  11  13
ENDBRANCH   1  11
TORSDOF 5
ENDMDL
MODEL 6
REMARK VINA RESULT:    -2.911     23.315     24.221
REMARK INTER + INTRA:          -3.747
REMARK INTER:                  -3.591
REMARK INTRA:                  -0.156
REMARK UNBOUND:                -0.156
REMARK  Name = 7997
REMARK  5 active torsions:
REMARK  status: ('A' for Active; 'I' for Inactive)
REMARK    1  A    between atoms: O_1  and  C_4
REMARK    2  A    between atoms: O_1  and  C_6
REMARK    3  A    between atoms: C_3  and  C_4
REMARK    4  A    between atoms: C_3  and  C_5
REMARK    5  A    between atoms: C_6  and  C_7
REMARK                            x       y       z     vdW  Elec       q    Type
REMARK                         _______ _______ _______ _____ _____    ______ ____
ROOT
ATOM      1  C   UNL     1      -1.498 -14.186  -8.163  0.00  0.00    +0.000 C 
ATOM      2  H   UNL     1      -2.375 -14.834  -8.281  0.00  0.00    +0.000 HD
ATOM      3  H   UNL     1      -0.635 -14.800  -7.879  0.00  0.00    +0.000 HD
ENDROOT
BRANCH   1   4
ATOM      4  C   UNL     1      -1.211 -13.454  -9.464  0.00  0.00    +0.000 C 
ATOM      5  H   UNL     1      -0.666 -14.117 -10.148  0.00  0.00    +0.000 HD
ATOM      6  H   UNL     1      -2.155 -13.213  -9.967  0.00  0.00    +0.000 HD
BRANCH   4   7
ATOM      7  C   UNL     1      -0.411 -12.184  -9.234  0.00  0.00    +0.000 C 
ATOM      8  H   UNL     1       0.664 -12.387  -9.265  0.00  0.00    +0.000 HD
ATOM      9  H   UNL     1      -0.640 -11.445 -10.008  0.00  0.00    +0.000 HD
ATOM     10  H   UNL     1      -0.649 -11.742  -8.262  0.00  0.00    +0.000 HD
ENDBRANCH   4   7
ENDBRANCH   1   4
BRANCH   1  11
ATOM     11  O   UNL     1      -1.753 -13.228  -7.144  0.00  0.00    +0.000 OA
BRANCH  11  13
ATOM     12  O   UNL     1      -1.540 -14.529  -5.246  0.00  0.00    +0.000 OA
ATOM     13  C   UNL     1      -1.264 -13.534  -5.903  0.00  0.00    +0.000 C 
BRANCH  13  14
ATOM     14  C   UNL     1      -0.322 -12.462  -5.448  0.00  0.00    +0.000 C 
ATOM     15  H   UNL     1      -0.142 -12.557  -4.374  0.00  0.00    +0.000 HD
ATOM     16  H   UNL     1      -0.736 -11.479  -5.683  0.00  0.00    +0.000 HD
ATOM     17  H   UNL     1       0.633 -12.572  -5.972  0.00  0.00    +0.000 HD
ENDBRANCH  13  14
ENDBRANCH  11  13
ENDBRANCH   1  11
TORSDOF 5
ENDMDL
MODEL 7
REMARK VINA RESULT:    -2.865     27.979     29.318
REMARK INTER + INTRA:          -3.690
REMARK INTER:                  -3.570
REMARK INTRA:                  -0.121
REMARK UNBOUND:                -0.156
REMARK  Name = 7997
REMARK  5 active torsions:
REMARK  status: ('A' for Active; 'I' for Inactive)
REMARK    1  A    between atoms: O_1  and  C_4
REMARK    2  A    between atoms: O_1  and  C_6
REMARK    3  A    between atoms: C_3  and  C_4
REMARK    4  A    between atoms: C_3  and  C_5
REMARK    5  A    between atoms: C_6  and  C_7
REMARK                            x       y       z     vdW  Elec       q    Type
REMARK                         _______ _______ _______ _____ _____    ______ ____
ROOT
ATOM      1  C   UNL     1       4.675 -11.749 -24.751  0.00  0.00    +0.000 C 
ATOM      2  H   UNL     1       3.908 -11.291 -25.387  0.00  0.00    +0.000 HD
ATOM      3  H   UNL     1       4.362 -11.677 -23.703  0.00  0.00    +0.000 HD
ENDROOT
BRANCH   1   4
ATOM      4  C   UNL     1       4.869 -13.207 -25.137  0.00  0.00    +0.000 C 
ATOM      5  H   UNL     1       4.189 -13.837 -24.550  0.00  0.00    +0.000 HD
ATOM      6  H   UNL     1       4.583 -13.352 -26.186  0.00  0.00    +0.000 HD
BRANCH   4   7
ATOM      7  C   UNL     1       6.302 -13.662 -24.926  0.00  0.00    +0.000 C 
ATOM      8  H   UNL     1       6.967 -13.226 -25.678  0.00  0.00    +0.000 HD
ATOM      9  H   UNL     1       6.658 -13.354 -23.938  0.00  0.00    +0.000 HD
ATOM     10  H   UNL     1       6.380 -14.752 -24.990  0.00  0.00    +0.000 HD
ENDBRANCH   4   7
ENDBRANCH   1   4
BRANCH   1  11
ATOM     11  O   UNL     1       5.906 -11.060 -24.926  0.00  0.00    +0.000 OA
BRANCH  11  13
ATOM     12  O   UNL     1       6.869  -9.037 -24.363  0.00  0.00    +0.000 OA
ATOM     13  C   UNL     1       5.892  -9.727 -24.619  0.00  0.00    +0.000 C 
BRANCH  13  14
ATOM     14  C   UNL     1       4.484  -9.214 -24.643  0.00  0.00    +0.000 C 
ATOM     15  H   UNL     1       4.431  -8.253 -24.125  0.00  0.00    +0.000 HD
ATOM     16  H   UNL     1       3.816  -9.941 -24.175  0.00  0.00    +0.000 HD
ATOM     17  H   UNL     1       4.168  -9.068 -25.681  0.00  0.00    +0.000 HD
ENDBRANCH  13  14
ENDBRANCH  11  13
ENDBRANCH   1  11
TORSDOF 5
ENDMDL
MODEL 8
REMARK VINA RESULT:    -2.842     32.419     32.898
REMARK INTER + INTRA:          -3.662
REMARK INTER:                  -3.507
REMARK INTRA:                  -0.156
REMARK UNBOUND:                -0.156
REMARK  Name = 7997
REMARK  5 active torsions:
REMARK  status: ('A' for Active; 'I' for Inactive)
REMARK    1  A    between atoms: O_1  and  C_4
REMARK    2  A    between atoms: O_1  and  C_6
REMARK    3  A    between atoms: C_3  and  C_4
REMARK    4  A    between atoms: C_3  and  C_5
REMARK    5  A    between atoms: C_6  and  C_7
REMARK                            x       y       z     vdW  Elec       q    Type
REMARK                         _______ _______ _______ _____ _____    ______ ____
ROOT
ATOM      1  C   UNL     1     -16.376  -9.663   2.457  0.00  0.00    +0.000 C 
ATOM      2  H   UNL     1     -16.558 -10.628   1.968  0.00  0.00    +0.000 HD
ATOM      3  H   UNL     1     -15.435  -9.716   3.016  0.00  0.00    +0.000 HD
ENDROOT
BRANCH   1   4
ATOM      4  C   UNL     1     -16.301  -8.558   1.415  0.00  0.00    +0.000 C 
ATOM      5  H   UNL     1     -16.965  -7.733   1.704  0.00  0.00    +0.000 HD
ATOM      6  H   UNL     1     -15.288  -8.137   1.398  0.00  0.00    +0.000 HD
BRANCH   4   7
ATOM      7  C   UNL     1     -16.674  -9.059   0.032  0.00  0.00    +0.000 C 
ATOM      8  H   UNL     1     -17.564  -8.544  -0.345  0.00  0.00    +0.000 HD
ATOM      9  H   UNL     1     -15.855  -8.880  -0.671  0.00  0.00    +0.000 HD
ATOM     10  H   UNL     1     -16.881 -10.134   0.047  0.00  0.00    +0.000 HD
ENDBRANCH   4   7
ENDBRANCH   1   4
BRANCH   1  11
ATOM     11  O   UNL     1     -17.443  -9.379   3.352  0.00  0.00    +0.000 OA
BRANCH  11  13
ATOM     12  O   UNL     1     -18.454 -10.863   4.805  0.00  0.00    +0.000 OA
ATOM     13  C   UNL     1     -18.246 -10.438   3.677  0.00  0.00    +0.000 C 
BRANCH  13  14
ATOM     14  C   UNL     1     -18.851 -11.019   2.436  0.00  0.00    +0.000 C 
ATOM     15  H   UNL     1     -18.294 -11.909   2.132  0.00  0.00    +0.000 HD
ATOM     16  H   UNL     1     -18.850 -10.273   1.638  0.00  0.00    +0.000 HD
ATOM     17  H   UNL     1     -19.887 -11.310   2.639  0.00  0.00    +0.000 HD
ENDBRANCH  13  14
ENDBRANCH  11  13
ENDBRANCH   1  11
TORSDOF 5
ENDMDL
MODEL 9
REMARK VINA RESULT:    -2.836     28.544     29.326
REMARK INTER + INTRA:          -3.655
REMARK INTER:                  -3.500
REMARK INTRA:                  -0.154
REMARK UNBOUND:                -0.156
REMARK  Name = 7997
REMARK  5 active torsions:
REMARK  status: ('A' for Active; 'I' for Inactive)
REMARK    1  A    between atoms: O_1  and  C_4
REMARK    2  A    between atoms: O_1  and  C_6
REMARK    3  A    between atoms: C_3  and  C_4
REMARK    4  A    between atoms: C_3  and  C_5
REMARK    5  A    between atoms: C_6  and  C_7
REMARK                            x       y       z     vdW  Elec       q    Type
REMARK                         _______ _______ _______ _____ _____    ______ ____
ROOT
ATOM      1  C   UNL     1       6.580  -9.947 -25.044  0.00  0.00    +0.000 C 
ATOM      2  H   UNL     1       6.793 -10.754 -24.331  0.00  0.00    +0.000 HD
ATOM      3  H   UNL     1       6.807  -8.984 -24.573  0.00  0.00    +0.000 HD
ENDROOT
BRANCH   1   4
ATOM      4  C   UNL     1       7.423 -10.125 -26.297  0.00  0.00    +0.000 C 
ATOM      5  H   UNL     1       6.804  -9.953 -27.186  0.00  0.00    +0.000 HD
ATOM      6  H   UNL     1       8.208  -9.360 -26.325  0.00  0.00    +0.000 HD
BRANCH   4   7
ATOM      7  C   UNL     1       8.049 -11.507 -26.367  0.00  0.00    +0.000 C 
ATOM      8  H   UNL     1       8.955 -11.497 -26.980  0.00  0.00    +0.000 HD
ATOM      9  H   UNL     1       8.320 -11.852 -25.365  0.00  0.00    +0.000 HD
ATOM     10  H   UNL     1       7.350 -12.231 -26.798  0.00  0.00    +0.000 HD
ENDBRANCH   4   7
ENDBRANCH   1   4
BRANCH   1  11
ATOM     11  O   UNL     1       5.207  -9.986 -25.405  0.00  0.00    +0.000 OA
BRANCH  11  13
ATOM     12  O   UNL     1       3.533 -10.378 -23.861  0.00  0.00    +0.000 OA
ATOM     13  C   UNL     1       4.406 -10.773 -24.621  0.00  0.00    +0.000 C 
BRANCH  13  14
ATOM     14  C   UNL     1       4.751 -12.216 -24.828  0.00  0.00    +0.000 C 
ATOM     15  H   UNL     1       5.541 -12.512 -24.132  0.00  0.00    +0.000 HD
ATOM     16  H   UNL     1       5.068 -12.379 -25.860  0.00  0.00    +0.000 HD
ATOM     17  H   UNL     1       3.867 -12.832 -24.633  0.00  0.00    +0.000 HD
ENDBRANCH  13  14
ENDBRANCH  11  13
ENDBRANCH   1  11
TORSDOF 5
ENDMDL
MODEL 10
REMARK VINA RESULT:    -2.760      5.093      5.770
REMARK INTER + INTRA:          -3.561
REMARK INTER:                  -3.461
REMARK INTRA:                  -0.100
REMARK UNBOUND:                -0.156
REMARK  Name = 7997
REMARK  5 active torsions:
REMARK  status: ('A' for Active; 'I' for Inactive)
REMARK    1  A    between atoms: O_1  and  C_4
REMARK    2  A    between atoms: O_1  and  C_6
REMARK    3  A    between atoms: C_3  and  C_4
REMARK    4  A    between atoms: C_3  and  C_5
REMARK    5  A    between atoms: C_6  and  C_7
REMARK                            x       y       z     vdW  Elec       q    Type
REMARK                         _______ _______ _______ _____ _____    ______ ____
ROOT
ATOM      1  C   UNL     1      14.260   5.710  -4.710  0.00  0.00    +0.000 C 
ATOM      2  H   UNL     1      14.316   5.238  -5.699  0.00  0.00    +0.000 HD
ATOM      3  H   UNL     1      15.276   5.880  -4.336  0.00  0.00    +0.000 HD
ENDROOT
BRANCH   1   4
ATOM      4  C   UNL     1      13.512   7.031  -4.805  0.00  0.00    +0.000 C 
ATOM      5  H   UNL     1      14.085   7.816  -4.297  0.00  0.00    +0.000 HD
ATOM      6  H   UNL     1      13.444   7.341  -5.855  0.00  0.00    +0.000 HD
BRANCH   4   7
ATOM      7  C   UNL     1      12.121   6.938  -4.204  0.00  0.00    +0.000 C 
ATOM      8  H   UNL     1      12.169   6.895  -3.111  0.00  0.00    +0.000 HD
ATOM      9  H   UNL     1      11.527   7.813  -4.484  0.00  0.00    +0.000 HD
ATOM     10  H   UNL     1      11.599   6.044  -4.561  0.00  0.00    +0.000 HD
ENDBRANCH   4   7
ENDBRANCH   1   4
BRANCH   1  11
ATOM     11  O   UNL     1      13.564   4.852  -3.817  0.00  0.00    +0.000 OA
BRANCH  11  13
ATOM     12  O   UNL     1      15.221   3.609  -2.794  0.00  0.00    +0.000 OA
ATOM     13  C   UNL     1      14.210   3.694  -3.477  0.00  0.00    +0.000 C 
BRANCH  13  14
ATOM     14  C   UNL     1      13.493   2.518  -4.068  0.00  0.00    +0.000 C 
ATOM     15  H   UNL     1      13.098   2.781  -5.053  0.00  0.00    +0.000 HD
ATOM     16  H   UNL     1      12.688   2.202  -3.402  0.00  0.00    +0.000 HD
ATOM     17  H   UNL     1      14.195   1.687  -4.185  0.00  0.00    +0.000 HD
ENDBRANCH  13  14
ENDBRANCH  11  13
ENDBRANCH   1  11
TORSDOF 5
ENDMDL
