MODEL 1
REMARK VINA RESULT:    -3.456      0.000      0.000
REMARK INTER + INTRA:          -3.860
REMARK INTER:                  -3.860
REMARK INTRA:                   0.000
REMARK UNBOUND:                 0.000
REMARK  Name = 1032
REMARK  3 active torsions:
REMARK  status: ('A' for Active; 'I' for Inactive)
REMARK    1  A    between atoms: O_1  and  C_5
REMARK    2  A    between atoms: C_3  and  C_4
REMARK    3  A    between atoms: C_3  and  C_5
REMARK                            x       y       z     vdW  Elec       q    Type
REMARK                         _______ _______ _______ _____ _____    ______ ____
ROOT
ATOM      1  C   UNL     1       9.815   7.238  -5.032  0.00  0.00    +0.000 C 
ATOM      2  H   UNL     1       9.598   6.739  -4.082  0.00  0.00    +0.000 HD
ATOM      3  H   UNL     1      10.725   6.809  -5.465  0.00  0.00    +0.000 HD
ENDROOT
BRANCH   1   4
ATOM      4  C   UNL     1       8.655   7.025  -5.989  0.00  0.00    +0.000 C 
ATOM      5  H   UNL     1       9.009   7.033  -7.024  0.00  0.00    +0.000 HD
ATOM      6  H   UNL     1       8.161   6.066  -5.802  0.00  0.00    +0.000 HD
ATOM      7  H   UNL     1       7.904   7.814  -5.878  0.00  0.00    +0.000 HD
ENDBRANCH   1   4
BRANCH   1   9
ATOM      8  O   UNL     1       9.236   9.598  -4.845  0.00  0.00    +0.000 OA
ATOM      9  C   UNL     1      10.060   8.700  -4.758  0.00  0.00    +0.000 C 
BRANCH   9  10
ATOM     10  O   UNL     1      11.352   8.894  -4.390  0.00  0.00    +0.000 OA
ATOM     11  H   UNL     1      11.525   8.572  -3.479  0.00  0.00    +0.000 HD
ENDBRANCH   9  10
ENDBRANCH   1   9
TORSDOF 3
ENDMDL
MODEL 2
REMARK VINA RESULT:    -3.006      8.975      9.135
REMARK INTER + INTRA:          -3.357
REMARK INTER:                  -3.357
REMARK INTRA:                   0.000
REMARK UNBOUND:                 0.000
REMARK  Name = 1032
REMARK  3 active torsions:
REMARK  status: ('A' for Active; 'I' for Inactive)
REMARK    1  A    between atoms: O_1  and  C_5
REMARK    2  A    between atoms: C_3  and  C_4
REMARK    3  A    between atoms: C_3  and  C_5
REMARK                            x       y       z     vdW  Elec       q    Type
REMARK                         _______ _______ _______ _____ _____    ______ ____
ROOT
ATOM      1  C   UNL     1       6.394  -0.349  -4.915  0.00  0.00    +0.000 C 
ATOM      2  H   UNL     1       5.946  -1.348  -4.940  0.00  0.00    +0.000 HD
ATOM      3  H   UNL     1       6.386   0.074  -5.926  0.00  0.00    +0.000 HD
ENDROOT
BRANCH   1   4
ATOM      4  C   UNL     1       5.585   0.543  -3.991  0.00  0.00    +0.000 C 
ATOM      5  H   UNL     1       5.248   1.438  -4.523  0.00  0.00    +0.000 HD
ATOM      6  H   UNL     1       4.702   0.018  -3.610  0.00  0.00    +0.000 HD
ATOM      7  H   UNL     1       6.182   0.861  -3.129  0.00  0.00    +0.000 HD
ENDBRANCH   1   4
BRANCH   1   9
ATOM      8  O   UNL     1       8.208  -0.625  -3.311  0.00  0.00    +0.000 OA
ATOM      9  C   UNL     1       7.826  -0.481  -4.463  0.00  0.00    +0.000 C 
BRANCH   9  10
ATOM     10  O   UNL     1       8.660  -0.417  -5.533  0.00  0.00    +0.000 OA
ATOM     11  H   UNL     1       9.503   0.035  -5.312  0.00  0.00    +0.000 HD
ENDBRANCH   9  10
ENDBRANCH   1   9
TORSDOF 3
ENDMDL
MODEL 3
REMARK VINA RESULT:    -2.976      9.603     10.114
REMARK INTER + INTRA:          -3.324
REMARK INTER:                  -3.324
REMARK INTRA:                   0.000
REMARK UNBOUND:                 0.000
REMARK  Name = 1032
REMARK  3 active torsions:
REMARK  status: ('A' for Active; 'I' for Inactive)
REMARK    1  A    between atoms: O_1  and  C_5
REMARK    2  A    between atoms: C_3  and  C_4
REMARK    3  A    between atoms: C_3  and  C_5
REMARK                            x       y       z     vdW  Elec       q    Type
REMARK                         _______ _______ _______ _____ _____    ______ ____
ROOT
ATOM      1  C   UNL     1       5.567  -0.860  -2.483  0.00  0.00    +0.000 C 
ATOM      2  H   UNL     1       4.532  -0.833  -2.127  0.00  0.00    +0.000 HD
ATOM      3  H   UNL     1       6.205  -0.321  -1.775  0.00  0.00    +0.000 HD
ENDROOT
BRANCH   1   4
ATOM      4  C   UNL     1       6.029  -2.303  -2.579  0.00  0.00    +0.000 C 
ATOM      5  H   UNL     1       5.417  -2.852  -3.302  0.00  0.00    +0.000 HD
ATOM      6  H   UNL     1       7.074  -2.362  -2.901  0.00  0.00    +0.000 HD
ATOM      7  H   UNL     1       5.949  -2.808  -1.610  0.00  0.00    +0.000 HD
ENDBRANCH   1   4
BRANCH   1   9
ATOM      8  O   UNL     1       6.300  -0.498  -4.779  0.00  0.00    +0.000 OA
ATOM      9  C   UNL     1       5.631  -0.156  -3.815  0.00  0.00    +0.000 C 
BRANCH   9  10
ATOM     10  O   UNL     1       4.826   0.937  -3.803  0.00  0.00    +0.000 OA
ATOM     11  H   UNL     1       4.280   0.996  -4.616  0.00  0.00    +0.000 HD
ENDBRANCH   9  10
ENDBRANCH   1   9
TORSDOF 3
ENDMDL
MODEL 4
REMARK VINA RESULT:    -2.935      4.469      4.888
REMARK INTER + INTRA:          -3.278
REMARK INTER:                  -3.278
REMARK INTRA:                   0.000
REMARK UNBOUND:                 0.000
REMARK  Name = 1032
REMARK  3 active torsions:
REMARK  status: ('A' for Active; 'I' for Inactive)
REMARK    1  A    between atoms: O_1  and  C_5
REMARK    2  A    between atoms: C_3  and  C_4
REMARK    3  A    between atoms: C_3  and  C_5
REMARK                            x       y       z     vdW  Elec       q    Type
REMARK                         _______ _______ _______ _____ _____    ______ ____
ROOT
ATOM      1  C   UNL     1      10.826   8.227  -0.827  0.00  0.00    +0.000 C 
ATOM      2  H   UNL     1      11.592   7.949  -0.096  0.00  0.00    +0.000 HD
ATOM      3  H   UNL     1      10.947   9.283  -1.092  0.00  0.00    +0.000 HD
ENDROOT
BRANCH   1   4
ATOM      4  C   UNL     1      10.985   7.375  -2.073  0.00  0.00    +0.000 C 
ATOM      5  H   UNL     1      10.942   6.312  -1.816  0.00  0.00    +0.000 HD
ATOM      6  H   UNL     1      10.191   7.584  -2.798  0.00  0.00    +0.000 HD
ATOM      7  H   UNL     1      11.945   7.570  -2.564  0.00  0.00    +0.000 HD
ENDBRANCH   1   4
BRANCH   1   9
ATOM      8  O   UNL     1       9.074   7.046   0.389  0.00  0.00    +0.000 OA
ATOM      9  C   UNL     1       9.471   8.047  -0.189  0.00  0.00    +0.000 C 
BRANCH   9  10
ATOM     10  O   UNL     1       8.730   9.174  -0.344  0.00  0.00    +0.000 OA
ATOM     11  H   UNL     1       9.110   9.932   0.151  0.00  0.00    +0.000 HD
ENDBRANCH   9  10
ENDBRANCH   1   9
TORSDOF 3
ENDMDL
MODEL 5
REMARK VINA RESULT:    -2.928     22.881     23.540
REMARK INTER + INTRA:          -3.270
REMARK INTER:                  -3.270
REMARK INTRA:                   0.000
REMARK UNBOUND:                 0.000
REMARK  Name = 1032
REMARK  3 active torsions:
REMARK  status: ('A' for Active; 'I' for Inactive)
REMARK    1  A    between atoms: O_1  and  C_5
REMARK    2  A    between atoms: C_3  and  C_4
REMARK    3  A    between atoms: C_3  and  C_5
REMARK                            x       y       z     vdW  Elec       q    Type
REMARK                         _______ _______ _______ _____ _____    ______ ____
ROOT
ATOM      1  C   UNL     1      -0.358 -12.184  -8.743  0.00  0.00    +0.000 C 
ATOM      2  H   UNL     1       0.727 -12.230  -8.884  0.00  0.00    +0.000 HD
ATOM      3  H   UNL     1      -0.712 -11.182  -9.006  0.00  0.00    +0.000 HD
ENDROOT
BRANCH   1   4
ATOM      4  C   UNL     1      -1.027 -13.206  -9.645  0.00  0.00    +0.000 C 
ATOM      5  H   UNL     1      -2.038 -13.425  -9.288  0.00  0.00    +0.000 HD
ATOM      6  H   UNL     1      -1.099 -12.838 -10.673  0.00  0.00    +0.000 HD
ATOM      7  H   UNL     1      -0.461 -14.144  -9.665  0.00  0.00    +0.000 HD
ENDBRANCH   1   4
BRANCH   1   9
ATOM      8  O   UNL     1      -1.478 -13.225  -6.845  0.00  0.00    +0.000 OA
ATOM      9  C   UNL     1      -0.660 -12.432  -7.287  0.00  0.00    +0.000 C 
BRANCH   9  10
ATOM     10  O   UNL     1       0.118 -11.637  -6.509  0.00  0.00    +0.000 OA
ATOM     11  H   UNL     1      -0.319 -10.782  -6.308  0.00  0.00    +0.000 HD
ENDBRANCH   9  10
ENDBRANCH   1   9
TORSDOF 3
ENDMDL
MODEL 6
REMARK VINA RESULT:    -2.901     10.189     10.637
REMARK INTER + INTRA:          -3.240
REMARK INTER:                  -3.240
REMARK INTRA:                   0.000
REMARK UNBOUND:                 0.000
REMARK  Name = 1032
REMARK  3 active torsions:
REMARK  status: ('A' for Active; 'I' for Inactive)
REMARK    1  A    between atoms: O_1  and  C_5
REMARK    2  A    between atoms: C_3  and  C_4
REMARK    3  A    between atoms: C_3  and  C_5
REMARK                            x       y       z     vdW  Elec       q    Type
REMARK                         _______ _______ _______ _____ _____    ______ ____
ROOT
ATOM      1  C   UNL     1       6.457  -1.003  -4.141  0.00  0.00    +0.000 C 
ATOM      2  H   UNL     1       6.471  -1.782  -4.911  0.00  0.00    +0.000 HD
ATOM      3  H   UNL     1       7.478  -0.639  -3.979  0.00  0.00    +0.000 HD
ENDROOT
BRANCH   1   4
ATOM      4  C   UNL     1       5.581   0.147  -4.604  0.00  0.00    +0.000 C 
ATOM      5  H   UNL     1       5.918   0.514  -5.579  0.00  0.00    +0.000 HD
ATOM      6  H   UNL     1       4.536  -0.166  -4.698  0.00  0.00    +0.000 HD
ATOM      7  H   UNL     1       5.617   0.980  -3.894  0.00  0.00    +0.000 HD
ENDBRANCH   1   4
BRANCH   1   9
ATOM      8  O   UNL     1       5.935  -2.803  -2.583  0.00  0.00    +0.000 OA
ATOM      9  C   UNL     1       5.958  -1.612  -2.855  0.00  0.00    +0.000 C 
BRANCH   9  10
ATOM     10  O   UNL     1       5.525  -0.637  -2.016  0.00  0.00    +0.000 OA
ATOM     11  H   UNL     1       6.181   0.087  -1.928  0.00  0.00    +0.000 HD
ENDBRANCH   9  10
ENDBRANCH   1   9
TORSDOF 3
ENDMDL
MODEL 7
REMARK VINA RESULT:    -2.888     10.807     10.943
REMARK INTER + INTRA:          -3.226
REMARK INTER:                  -3.226
REMARK INTRA:                   0.000
REMARK UNBOUND:                 0.000
REMARK  Name = 1032
REMARK  3 active torsions:
REMARK  status: ('A' for Active; 'I' for Inactive)
REMARK    1  A    between atoms: O_1  and  C_5
REMARK    2  A    between atoms: C_3  and  C_4
REMARK    3  A    between atoms: C_3  and  C_5
REMARK                            x       y       z     vdW  Elec       q    Type
REMARK                         _______ _______ _______ _____ _____    ______ ____
ROOT
ATOM      1  C   UNL     1       6.784  -1.985  -2.872  0.00  0.00    +0.000 C 
ATOM      2  H   UNL     1       6.584  -3.039  -3.091  0.00  0.00    +0.000 HD
ATOM      3  H   UNL     1       7.165  -1.496  -3.775  0.00  0.00    +0.000 HD
ENDROOT
BRANCH   1   4
ATOM      4  C   UNL     1       5.498  -1.307  -2.436  0.00  0.00    +0.000 C 
ATOM      5  H   UNL     1       5.464  -0.279  -2.810  0.00  0.00    +0.000 HD
ATOM      6  H   UNL     1       4.622  -1.841  -2.820  0.00  0.00    +0.000 HD
ATOM      7  H   UNL     1       5.419  -1.278  -1.344  0.00  0.00    +0.000 HD
ENDBRANCH   1   4
BRANCH   1   9
ATOM      8  O   UNL     1       7.775  -1.299  -0.753  0.00  0.00    +0.000 OA
ATOM      9  C   UNL     1       7.849  -1.915  -1.806  0.00  0.00    +0.000 C 
BRANCH   9  10
ATOM     10  O   UNL     1       8.930  -2.646  -2.180  0.00  0.00    +0.000 OA
ATOM     11  H   UNL     1       8.678  -3.547  -2.474  0.00  0.00    +0.000 HD
ENDBRANCH   9  10
ENDBRANCH   1   9
TORSDOF 3
ENDMDL
MODEL 8
REMARK VINA RESULT:    -2.877      8.916      9.180
REMARK INTER + INTRA:          -3.214
REMARK INTER:                  -3.214
REMARK INTRA:                   0.000
REMARK UNBOUND:                 0.000
REMARK  Name = 1032
REMARK  3 active torsions:
REMARK  status: ('A' for Active; 'I' for Inactive)
REMARK    1  A    between atoms: O_1  and  C_5
REMARK    2  A    between atoms: C_3  and  C_4
REMARK    3  A    between atoms: C_3  and  C_5
REMARK                            x       y       z     vdW  Elec       q    Type
REMARK                         _______ _______ _______ _____ _____    ______ ____
ROOT
ATOM      1  C   UNL     1       5.283   0.942  -3.645  0.00  0.00    +0.000 C 
ATOM      2  H   UNL     1       4.434   0.422  -3.190  0.00  0.00    +0.000 HD
ATOM      3  H   UNL     1       4.965   1.941  -3.962  0.00  0.00    +0.000 HD
ENDROOT
BRANCH   1   4
ATOM      4  C   UNL     1       6.401   1.070  -2.626  0.00  0.00    +0.000 C 
ATOM      5  H   UNL     1       7.374   0.932  -3.109  0.00  0.00    +0.000 HD
ATOM      6  H   UNL     1       6.391   2.057  -2.151  0.00  0.00    +0.000 HD
ATOM      7  H   UNL     1       6.302   0.318  -1.836  0.00  0.00    +0.000 HD
ENDBRANCH   1   4
BRANCH   1   9
ATOM      8  O   UNL     1       5.114   0.100  -5.926  0.00  0.00    +0.000 OA
ATOM      9  C   UNL     1       5.716   0.169  -4.866  0.00  0.00    +0.000 C 
BRANCH   9  10
ATOM     10  O   UNL     1       6.897  -0.456  -4.625  0.00  0.00    +0.000 OA
ATOM     11  H   UNL     1       7.663   0.092  -4.900  0.00  0.00    +0.000 HD
ENDBRANCH   9  10
ENDBRANCH   1   9
TORSDOF 3
ENDMDL
MODEL 9
REMARK VINA RESULT:    -2.844      1.761      2.203
REMARK INTER + INTRA:          -3.176
REMARK INTER:                  -3.176
REMARK INTRA:                   0.000
REMARK UNBOUND:                 0.000
REMARK  Name = 1032
REMARK  3 active torsions:
REMARK  status: ('A' for Active; 'I' for Inactive)
REMARK    1  A    between atoms: O_1  and  C_5
REMARK    2  A    between atoms: C_3  and  C_4
REMARK    3  A    between atoms: C_3  and  C_5
REMARK                            x       y       z     vdW  Elec       q    Type
REMARK                         _______ _______ _______ _____ _____    ______ ____
ROOT
ATOM      1  C   UNL     1      10.376   7.018  -4.338  0.00  0.00    +0.000 C 
ATOM      2  H   UNL     1      11.445   7.244  -4.401  0.00  0.00    +0.000 HD
ATOM      3  H   UNL     1      10.233   5.934  -4.403  0.00  0.00    +0.000 HD
ENDROOT
BRANCH   1   4
ATOM      4  C   UNL     1       9.832   7.518  -3.012  0.00  0.00    +0.000 C 
ATOM      5  H   UNL     1       9.679   8.601  -3.047  0.00  0.00    +0.000 HD
ATOM      6  H   UNL     1       8.873   7.044  -2.775  0.00  0.00    +0.000 HD
ATOM      7  H   UNL     1      10.525   7.297  -2.193  0.00  0.00    +0.000 HD
ENDBRANCH   1   4
BRANCH   1   9
ATOM      8  O   UNL     1       8.811   7.154  -6.202  0.00  0.00    +0.000 OA
ATOM      9  C   UNL     1       9.682   7.662  -5.512  0.00  0.00    +0.000 C 
BRANCH   9  10
ATOM     10  O   UNL     1      10.166   8.915  -5.709  0.00  0.00    +0.000 OA
ATOM     11  H   UNL     1      10.668   8.985  -6.548  0.00  0.00    +0.000 HD
ENDBRANCH   9  10
ENDBRANCH   1   9
TORSDOF 3
ENDMDL
MODEL 10
REMARK VINA RESULT:    -2.779      6.269      6.905
REMARK INTER + INTRA:          -3.103
REMARK INTER:                  -3.103
REMARK INTRA:                   0.000
REMARK UNBOUND:                 0.000
REMARK  Name = 1032
REMARK  3 active torsions:
REMARK  status: ('A' for Active; 'I' for Inactive)
REMARK    1  A    between atoms: O_1  and  C_5
REMARK    2  A    between atoms: C_3  and  C_4
REMARK    3  A    between atoms: C_3  and  C_5
REMARK                            x       y       z     vdW  Elec       q    Type
REMARK                         _______ _______ _______ _____ _____    ______ ____
ROOT
ATOM      1  C   UNL     1      15.060   4.327  -5.596  0.00  0.00    +0.000 C 
ATOM      2  H   UNL     1      15.463   3.627  -6.336  0.00  0.00    +0.000 HD
ATOM      3  H   UNL     1      14.079   4.679  -5.932  0.00  0.00    +0.000 HD
ENDROOT
BRANCH   1   4
ATOM      4  C   UNL     1      14.910   3.619  -4.261  0.00  0.00    +0.000 C 
ATOM      5  H   UNL     1      13.866   3.640  -3.934  0.00  0.00    +0.000 HD
ATOM      6  H   UNL     1      15.226   2.573  -4.332  0.00  0.00    +0.000 HD
ATOM      7  H   UNL     1      15.521   4.100  -3.490  0.00  0.00    +0.000 HD
ENDBRANCH   1   4
BRANCH   1   9
ATOM      8  O   UNL     1      17.210   5.471  -5.487  0.00  0.00    +0.000 OA
ATOM      9  C   UNL     1      15.989   5.512  -5.506  0.00  0.00    +0.000 C 
BRANCH   9  10
ATOM     10  O   UNL     1      15.270   6.662  -5.449  0.00  0.00    +0.000 OA
ATOM     11  H   UNL     1      15.768   7.382  -5.004  0.00  0.00    +0.000 HD
ENDBRANCH   9  10
ENDBRANCH   1   9
TORSDOF 3
ENDMDL
