MODEL 1
REMARK VINA RESULT:    -3.123      0.000      0.000
REMARK INTER + INTRA:          -3.123
REMARK INTER:                  -3.123
REMARK INTRA:                   0.000
REMARK UNBOUND:                 0.000
REMARK  Name = 9261
REMARK  0 active torsions:
REMARK  status: ('A' for Active; 'I' for Inactive)
REMARK                            x       y       z     vdW  Elec       q    Type
REMARK                         _______ _______ _______ _____ _____    ______ ____
ROOT
ATOM      1  N   UNL     1      16.335   3.881  -3.239  0.00  0.00    +0.000 NA
ATOM      2  N   UNL     1      15.475   4.514  -5.832  0.00  0.00    +0.000 NA
ATOM      3  C   UNL     1      15.107   3.549  -3.684  0.00  0.00    +0.000 A 
ATOM      4  C   UNL     1      14.684   3.860  -4.958  0.00  0.00    +0.000 A 
ATOM      5  C   UNL     1      17.126   4.534  -4.113  0.00  0.00    +0.000 A 
ATOM      6  C   UNL     1      16.703   4.845  -5.387  0.00  0.00    +0.000 A 
ATOM      7  H   UNL     1      14.472   3.024  -2.982  0.00  0.00    +0.000 HD
ATOM      8  H   UNL     1      13.697   3.593  -5.315  0.00  0.00    +0.000 HD
ATOM      9  H   UNL     1      18.113   4.801  -3.756  0.00  0.00    +0.000 HD
ATOM     10  H   UNL     1      17.338   5.370  -6.089  0.00  0.00    +0.000 HD
ENDROOT
TORSDOF 0
ENDMDL
MODEL 2
REMARK VINA RESULT:    -3.020      6.689      7.460
REMARK INTER + INTRA:          -3.020
REMARK INTER:                  -3.020
REMARK INTRA:                   0.000
REMARK UNBOUND:                 0.000
REMARK  Name = 9261
REMARK  0 active torsions:
REMARK  status: ('A' for Active; 'I' for Inactive)
REMARK                            x       y       z     vdW  Elec       q    Type
REMARK                         _______ _______ _______ _____ _____    ______ ____
ROOT
ATOM      1  N   UNL     1       9.701   7.868  -2.872  0.00  0.00    +0.000 NA
ATOM      2  N   UNL     1      11.360   7.470  -0.647  0.00  0.00    +0.000 NA
ATOM      3  C   UNL     1      11.045   7.842  -2.979  0.00  0.00    +0.000 A 
ATOM      4  C   UNL     1      11.860   7.646  -1.886  0.00  0.00    +0.000 A 
ATOM      5  C   UNL     1       9.202   7.692  -1.633  0.00  0.00    +0.000 A 
ATOM      6  C   UNL     1      10.017   7.496  -0.539  0.00  0.00    +0.000 A 
ATOM      7  H   UNL     1      11.446   7.984  -3.974  0.00  0.00    +0.000 HD
ATOM      8  H   UNL     1      12.939   7.625  -1.973  0.00  0.00    +0.000 HD
ATOM      9  H   UNL     1       8.123   7.713  -1.545  0.00  0.00    +0.000 HD
ATOM     10  H   UNL     1       9.616   7.354   0.456  0.00  0.00    +0.000 HD
ENDROOT
TORSDOF 0
ENDMDL
MODEL 3
REMARK VINA RESULT:    -3.019      9.775     10.505
REMARK INTER + INTRA:          -3.019
REMARK INTER:                  -3.019
REMARK INTRA:                   0.000
REMARK UNBOUND:                 0.000
REMARK  Name = 9261
REMARK  0 active torsions:
REMARK  status: ('A' for Active; 'I' for Inactive)
REMARK                            x       y       z     vdW  Elec       q    Type
REMARK                         _______ _______ _______ _____ _____    ______ ____
ROOT
ATOM      1  N   UNL     1       6.604  -0.382  -4.958  0.00  0.00    +0.000 NA
ATOM      2  N   UNL     1       6.349   1.076  -2.577  0.00  0.00    +0.000 NA
ATOM      3  C   UNL     1       7.588  -0.342  -4.038  0.00  0.00    +0.000 A 
ATOM      4  C   UNL     1       7.462   0.375  -2.868  0.00  0.00    +0.000 A 
ATOM      5  C   UNL     1       5.490   0.319  -4.668  0.00  0.00    +0.000 A 
ATOM      6  C   UNL     1       5.365   1.035  -3.497  0.00  0.00    +0.000 A 
ATOM      7  H   UNL     1       8.482  -0.905  -4.272  0.00  0.00    +0.000 HD
ATOM      8  H   UNL     1       8.253   0.407  -2.129  0.00  0.00    +0.000 HD
ATOM      9  H   UNL     1       4.699   0.287  -5.407  0.00  0.00    +0.000 HD
ATOM     10  H   UNL     1       4.470   1.598  -3.263  0.00  0.00    +0.000 HD
ENDROOT
TORSDOF 0
ENDMDL
MODEL 4
REMARK VINA RESULT:    -2.986     26.577     27.180
REMARK INTER + INTRA:          -2.986
REMARK INTER:                  -2.986
REMARK INTRA:                   0.000
REMARK UNBOUND:                 0.000
REMARK  Name = 9261
REMARK  0 active torsions:
REMARK  status: ('A' for Active; 'I' for Inactive)
REMARK                            x       y       z     vdW  Elec       q    Type
REMARK                         _______ _______ _______ _____ _____    ______ ____
ROOT
ATOM      1  N   UNL     1       4.718 -11.586 -24.746  0.00  0.00    +0.000 NA
ATOM      2  N   UNL     1       6.057  -9.136 -25.009  0.00  0.00    +0.000 NA
ATOM      3  C   UNL     1       4.094 -10.407 -24.551  0.00  0.00    +0.000 A 
ATOM      4  C   UNL     1       4.752  -9.204 -24.680  0.00  0.00    +0.000 A 
ATOM      5  C   UNL     1       6.023 -11.518 -25.075  0.00  0.00    +0.000 A 
ATOM      6  C   UNL     1       6.681 -10.315 -25.204  0.00  0.00    +0.000 A 
ATOM      7  H   UNL     1       3.045 -10.462 -24.287  0.00  0.00    +0.000 HD
ATOM      8  H   UNL     1       4.249  -8.257 -24.523  0.00  0.00    +0.000 HD
ATOM      9  H   UNL     1       6.525 -12.465 -25.232  0.00  0.00    +0.000 HD
ATOM     10  H   UNL     1       7.729 -10.260 -25.468  0.00  0.00    +0.000 HD
ENDROOT
TORSDOF 0
ENDMDL
MODEL 5
REMARK VINA RESULT:    -2.926      1.247      2.320
REMARK INTER + INTRA:          -2.926
REMARK INTER:                  -2.926
REMARK INTRA:                   0.000
REMARK UNBOUND:                 0.000
REMARK  Name = 9261
REMARK  0 active torsions:
REMARK  status: ('A' for Active; 'I' for Inactive)
REMARK                            x       y       z     vdW  Elec       q    Type
REMARK                         _______ _______ _______ _____ _____    ______ ____
ROOT
ATOM      1  N   UNL     1      15.139   3.405  -3.042  0.00  0.00    +0.000 NA
ATOM      2  N   UNL     1      14.152   3.959  -5.607  0.00  0.00    +0.000 NA
ATOM      3  C   UNL     1      15.892   4.014  -3.979  0.00  0.00    +0.000 A 
ATOM      4  C   UNL     1      15.407   4.286  -5.240  0.00  0.00    +0.000 A 
ATOM      5  C   UNL     1      13.885   3.078  -3.409  0.00  0.00    +0.000 A 
ATOM      6  C   UNL     1      13.400   3.350  -4.670  0.00  0.00    +0.000 A 
ATOM      7  H   UNL     1      16.900   4.277  -3.684  0.00  0.00    +0.000 HD
ATOM      8  H   UNL     1      16.012   4.776  -5.993  0.00  0.00    +0.000 HD
ATOM      9  H   UNL     1      13.279   2.589  -2.656  0.00  0.00    +0.000 HD
ATOM     10  H   UNL     1      12.392   3.087  -4.965  0.00  0.00    +0.000 HD
ENDROOT
TORSDOF 0
ENDMDL
MODEL 6
REMARK VINA RESULT:    -2.799      2.290      2.877
REMARK INTER + INTRA:          -2.799
REMARK INTER:                  -2.799
REMARK INTRA:                   0.000
REMARK UNBOUND:                 0.000
REMARK  Name = 9261
REMARK  0 active torsions:
REMARK  status: ('A' for Active; 'I' for Inactive)
REMARK                            x       y       z     vdW  Elec       q    Type
REMARK                         _______ _______ _______ _____ _____    ______ ____
ROOT
ATOM      1  N   UNL     1      12.956   4.490  -4.176  0.00  0.00    +0.000 NA
ATOM      2  N   UNL     1      14.822   6.000  -5.626  0.00  0.00    +0.000 NA
ATOM      3  C   UNL     1      13.844   3.915  -5.011  0.00  0.00    +0.000 A 
ATOM      4  C   UNL     1      14.762   4.657  -5.723  0.00  0.00    +0.000 A 
ATOM      5  C   UNL     1      13.016   5.832  -4.079  0.00  0.00    +0.000 A 
ATOM      6  C   UNL     1      13.933   6.574  -4.791  0.00  0.00    +0.000 A 
ATOM      7  H   UNL     1      13.796   2.836  -5.089  0.00  0.00    +0.000 HD
ATOM      8  H   UNL     1      15.475   4.194  -6.393  0.00  0.00    +0.000 HD
ATOM      9  H   UNL     1      12.302   6.295  -3.409  0.00  0.00    +0.000 HD
ATOM     10  H   UNL     1      13.982   7.653  -4.713  0.00  0.00    +0.000 HD
ENDROOT
TORSDOF 0
ENDMDL
MODEL 7
REMARK VINA RESULT:    -2.760      2.683      3.233
REMARK INTER + INTRA:          -2.760
REMARK INTER:                  -2.760
REMARK INTRA:                   0.000
REMARK UNBOUND:                 0.000
REMARK  Name = 9261
REMARK  0 active torsions:
REMARK  status: ('A' for Active; 'I' for Inactive)
REMARK                            x       y       z     vdW  Elec       q    Type
REMARK                         _______ _______ _______ _____ _____    ______ ____
ROOT
ATOM      1  N   UNL     1      14.949   5.512  -5.591  0.00  0.00    +0.000 NA
ATOM      2  N   UNL     1      12.883   6.553  -4.007  0.00  0.00    +0.000 NA
ATOM      3  C   UNL     1      14.251   4.742  -4.733  0.00  0.00    +0.000 A 
ATOM      4  C   UNL     1      13.236   5.253  -3.955  0.00  0.00    +0.000 A 
ATOM      5  C   UNL     1      14.596   6.811  -5.643  0.00  0.00    +0.000 A 
ATOM      6  C   UNL     1      13.581   7.323  -4.865  0.00  0.00    +0.000 A 
ATOM      7  H   UNL     1      14.535   3.698  -4.691  0.00  0.00    +0.000 HD
ATOM      8  H   UNL     1      12.675   4.634  -3.266  0.00  0.00    +0.000 HD
ATOM      9  H   UNL     1      15.157   7.431  -6.332  0.00  0.00    +0.000 HD
ATOM     10  H   UNL     1      13.297   8.367  -4.907  0.00  0.00    +0.000 HD
ENDROOT
TORSDOF 0
ENDMDL
MODEL 8
REMARK VINA RESULT:    -2.759      3.680      4.036
REMARK INTER + INTRA:          -2.759
REMARK INTER:                  -2.759
REMARK INTRA:                   0.000
REMARK UNBOUND:                 0.000
REMARK  Name = 9261
REMARK  0 active torsions:
REMARK  status: ('A' for Active; 'I' for Inactive)
REMARK                            x       y       z     vdW  Elec       q    Type
REMARK                         _______ _______ _______ _____ _____    ______ ____
ROOT
ATOM      1  N   UNL     1      12.379   5.569  -3.524  0.00  0.00    +0.000 NA
ATOM      2  N   UNL     1      13.804   7.695  -4.669  0.00  0.00    +0.000 NA
ATOM      3  C   UNL     1      11.974   6.849  -3.399  0.00  0.00    +0.000 A 
ATOM      4  C   UNL     1      12.675   7.893  -3.962  0.00  0.00    +0.000 A 
ATOM      5  C   UNL     1      13.509   5.371  -4.231  0.00  0.00    +0.000 A 
ATOM      6  C   UNL     1      14.209   6.415  -4.794  0.00  0.00    +0.000 A 
ATOM      7  H   UNL     1      11.067   7.008  -2.831  0.00  0.00    +0.000 HD
ATOM      8  H   UNL     1      12.349   8.921  -3.861  0.00  0.00    +0.000 HD
ATOM      9  H   UNL     1      13.835   4.343  -4.332  0.00  0.00    +0.000 HD
ATOM     10  H   UNL     1      15.116   6.256  -5.363  0.00  0.00    +0.000 HD
ENDROOT
TORSDOF 0
ENDMDL
MODEL 9
REMARK VINA RESULT:    -2.758      9.229     10.258
REMARK INTER + INTRA:          -2.758
REMARK INTER:                  -2.758
REMARK INTRA:                   0.000
REMARK UNBOUND:                 0.000
REMARK  Name = 9261
REMARK  0 active torsions:
REMARK  status: ('A' for Active; 'I' for Inactive)
REMARK                            x       y       z     vdW  Elec       q    Type
REMARK                         _______ _______ _______ _____ _____    ______ ____
ROOT
ATOM      1  N   UNL     1       7.103  -1.088  -4.375  0.00  0.00    +0.000 NA
ATOM      2  N   UNL     1       8.796  -2.091  -2.377  0.00  0.00    +0.000 NA
ATOM      3  C   UNL     1       8.444  -0.974  -4.453  0.00  0.00    +0.000 A 
ATOM      4  C   UNL     1       9.276  -1.467  -3.471  0.00  0.00    +0.000 A 
ATOM      5  C   UNL     1       6.624  -1.712  -3.282  0.00  0.00    +0.000 A 
ATOM      6  C   UNL     1       7.455  -2.205  -2.300  0.00  0.00    +0.000 A 
ATOM      7  H   UNL     1       8.829  -0.472  -5.331  0.00  0.00    +0.000 HD
ATOM      8  H   UNL     1      10.353  -1.374  -3.534  0.00  0.00    +0.000 HD
ATOM      9  H   UNL     1       5.546  -1.805  -3.219  0.00  0.00    +0.000 HD
ATOM     10  H   UNL     1       7.070  -2.707  -1.422  0.00  0.00    +0.000 HD
ENDROOT
TORSDOF 0
ENDMDL
MODEL 10
REMARK VINA RESULT:    -2.717     12.045     13.064
REMARK INTER + INTRA:          -2.717
REMARK INTER:                  -2.717
REMARK INTRA:                   0.000
REMARK UNBOUND:                 0.000
REMARK  Name = 9261
REMARK  0 active torsions:
REMARK  status: ('A' for Active; 'I' for Inactive)
REMARK                            x       y       z     vdW  Elec       q    Type
REMARK                         _______ _______ _______ _____ _____    ______ ____
ROOT
ATOM      1  N   UNL     1      19.136  13.417 -12.268  0.00  0.00    +0.000 NA
ATOM      2  N   UNL     1      18.722  15.855 -10.945  0.00  0.00    +0.000 NA
ATOM      3  C   UNL     1      18.313  13.522 -11.205  0.00  0.00    +0.000 A 
ATOM      4  C   UNL     1      18.110  14.719 -10.555  0.00  0.00    +0.000 A 
ATOM      5  C   UNL     1      19.747  14.553 -12.658  0.00  0.00    +0.000 A 
ATOM      6  C   UNL     1      19.544  15.751 -12.008  0.00  0.00    +0.000 A 
ATOM      7  H   UNL     1      17.822  12.609 -10.892  0.00  0.00    +0.000 HD
ATOM      8  H   UNL     1      17.450  14.802  -9.701  0.00  0.00    +0.000 HD
ATOM      9  H   UNL     1      20.408  14.470 -13.512  0.00  0.00    +0.000 HD
ATOM     10  H   UNL     1      20.036  16.663 -12.321  0.00  0.00    +0.000 HD
ENDROOT
TORSDOF 0
ENDMDL
