MODEL 1
REMARK VINA RESULT:    -5.730      0.000      0.000
REMARK INTER + INTRA:          -6.935
REMARK INTER:                  -6.726
REMARK INTRA:                  -0.209
REMARK UNBOUND:                -0.199
REMARK  Name = 6989
REMARK  5 active torsions:
REMARK  status: ('A' for Active; 'I' for Inactive)
REMARK    1  A    between atoms: O_1  and  C_6
REMARK    2  A    between atoms: C_2  and  C_3
REMARK    3  A    between atoms: C_2  and  C_4
REMARK    4  A    between atoms: C_2  and  C_5
REMARK    5  A    between atoms: C_8  and  C_11
REMARK                            x       y       z     vdW  Elec       q    Type
REMARK                         _______ _______ _______ _____ _____    ______ ____
ROOT
ATOM      1  C   UNL     1      12.822   6.981  -3.966  0.00  0.00    +0.000 A 
ATOM      2  C   UNL     1      13.883   7.457  -4.737  0.00  0.00    +0.000 A 
ATOM      3  C   UNL     1      12.628   5.606  -3.822  0.00  0.00    +0.000 A 
ATOM      4  C   UNL     1      14.554   5.186  -5.218  0.00  0.00    +0.000 A 
ATOM      5  C   UNL     1      14.749   6.560  -5.363  0.00  0.00    +0.000 A 
ATOM      6  C   UNL     1      13.493   4.710  -4.448  0.00  0.00    +0.000 A 
ATOM      7  H   UNL     1      11.810   5.211  -3.226  0.00  0.00    +0.000 HD
ATOM      8  H   UNL     1      15.574   6.938  -5.961  0.00  0.00    +0.000 HD
ATOM      9  H   UNL     1      13.333   3.642  -4.326  0.00  0.00    +0.000 HD
ENDROOT
BRANCH   4  10
ATOM     10  C   UNL     1      15.479   4.227  -5.888  0.00  0.00    +0.000 C 
ATOM     11  H   UNL     1      16.077   4.728  -6.657  0.00  0.00    +0.000 HD
ATOM     12  H   UNL     1      16.154   3.781  -5.151  0.00  0.00    +0.000 HD
ATOM     13  H   UNL     1      14.925   3.425  -6.386  0.00  0.00    +0.000 HD
ENDBRANCH   4  10
BRANCH   2  14
ATOM     14  O   UNL     1      14.087   8.796  -4.889  0.00  0.00    +0.000 OA
ATOM     15  H   UNL     1      13.668   9.263  -4.146  0.00  0.00    +0.000 HD
ENDBRANCH   2  14
BRANCH   1  16
ATOM     16  C   UNL     1      11.886   7.925  -3.289  0.00  0.00    +0.000 C 
ATOM     17  H   UNL     1      12.266   8.951  -3.320  0.00  0.00    +0.000 HD
BRANCH  16  18
ATOM     18  C   UNL     1      11.722   7.616  -1.790  0.00  0.00    +0.000 C 
ATOM     19  H   UNL     1      11.084   6.743  -1.617  0.00  0.00    +0.000 HD
ATOM     20  H   UNL     1      11.268   8.467  -1.269  0.00  0.00    +0.000 HD
ATOM     21  H   UNL     1      12.695   7.418  -1.325  0.00  0.00    +0.000 HD
ENDBRANCH  16  18
BRANCH  16  22
ATOM     22  C   UNL     1      10.505   7.971  -3.967  0.00  0.00    +0.000 C 
ATOM     23  H   UNL     1      10.026   8.944  -3.808  0.00  0.00    +0.000 HD
ATOM     24  H   UNL     1       9.846   7.200  -3.552  0.00  0.00    +0.000 HD
ATOM     25  H   UNL     1      10.571   7.802  -5.047  0.00  0.00    +0.000 HD
ENDBRANCH  16  22
ENDBRANCH   1  16
TORSDOF 5
ENDMDL
MODEL 2
REMARK VINA RESULT:    -4.964      1.866      2.647
REMARK INTER + INTRA:          -6.034
REMARK INTER:                  -5.825
REMARK INTRA:                  -0.209
REMARK UNBOUND:                -0.199
REMARK  Name = 6989
REMARK  5 active torsions:
REMARK  status: ('A' for Active; 'I' for Inactive)
REMARK    1  A    between atoms: O_1  and  C_6
REMARK    2  A    between atoms: C_2  and  C_3
REMARK    3  A    between atoms: C_2  and  C_4
REMARK    4  A    between atoms: C_2  and  C_5
REMARK    5  A    between atoms: C_8  and  C_11
REMARK                            x       y       z     vdW  Elec       q    Type
REMARK                         _______ _______ _______ _____ _____    ______ ____
ROOT
ATOM      1  C   UNL     1      12.055   6.578  -3.286  0.00  0.00    +0.000 A 
ATOM      2  C   UNL     1      12.561   5.289  -3.446  0.00  0.00    +0.000 A 
ATOM      3  C   UNL     1      12.684   7.657  -3.911  0.00  0.00    +0.000 A 
ATOM      4  C   UNL     1      14.323   6.154  -4.856  0.00  0.00    +0.000 A 
ATOM      5  C   UNL     1      13.695   5.076  -4.231  0.00  0.00    +0.000 A 
ATOM      6  C   UNL     1      13.817   7.444  -4.695  0.00  0.00    +0.000 A 
ATOM      7  H   UNL     1      12.308   8.670  -3.802  0.00  0.00    +0.000 HD
ATOM      8  H   UNL     1      14.083   4.068  -4.354  0.00  0.00    +0.000 HD
ATOM      9  H   UNL     1      14.296   8.291  -5.179  0.00  0.00    +0.000 HD
ENDROOT
BRANCH   4  10
ATOM     10  C   UNL     1      15.534   5.927  -5.695  0.00  0.00    +0.000 C 
ATOM     11  H   UNL     1      16.201   6.795  -5.668  0.00  0.00    +0.000 HD
ATOM     12  H   UNL     1      16.081   5.050  -5.334  0.00  0.00    +0.000 HD
ATOM     13  H   UNL     1      15.264   5.764  -6.744  0.00  0.00    +0.000 HD
ENDBRANCH   4  10
BRANCH   2  14
ATOM     14  O   UNL     1      11.960   4.225  -2.843  0.00  0.00    +0.000 OA
ATOM     15  H   UNL     1      12.611   3.778  -2.276  0.00  0.00    +0.000 HD
ENDBRANCH   2  14
BRANCH   1  16
ATOM     16  C   UNL     1      10.844   6.824  -2.450  0.00  0.00    +0.000 C 
ATOM     17  H   UNL     1      10.326   5.889  -2.216  0.00  0.00    +0.000 HD
BRANCH  16  18
ATOM     18  C   UNL     1       9.791   7.680  -3.178  0.00  0.00    +0.000 C 
ATOM     19  H   UNL     1      10.228   8.262  -3.996  0.00  0.00    +0.000 HD
ATOM     20  H   UNL     1       9.321   8.386  -2.484  0.00  0.00    +0.000 HD
ATOM     21  H   UNL     1       9.002   7.048  -3.601  0.00  0.00    +0.000 HD
ENDBRANCH  16  18
BRANCH  16  22
ATOM     22  C   UNL     1      11.187   7.463  -1.091  0.00  0.00    +0.000 C 
ATOM     23  H   UNL     1      12.240   7.766  -1.059  0.00  0.00    +0.000 HD
ATOM     24  H   UNL     1      11.019   6.749  -0.277  0.00  0.00    +0.000 HD
ATOM     25  H   UNL     1      10.577   8.348  -0.887  0.00  0.00    +0.000 HD
ENDBRANCH  16  22
ENDBRANCH   1  16
TORSDOF 5
ENDMDL
MODEL 3
REMARK VINA RESULT:    -4.677      2.423      3.762
REMARK INTER + INTRA:          -5.697
REMARK INTER:                  -6.075
REMARK INTRA:                   0.378
REMARK UNBOUND:                -0.199
REMARK  Name = 6989
REMARK  5 active torsions:
REMARK  status: ('A' for Active; 'I' for Inactive)
REMARK    1  A    between atoms: O_1  and  C_6
REMARK    2  A    between atoms: C_2  and  C_3
REMARK    3  A    between atoms: C_2  and  C_4
REMARK    4  A    between atoms: C_2  and  C_5
REMARK    5  A    between atoms: C_8  and  C_11
REMARK                            x       y       z     vdW  Elec       q    Type
REMARK                         _______ _______ _______ _____ _____    ______ ____
ROOT
ATOM      1  C   UNL     1      10.235   7.453  -2.143  0.00  0.00    +0.000 A 
ATOM      2  C   UNL     1      11.580   7.385  -1.780  0.00  0.00    +0.000 A 
ATOM      3  C   UNL     1       9.878   7.489  -3.492  0.00  0.00    +0.000 A 
ATOM      4  C   UNL     1      12.210   7.389  -4.113  0.00  0.00    +0.000 A 
ATOM      5  C   UNL     1      12.568   7.353  -2.764  0.00  0.00    +0.000 A 
ATOM      6  C   UNL     1      10.865   7.457  -4.476  0.00  0.00    +0.000 A 
ATOM      7  H   UNL     1       8.837   7.541  -3.800  0.00  0.00    +0.000 HD
ATOM      8  H   UNL     1      13.614   7.298  -2.475  0.00  0.00    +0.000 HD
ATOM      9  H   UNL     1      10.575   7.483  -5.523  0.00  0.00    +0.000 HD
ENDROOT
BRANCH   4  10
ATOM     10  C   UNL     1      13.267   7.355  -5.165  0.00  0.00    +0.000 C 
ATOM     11  H   UNL     1      14.151   6.810  -4.818  0.00  0.00    +0.000 HD
ATOM     12  H   UNL     1      12.883   6.866  -6.066  0.00  0.00    +0.000 HD
ATOM     13  H   UNL     1      13.596   8.365  -5.428  0.00  0.00    +0.000 HD
ENDBRANCH   4  10
BRANCH   2  14
ATOM     14  O   UNL     1      11.946   7.349  -0.468  0.00  0.00    +0.000 OA
ATOM     15  H   UNL     1      12.284   6.462  -0.262  0.00  0.00    +0.000 HD
ENDBRANCH   2  14
BRANCH   1  16
ATOM     16  C   UNL     1       9.165   7.488  -1.104  0.00  0.00    +0.000 C 
ATOM     17  H   UNL     1       8.178   7.634  -1.554  0.00  0.00    +0.000 HD
BRANCH  16  18
ATOM     18  C   UNL     1       9.328   8.672  -0.132  0.00  0.00    +0.000 C 
ATOM     19  H   UNL     1      10.286   9.184  -0.264  0.00  0.00    +0.000 HD
ATOM     20  H   UNL     1       9.277   8.327   0.907  0.00  0.00    +0.000 HD
ATOM     21  H   UNL     1       8.531   9.409  -0.281  0.00  0.00    +0.000 HD
ENDBRANCH  16  18
BRANCH  16  22
ATOM     22  C   UNL     1       9.071   6.171  -0.312  0.00  0.00    +0.000 C 
ATOM     23  H   UNL     1       8.434   5.448  -0.834  0.00  0.00    +0.000 HD
ATOM     24  H   UNL     1       8.637   6.348   0.679  0.00  0.00    +0.000 HD
ATOM     25  H   UNL     1      10.053   5.709  -0.164  0.00  0.00    +0.000 HD
ENDBRANCH  16  22
ENDBRANCH   1  16
TORSDOF 5
ENDMDL
MODEL 4
REMARK VINA RESULT:    -4.311     12.229     13.276
REMARK INTER + INTRA:          -5.267
REMARK INTER:                  -5.065
REMARK INTRA:                  -0.202
REMARK UNBOUND:                -0.199
REMARK  Name = 6989
REMARK  5 active torsions:
REMARK  status: ('A' for Active; 'I' for Inactive)
REMARK    1  A    between atoms: O_1  and  C_6
REMARK    2  A    between atoms: C_2  and  C_3
REMARK    3  A    between atoms: C_2  and  C_4
REMARK    4  A    between atoms: C_2  and  C_5
REMARK    5  A    between atoms: C_8  and  C_11
REMARK                            x       y       z     vdW  Elec       q    Type
REMARK                         _______ _______ _______ _____ _____    ______ ____
ROOT
ATOM      1  C   UNL     1       4.146  14.274 -10.008  0.00  0.00    +0.000 A 
ATOM      2  C   UNL     1       4.906  14.637 -11.120  0.00  0.00    +0.000 A 
ATOM      3  C   UNL     1       3.371  13.113 -10.042  0.00  0.00    +0.000 A 
ATOM      4  C   UNL     1       4.116  12.682 -12.299  0.00  0.00    +0.000 A 
ATOM      5  C   UNL     1       4.891  13.842 -12.266  0.00  0.00    +0.000 A 
ATOM      6  C   UNL     1       3.357  12.318 -11.188  0.00  0.00    +0.000 A 
ATOM      7  H   UNL     1       2.772  12.809  -9.189  0.00  0.00    +0.000 HD
ATOM      8  H   UNL     1       5.487  14.130 -13.128  0.00  0.00    +0.000 HD
ATOM      9  H   UNL     1       2.751  11.416 -11.202  0.00  0.00    +0.000 HD
ENDROOT
BRANCH   4  10
ATOM     10  C   UNL     1       4.101  11.831 -13.524  0.00  0.00    +0.000 C 
ATOM     11  H   UNL     1       5.017  11.236 -13.602  0.00  0.00    +0.000 HD
ATOM     12  H   UNL     1       3.241  11.154 -13.500  0.00  0.00    +0.000 HD
ATOM     13  H   UNL     1       4.039  12.443 -14.430  0.00  0.00    +0.000 HD
ENDBRANCH   4  10
BRANCH   2  14
ATOM     14  O   UNL     1       5.668  15.767 -11.103  0.00  0.00    +0.000 OA
ATOM     15  H   UNL     1       6.207  15.769 -10.295  0.00  0.00    +0.000 HD
ENDBRANCH   2  14
BRANCH   1  16
ATOM     16  C   UNL     1       4.150  15.113  -8.774  0.00  0.00    +0.000 C 
ATOM     17  H   UNL     1       4.390  16.155  -9.003  0.00  0.00    +0.000 HD
BRANCH  16  18
ATOM     18  C   UNL     1       5.232  14.676  -7.770  0.00  0.00    +0.000 C 
ATOM     19  H   UNL     1       5.285  13.587  -7.669  0.00  0.00    +0.000 HD
ATOM     20  H   UNL     1       5.026  15.091  -6.777  0.00  0.00    +0.000 HD
ATOM     21  H   UNL     1       6.220  15.032  -8.084  0.00  0.00    +0.000 HD
ENDBRANCH  16  18
BRANCH  16  22
ATOM     22  C   UNL     1       2.775  15.143  -8.080  0.00  0.00    +0.000 C 
ATOM     23  H   UNL     1       2.738  14.418  -7.259  0.00  0.00    +0.000 HD
ATOM     24  H   UNL     1       1.980  14.888  -8.790  0.00  0.00    +0.000 HD
ATOM     25  H   UNL     1       2.545  16.131  -7.667  0.00  0.00    +0.000 HD
ENDBRANCH  16  22
ENDBRANCH   1  16
TORSDOF 5
ENDMDL
MODEL 5
REMARK VINA RESULT:    -4.296     21.125     22.984
REMARK INTER + INTRA:          -5.249
REMARK INTER:                  -5.064
REMARK INTRA:                  -0.185
REMARK UNBOUND:                -0.199
REMARK  Name = 6989
REMARK  5 active torsions:
REMARK  status: ('A' for Active; 'I' for Inactive)
REMARK    1  A    between atoms: O_1  and  C_6
REMARK    2  A    between atoms: C_2  and  C_3
REMARK    3  A    between atoms: C_2  and  C_4
REMARK    4  A    between atoms: C_2  and  C_5
REMARK    5  A    between atoms: C_8  and  C_11
REMARK                            x       y       z     vdW  Elec       q    Type
REMARK                         _______ _______ _______ _____ _____    ______ ____
ROOT
ATOM      1  C   UNL     1       5.131  -4.164  13.086  0.00  0.00    +0.000 A 
ATOM      2  C   UNL     1       4.527  -5.297  13.632  0.00  0.00    +0.000 A 
ATOM      3  C   UNL     1       4.931  -2.915  13.675  0.00  0.00    +0.000 A 
ATOM      4  C   UNL     1       3.524  -3.932  15.355  0.00  0.00    +0.000 A 
ATOM      5  C   UNL     1       3.723  -5.181  14.766  0.00  0.00    +0.000 A 
ATOM      6  C   UNL     1       4.128  -2.800  14.809  0.00  0.00    +0.000 A 
ATOM      7  H   UNL     1       5.392  -2.019  13.269  0.00  0.00    +0.000 HD
ATOM      8  H   UNL     1       3.257  -6.068  15.188  0.00  0.00    +0.000 HD
ATOM      9  H   UNL     1       3.982  -1.821  15.260  0.00  0.00    +0.000 HD
ENDROOT
BRANCH   4  10
ATOM     10  C   UNL     1       2.665  -3.808  16.568  0.00  0.00    +0.000 C 
ATOM     11  H   UNL     1       3.000  -2.982  17.205  0.00  0.00    +0.000 HD
ATOM     12  H   UNL     1       1.626  -3.628  16.275  0.00  0.00    +0.000 HD
ATOM     13  H   UNL     1       2.705  -4.718  17.176  0.00  0.00    +0.000 HD
ENDBRANCH   4  10
BRANCH   2  14
ATOM     14  O   UNL     1       4.711  -6.524  13.069  0.00  0.00    +0.000 OA
ATOM     15  H   UNL     1       3.959  -6.717  12.485  0.00  0.00    +0.000 HD
ENDBRANCH   2  14
BRANCH   1  16
ATOM     16  C   UNL     1       5.994  -4.270  11.873  0.00  0.00    +0.000 C 
ATOM     17  H   UNL     1       6.518  -5.229  11.841  0.00  0.00    +0.000 HD
BRANCH  16  18
ATOM     18  C   UNL     1       7.114  -3.214  11.856  0.00  0.00    +0.000 C 
ATOM     19  H   UNL     1       8.096  -3.651  12.064  0.00  0.00    +0.000 HD
ATOM     20  H   UNL     1       6.928  -2.442  12.611  0.00  0.00    +0.000 HD
ATOM     21  H   UNL     1       7.168  -2.720  10.878  0.00  0.00    +0.000 HD
ENDBRANCH  16  18
BRANCH  16  22
ATOM     22  C   UNL     1       5.183  -4.193  10.567  0.00  0.00    +0.000 C 
ATOM     23  H   UNL     1       5.236  -5.141  10.020  0.00  0.00    +0.000 HD
ATOM     24  H   UNL     1       5.579  -3.406   9.914  0.00  0.00    +0.000 HD
ATOM     25  H   UNL     1       4.127  -3.969  10.750  0.00  0.00    +0.000 HD
ENDBRANCH  16  22
ENDBRANCH   1  16
TORSDOF 5
ENDMDL
MODEL 6
REMARK VINA RESULT:    -4.258     24.745     26.512
REMARK INTER + INTRA:          -5.204
REMARK INTER:                  -4.996
REMARK INTRA:                  -0.207
REMARK UNBOUND:                -0.199
REMARK  Name = 6989
REMARK  5 active torsions:
REMARK  status: ('A' for Active; 'I' for Inactive)
REMARK    1  A    between atoms: O_1  and  C_6
REMARK    2  A    between atoms: C_2  and  C_3
REMARK    3  A    between atoms: C_2  and  C_4
REMARK    4  A    between atoms: C_2  and  C_5
REMARK    5  A    between atoms: C_8  and  C_11
REMARK                            x       y       z     vdW  Elec       q    Type
REMARK                         _______ _______ _______ _____ _____    ______ ____
ROOT
ATOM      1  C   UNL     1       3.307  -5.280  17.777  0.00  0.00    +0.000 A 
ATOM      2  C   UNL     1       4.372  -5.759  17.015  0.00  0.00    +0.000 A 
ATOM      3  C   UNL     1       2.565  -4.186  17.327  0.00  0.00    +0.000 A 
ATOM      4  C   UNL     1       3.955  -4.053  15.356  0.00  0.00    +0.000 A 
ATOM      5  C   UNL     1       4.697  -5.146  15.805  0.00  0.00    +0.000 A 
ATOM      6  C   UNL     1       2.890  -3.573  16.118  0.00  0.00    +0.000 A 
ATOM      7  H   UNL     1       1.730  -3.795  17.902  0.00  0.00    +0.000 HD
ATOM      8  H   UNL     1       5.527  -5.526  15.215  0.00  0.00    +0.000 HD
ATOM      9  H   UNL     1       2.304  -2.724  15.777  0.00  0.00    +0.000 HD
ENDROOT
BRANCH   4  10
ATOM     10  C   UNL     1       4.302  -3.397  14.062  0.00  0.00    +0.000 C 
ATOM     11  H   UNL     1       3.717  -3.818  13.238  0.00  0.00    +0.000 HD
ATOM     12  H   UNL     1       4.106  -2.323  14.122  0.00  0.00    +0.000 HD
ATOM     13  H   UNL     1       5.358  -3.548  13.813  0.00  0.00    +0.000 HD
ENDBRANCH   4  10
BRANCH   2  14
ATOM     14  O   UNL     1       5.107  -6.826  17.439  0.00  0.00    +0.000 OA
ATOM     15  H   UNL     1       5.339  -6.694  18.374  0.00  0.00    +0.000 HD
ENDBRANCH   2  14
BRANCH   1  16
ATOM     16  C   UNL     1       2.945  -5.923  19.074  0.00  0.00    +0.000 C 
ATOM     17  H   UNL     1       3.620  -6.752  19.308  0.00  0.00    +0.000 HD
BRANCH  16  18
ATOM     18  C   UNL     1       1.543  -6.559  19.044  0.00  0.00    +0.000 C 
ATOM     19  H   UNL     1       1.154  -6.744  20.050  0.00  0.00    +0.000 HD
ATOM     20  H   UNL     1       1.567  -7.518  18.515  0.00  0.00    +0.000 HD
ATOM     21  H   UNL     1       0.832  -5.907  18.524  0.00  0.00    +0.000 HD
ENDBRANCH  16  18
BRANCH  16  22
ATOM     22  C   UNL     1       3.052  -4.950  20.262  0.00  0.00    +0.000 C 
ATOM     23  H   UNL     1       2.060  -4.718  20.665  0.00  0.00    +0.000 HD
ATOM     24  H   UNL     1       3.516  -4.007  19.948  0.00  0.00    +0.000 HD
ATOM     25  H   UNL     1       3.658  -5.360  21.077  0.00  0.00    +0.000 HD
ENDBRANCH  16  22
ENDBRANCH   1  16
TORSDOF 5
ENDMDL
MODEL 7
REMARK VINA RESULT:    -4.255     31.902     33.559
REMARK INTER + INTRA:          -5.201
REMARK INTER:                  -5.000
REMARK INTRA:                  -0.201
REMARK UNBOUND:                -0.199
REMARK  Name = 6989
REMARK  5 active torsions:
REMARK  status: ('A' for Active; 'I' for Inactive)
REMARK    1  A    between atoms: O_1  and  C_6
REMARK    2  A    between atoms: C_2  and  C_3
REMARK    3  A    between atoms: C_2  and  C_4
REMARK    4  A    between atoms: C_2  and  C_5
REMARK    5  A    between atoms: C_8  and  C_11
REMARK                            x       y       z     vdW  Elec       q    Type
REMARK                         _______ _______ _______ _____ _____    ______ ____
ROOT
ATOM      1  C   UNL     1      -1.852  -9.088  20.511  0.00  0.00    +0.000 A 
ATOM      2  C   UNL     1      -2.742  -9.931  19.848  0.00  0.00    +0.000 A 
ATOM      3  C   UNL     1      -0.940  -9.617  21.426  0.00  0.00    +0.000 A 
ATOM      4  C   UNL     1      -1.811 -11.832  21.013  0.00  0.00    +0.000 A 
ATOM      5  C   UNL     1      -2.723 -11.304  20.098  0.00  0.00    +0.000 A 
ATOM      6  C   UNL     1      -0.920 -10.989  21.676  0.00  0.00    +0.000 A 
ATOM      7  H   UNL     1      -0.236  -8.981  21.954  0.00  0.00    +0.000 HD
ATOM      8  H   UNL     1      -3.418 -11.956  19.576  0.00  0.00    +0.000 HD
ATOM      9  H   UNL     1      -0.204 -11.390  22.389  0.00  0.00    +0.000 HD
ENDROOT
BRANCH   4  10
ATOM     10  C   UNL     1      -1.789 -13.299  21.280  0.00  0.00    +0.000 C 
ATOM     11  H   UNL     1      -0.779 -13.706  21.164  0.00  0.00    +0.000 HD
ATOM     12  H   UNL     1      -2.136 -13.500  22.299  0.00  0.00    +0.000 HD
ATOM     13  H   UNL     1      -2.434 -13.839  20.578  0.00  0.00    +0.000 HD
ENDBRANCH   4  10
BRANCH   2  14
ATOM     14  O   UNL     1      -3.639  -9.431  18.952  0.00  0.00    +0.000 OA
ATOM     15  H   UNL     1      -4.365  -9.007  19.439  0.00  0.00    +0.000 HD
ENDBRANCH   2  14
BRANCH   1  16
ATOM     16  C   UNL     1      -1.859  -7.618  20.256  0.00  0.00    +0.000 C 
ATOM     17  H   UNL     1      -2.216  -7.391  19.247  0.00  0.00    +0.000 HD
BRANCH  16  18
ATOM     18  C   UNL     1      -0.448  -7.004  20.315  0.00  0.00    +0.000 C 
ATOM     19  H   UNL     1      -0.456  -5.992  20.733  0.00  0.00    +0.000 HD
ATOM     20  H   UNL     1      -0.011  -6.945  19.312  0.00  0.00    +0.000 HD
ATOM     21  H   UNL     1       0.217  -7.617  20.935  0.00  0.00    +0.000 HD
ENDBRANCH  16  18
BRANCH  16  22
ATOM     22  C   UNL     1      -2.799  -6.860  21.212  0.00  0.00    +0.000 C 
ATOM     23  H   UNL     1      -3.749  -6.627  20.718  0.00  0.00    +0.000 HD
ATOM     24  H   UNL     1      -2.344  -5.914  21.529  0.00  0.00    +0.000 HD
ATOM     25  H   UNL     1      -3.022  -7.438  22.115  0.00  0.00    +0.000 HD
ENDBRANCH  16  22
ENDBRANCH   1  16
TORSDOF 5
ENDMDL
MODEL 8
REMARK VINA RESULT:    -4.237     15.595     16.832
REMARK INTER + INTRA:          -5.180
REMARK INTER:                  -4.971
REMARK INTRA:                  -0.209
REMARK UNBOUND:                -0.199
REMARK  Name = 6989
REMARK  5 active torsions:
REMARK  status: ('A' for Active; 'I' for Inactive)
REMARK    1  A    between atoms: O_1  and  C_6
REMARK    2  A    between atoms: C_2  and  C_3
REMARK    3  A    between atoms: C_2  and  C_4
REMARK    4  A    between atoms: C_2  and  C_5
REMARK    5  A    between atoms: C_8  and  C_11
REMARK                            x       y       z     vdW  Elec       q    Type
REMARK                         _______ _______ _______ _____ _____    ______ ____
ROOT
ATOM      1  C   UNL     1      13.838  12.519 -19.627  0.00  0.00    +0.000 A 
ATOM      2  C   UNL     1      13.207  12.969 -18.468  0.00  0.00    +0.000 A 
ATOM      3  C   UNL     1      13.076  12.124 -20.727  0.00  0.00    +0.000 A 
ATOM      4  C   UNL     1      11.052  12.630 -19.509  0.00  0.00    +0.000 A 
ATOM      5  C   UNL     1      11.814  13.025 -18.408  0.00  0.00    +0.000 A 
ATOM      6  C   UNL     1      11.684  12.179 -20.667  0.00  0.00    +0.000 A 
ATOM      7  H   UNL     1      13.545  11.770 -21.641  0.00  0.00    +0.000 HD
ATOM      8  H   UNL     1      11.328  13.379 -17.503  0.00  0.00    +0.000 HD
ATOM      9  H   UNL     1      11.101  11.871 -21.532  0.00  0.00    +0.000 HD
ENDROOT
BRANCH   4  10
ATOM     10  C   UNL     1       9.564  12.690 -19.445  0.00  0.00    +0.000 C 
ATOM     11  H   UNL     1       9.217  12.773 -18.409  0.00  0.00    +0.000 HD
ATOM     12  H   UNL     1       9.199  13.553 -20.009  0.00  0.00    +0.000 HD
ATOM     13  H   UNL     1       9.113  11.782 -19.861  0.00  0.00    +0.000 HD
ENDBRANCH   4  10
BRANCH   2  14
ATOM     14  O   UNL     1      13.935  13.359 -17.384  0.00  0.00    +0.000 OA
ATOM     15  H   UNL     1      14.844  13.029 -17.483  0.00  0.00    +0.000 HD
ENDBRANCH   2  14
BRANCH   1  16
ATOM     16  C   UNL     1      15.327  12.452 -19.708  0.00  0.00    +0.000 C 
ATOM     17  H   UNL     1      15.786  12.605 -18.727  0.00  0.00    +0.000 HD
BRANCH  16  18
ATOM     18  C   UNL     1      15.917  13.567 -20.591  0.00  0.00    +0.000 C 
ATOM     19  H   UNL     1      16.786  14.044 -20.126  0.00  0.00    +0.000 HD
ATOM     20  H   UNL     1      15.170  14.348 -20.777  0.00  0.00    +0.000 HD
ATOM     21  H   UNL     1      16.233  13.168 -21.562  0.00  0.00    +0.000 HD
ENDBRANCH  16  18
BRANCH  16  22
ATOM     22  C   UNL     1      15.828  11.080 -20.194  0.00  0.00    +0.000 C 
ATOM     23  H   UNL     1      15.147  10.660 -20.944  0.00  0.00    +0.000 HD
ATOM     24  H   UNL     1      15.885  10.373 -19.359  0.00  0.00    +0.000 HD
ATOM     25  H   UNL     1      16.825  11.142 -20.644  0.00  0.00    +0.000 HD
ENDBRANCH  16  22
ENDBRANCH   1  16
TORSDOF 5
ENDMDL
MODEL 9
REMARK VINA RESULT:    -4.211     13.018     13.672
REMARK INTER + INTRA:          -5.149
REMARK INTER:                  -4.970
REMARK INTRA:                  -0.179
REMARK UNBOUND:                -0.199
REMARK  Name = 6989
REMARK  5 active torsions:
REMARK  status: ('A' for Active; 'I' for Inactive)
REMARK    1  A    between atoms: O_1  and  C_6
REMARK    2  A    between atoms: C_2  and  C_3
REMARK    3  A    between atoms: C_2  and  C_4
REMARK    4  A    between atoms: C_2  and  C_5
REMARK    5  A    between atoms: C_8  and  C_11
REMARK                            x       y       z     vdW  Elec       q    Type
REMARK                         _______ _______ _______ _____ _____    ______ ____
ROOT
ATOM      1  C   UNL     1       4.018  13.471 -11.017  0.00  0.00    +0.000 A 
ATOM      2  C   UNL     1       3.719  12.358 -11.803  0.00  0.00    +0.000 A 
ATOM      3  C   UNL     1       4.951  14.409 -11.464  0.00  0.00    +0.000 A 
ATOM      4  C   UNL     1       5.282  13.121 -13.480  0.00  0.00    +0.000 A 
ATOM      5  C   UNL     1       4.350  12.182 -13.035  0.00  0.00    +0.000 A 
ATOM      6  C   UNL     1       5.582  14.233 -12.694  0.00  0.00    +0.000 A 
ATOM      7  H   UNL     1       5.200  15.283 -10.870  0.00  0.00    +0.000 HD
ATOM      8  H   UNL     1       4.110  11.315 -13.643  0.00  0.00    +0.000 HD
ATOM      9  H   UNL     1       6.305  14.971 -13.032  0.00  0.00    +0.000 HD
ENDROOT
BRANCH   4  10
ATOM     10  C   UNL     1       5.958  12.933 -14.797  0.00  0.00    +0.000 C 
ATOM     11  H   UNL     1       7.047  12.918 -14.682  0.00  0.00    +0.000 HD
ATOM     12  H   UNL     1       5.638  11.990 -15.251  0.00  0.00    +0.000 HD
ATOM     13  H   UNL     1       5.720  13.752 -15.484  0.00  0.00    +0.000 HD
ENDBRANCH   4  10
BRANCH   2  14
ATOM     14  O   UNL     1       2.811  11.433 -11.383  0.00  0.00    +0.000 OA
ATOM     15  H   UNL     1       3.182  10.545 -11.521  0.00  0.00    +0.000 HD
ENDBRANCH   2  14
BRANCH   1  16
ATOM     16  C   UNL     1       3.352  13.675  -9.698  0.00  0.00    +0.000 C 
ATOM     17  H   UNL     1       3.118  12.719  -9.219  0.00  0.00    +0.000 HD
BRANCH  16  18
ATOM     18  C   UNL     1       1.994  14.387  -9.829  0.00  0.00    +0.000 C 
ATOM     19  H   UNL     1       2.104  15.428 -10.150  0.00  0.00    +0.000 HD
ATOM     20  H   UNL     1       1.467  14.391  -8.868  0.00  0.00    +0.000 HD
ATOM     21  H   UNL     1       1.356  13.877 -10.560  0.00  0.00    +0.000 HD
ENDBRANCH  16  18
BRANCH  16  22
ATOM     22  C   UNL     1       4.246  14.433  -8.700  0.00  0.00    +0.000 C 
ATOM     23  H   UNL     1       5.056  14.955  -9.222  0.00  0.00    +0.000 HD
ATOM     24  H   UNL     1       4.701  13.738  -7.984  0.00  0.00    +0.000 HD
ATOM     25  H   UNL     1       3.683  15.176  -8.125  0.00  0.00    +0.000 HD
ENDBRANCH  16  22
ENDBRANCH   1  16
TORSDOF 5
ENDMDL
MODEL 10
REMARK VINA RESULT:    -4.194     12.343     13.128
REMARK INTER + INTRA:          -5.129
REMARK INTER:                  -4.929
REMARK INTRA:                  -0.199
REMARK UNBOUND:                -0.199
REMARK  Name = 6989
REMARK  5 active torsions:
REMARK  status: ('A' for Active; 'I' for Inactive)
REMARK    1  A    between atoms: O_1  and  C_6
REMARK    2  A    between atoms: C_2  and  C_3
REMARK    3  A    between atoms: C_2  and  C_4
REMARK    4  A    between atoms: C_2  and  C_5
REMARK    5  A    between atoms: C_8  and  C_11
REMARK                            x       y       z     vdW  Elec       q    Type
REMARK                         _______ _______ _______ _____ _____    ______ ____
ROOT
ATOM      1  C   UNL     1       4.899  14.683  -9.760  0.00  0.00    +0.000 A 
ATOM      2  C   UNL     1       5.798  15.145  -8.799  0.00  0.00    +0.000 A 
ATOM      3  C   UNL     1       5.084  15.014 -11.103  0.00  0.00    +0.000 A 
ATOM      4  C   UNL     1       7.066  16.268 -10.522  0.00  0.00    +0.000 A 
ATOM      5  C   UNL     1       6.881  15.937  -9.179  0.00  0.00    +0.000 A 
ATOM      6  C   UNL     1       6.167  15.806 -11.483  0.00  0.00    +0.000 A 
ATOM      7  H   UNL     1       4.398  14.665 -11.870  0.00  0.00    +0.000 HD
ATOM      8  H   UNL     1       7.579  16.292  -8.425  0.00  0.00    +0.000 HD
ATOM      9  H   UNL     1       6.301  16.055 -12.533  0.00  0.00    +0.000 HD
ENDROOT
BRANCH   4  10
ATOM     10  C   UNL     1       8.224  17.115 -10.929  0.00  0.00    +0.000 C 
ATOM     11  H   UNL     1       9.154  16.536 -10.929  0.00  0.00    +0.000 HD
ATOM     12  H   UNL     1       8.059  17.518 -11.933  0.00  0.00    +0.000 HD
ATOM     13  H   UNL     1       8.367  17.949 -10.235  0.00  0.00    +0.000 HD
ENDBRANCH   4  10
BRANCH   2  14
ATOM     14  O   UNL     1       5.632  14.831  -7.483  0.00  0.00    +0.000 OA
ATOM     15  H   UNL     1       5.260  13.936  -7.419  0.00  0.00    +0.000 HD
ENDBRANCH   2  14
BRANCH   1  16
ATOM     16  C   UNL     1       3.735  13.835  -9.371  0.00  0.00    +0.000 C 
ATOM     17  H   UNL     1       3.951  13.253  -8.469  0.00  0.00    +0.000 HD
BRANCH  16  18
ATOM     18  C   UNL     1       3.392  12.781 -10.440  0.00  0.00    +0.000 C 
ATOM     19  H   UNL     1       2.334  12.501 -10.417  0.00  0.00    +0.000 HD
ATOM     20  H   UNL     1       3.980  11.870 -10.286  0.00  0.00    +0.000 HD
ATOM     21  H   UNL     1       3.616  13.160 -11.444  0.00  0.00    +0.000 HD
ENDBRANCH  16  18
BRANCH  16  22
ATOM     22  C   UNL     1       2.484  14.669  -9.039  0.00  0.00    +0.000 C 
ATOM     23  H   UNL     1       1.592  14.234  -9.504  0.00  0.00    +0.000 HD
ATOM     24  H   UNL     1       2.593  15.693  -9.417  0.00  0.00    +0.000 HD
ATOM     25  H   UNL     1       2.305  14.732  -7.961  0.00  0.00    +0.000 HD
ENDBRANCH  16  22
ENDBRANCH   1  16
TORSDOF 5
ENDMDL
