MODEL 1
REMARK VINA RESULT:    -5.125      0.000      0.000
REMARK INTER + INTRA:          -6.091
REMARK INTER:                  -6.014
REMARK INTRA:                  -0.077
REMARK UNBOUND:                -0.067
REMARK  Name = 1183
REMARK  4 active torsions:
REMARK  status: ('A' for Active; 'I' for Inactive)
REMARK    1  A    between atoms: O_1  and  C_4
REMARK    2  A    between atoms: O_1  and  C_11
REMARK    3  A    between atoms: O_2  and  C_7
REMARK    4  A    between atoms: C_5  and  C_10
REMARK                            x       y       z     vdW  Elec       q    Type
REMARK                         _______ _______ _______ _____ _____    ______ ____
ROOT
ATOM      1  C   UNL     1       6.908   0.653  -2.579  0.00  0.00    +0.000 A 
ATOM      2  C   UNL     1       8.651  -0.638  -3.645  0.00  0.00    +0.000 A 
ATOM      3  C   UNL     1       8.183   0.087  -2.549  0.00  0.00    +0.000 A 
ATOM      4  C   UNL     1       6.101   0.493  -3.705  0.00  0.00    +0.000 A 
ATOM      5  C   UNL     1       7.843  -0.798  -4.771  0.00  0.00    +0.000 A 
ATOM      6  C   UNL     1       6.568  -0.233  -4.801  0.00  0.00    +0.000 A 
ATOM      7  H   UNL     1       8.853   0.180  -1.700  0.00  0.00    +0.000 HD
ATOM      8  H   UNL     1       8.186  -1.359  -5.637  0.00  0.00    +0.000 HD
ATOM      9  H   UNL     1       5.949  -0.365  -5.684  0.00  0.00    +0.000 HD
ENDROOT
BRANCH   2  11
ATOM     10  O   UNL     1      10.322  -2.156  -4.352  0.00  0.00    +0.000 OA
ATOM     11  C   UNL     1       9.979  -1.227  -3.615  0.00  0.00    +0.000 C 
ATOM     12  H   UNL     1      10.694  -0.804  -2.888  0.00  0.00    +0.000 HD
ENDBRANCH   2  11
BRANCH   4  13
ATOM     13  O   UNL     1       4.854   1.040  -3.746  0.00  0.00    +0.000 OA
ATOM     14  H   UNL     1       4.645   1.418  -2.875  0.00  0.00    +0.000 HD
ENDBRANCH   4  13
BRANCH   1  15
ATOM     15  O   UNL     1       6.463   1.358  -1.502  0.00  0.00    +0.000 OA
BRANCH  15  16
ATOM     16  C   UNL     1       6.671   0.778  -0.215  0.00  0.00    +0.000 C 
ATOM     17  H   UNL     1       5.863   0.090   0.053  0.00  0.00    +0.000 HD
ATOM     18  H   UNL     1       6.841   1.543   0.550  0.00  0.00    +0.000 HD
ATOM     19  H   UNL     1       7.588   0.182  -0.277  0.00  0.00    +0.000 HD
ENDBRANCH  15  16
ENDBRANCH   1  15
TORSDOF 4
ENDMDL
MODEL 2
REMARK VINA RESULT:    -4.783      1.533      3.796
REMARK INTER + INTRA:          -5.688
REMARK INTER:                  -5.620
REMARK INTRA:                  -0.068
REMARK UNBOUND:                -0.067
REMARK  Name = 1183
REMARK  4 active torsions:
REMARK  status: ('A' for Active; 'I' for Inactive)
REMARK    1  A    between atoms: O_1  and  C_4
REMARK    2  A    between atoms: O_1  and  C_11
REMARK    3  A    between atoms: O_2  and  C_7
REMARK    4  A    between atoms: C_5  and  C_10
REMARK                            x       y       z     vdW  Elec       q    Type
REMARK                         _______ _______ _______ _____ _____    ______ ____
ROOT
ATOM      1  C   UNL     1       8.172   0.019  -2.813  0.00  0.00    +0.000 A 
ATOM      2  C   UNL     1       6.229   0.209  -4.237  0.00  0.00    +0.000 A 
ATOM      3  C   UNL     1       7.496  -0.317  -3.987  0.00  0.00    +0.000 A 
ATOM      4  C   UNL     1       7.581   0.882  -1.891  0.00  0.00    +0.000 A 
ATOM      5  C   UNL     1       5.638   1.072  -3.314  0.00  0.00    +0.000 A 
ATOM      6  C   UNL     1       6.314   1.409  -2.141  0.00  0.00    +0.000 A 
ATOM      7  H   UNL     1       7.908  -0.983  -4.739  0.00  0.00    +0.000 HD
ATOM      8  H   UNL     1       4.651   1.495  -3.488  0.00  0.00    +0.000 HD
ATOM      9  H   UNL     1       5.842   2.082  -1.431  0.00  0.00    +0.000 HD
ENDROOT
BRANCH   2  11
ATOM     10  O   UNL     1       5.242   0.683  -6.334  0.00  0.00    +0.000 OA
ATOM     11  C   UNL     1       5.524  -0.141  -5.459  0.00  0.00    +0.000 C 
ATOM     12  H   UNL     1       5.240  -1.200  -5.583  0.00  0.00    +0.000 HD
ENDBRANCH   2  11
BRANCH   4  13
ATOM     13  O   UNL     1       8.231   1.218  -0.742  0.00  0.00    +0.000 OA
ATOM     14  H   UNL     1       8.571   0.409  -0.322  0.00  0.00    +0.000 HD
ENDBRANCH   4  13
BRANCH   1  15
ATOM     15  O   UNL     1       9.409  -0.502  -2.581  0.00  0.00    +0.000 OA
BRANCH  15  16
ATOM     16  C   UNL     1       9.738  -1.717  -3.253  0.00  0.00    +0.000 C 
ATOM     17  H   UNL     1      10.207  -1.528  -4.223  0.00  0.00    +0.000 HD
ATOM     18  H   UNL     1       8.872  -2.384  -3.328  0.00  0.00    +0.000 HD
ATOM     19  H   UNL     1      10.482  -2.233  -2.636  0.00  0.00    +0.000 HD
ENDBRANCH  15  16
ENDBRANCH   1  15
TORSDOF 4
ENDMDL
MODEL 3
REMARK VINA RESULT:    -4.647      1.544      3.304
REMARK INTER + INTRA:          -5.529
REMARK INTER:                  -5.444
REMARK INTRA:                  -0.085
REMARK UNBOUND:                -0.067
REMARK  Name = 1183
REMARK  4 active torsions:
REMARK  status: ('A' for Active; 'I' for Inactive)
REMARK    1  A    between atoms: O_1  and  C_4
REMARK    2  A    between atoms: O_1  and  C_11
REMARK    3  A    between atoms: O_2  and  C_7
REMARK    4  A    between atoms: C_5  and  C_10
REMARK                            x       y       z     vdW  Elec       q    Type
REMARK                         _______ _______ _______ _____ _____    ______ ____
ROOT
ATOM      1  C   UNL     1       7.316   0.525  -1.785  0.00  0.00    +0.000 A 
ATOM      2  C   UNL     1       6.225   0.225  -3.921  0.00  0.00    +0.000 A 
ATOM      3  C   UNL     1       6.267   0.817  -2.659  0.00  0.00    +0.000 A 
ATOM      4  C   UNL     1       8.321  -0.359  -2.175  0.00  0.00    +0.000 A 
ATOM      5  C   UNL     1       7.232  -0.660  -4.310  0.00  0.00    +0.000 A 
ATOM      6  C   UNL     1       8.280  -0.952  -3.437  0.00  0.00    +0.000 A 
ATOM      7  H   UNL     1       5.459   1.496  -2.409  0.00  0.00    +0.000 HD
ATOM      8  H   UNL     1       7.220  -1.133  -5.289  0.00  0.00    +0.000 HD
ATOM      9  H   UNL     1       9.057  -1.642  -3.753  0.00  0.00    +0.000 HD
ENDROOT
BRANCH   2  11
ATOM     10  O   UNL     1       5.114   0.157  -6.008  0.00  0.00    +0.000 OA
ATOM     11  C   UNL     1       5.133   0.529  -4.831  0.00  0.00    +0.000 C 
ATOM     12  H   UNL     1       4.296   1.121  -4.423  0.00  0.00    +0.000 HD
ENDBRANCH   2  11
BRANCH   4  13
ATOM     13  O   UNL     1       9.350  -0.653  -1.331  0.00  0.00    +0.000 OA
ATOM     14  H   UNL     1       9.286  -0.085  -0.544  0.00  0.00    +0.000 HD
ENDBRANCH   4  13
BRANCH   1  15
ATOM     15  O   UNL     1       7.345   1.109  -0.555  0.00  0.00    +0.000 OA
BRANCH  15  16
ATOM     16  C   UNL     1       6.504   0.547   0.450  0.00  0.00    +0.000 C 
ATOM     17  H   UNL     1       5.549   1.078   0.521  0.00  0.00    +0.000 HD
ATOM     18  H   UNL     1       7.018   0.479   1.415  0.00  0.00    +0.000 HD
ATOM     19  H   UNL     1       6.275  -0.478   0.140  0.00  0.00    +0.000 HD
ENDBRANCH  15  16
ENDBRANCH   1  15
TORSDOF 4
ENDMDL
MODEL 4
REMARK VINA RESULT:    -4.618      8.117      9.392
REMARK INTER + INTRA:          -5.495
REMARK INTER:                  -5.415
REMARK INTRA:                  -0.080
REMARK UNBOUND:                -0.067
REMARK  Name = 1183
REMARK  4 active torsions:
REMARK  status: ('A' for Active; 'I' for Inactive)
REMARK    1  A    between atoms: O_1  and  C_4
REMARK    2  A    between atoms: O_1  and  C_11
REMARK    3  A    between atoms: O_2  and  C_7
REMARK    4  A    between atoms: C_5  and  C_10
REMARK                            x       y       z     vdW  Elec       q    Type
REMARK                         _______ _______ _______ _____ _____    ______ ____
ROOT
ATOM      1  C   UNL     1      13.649   5.343  -4.344  0.00  0.00    +0.000 A 
ATOM      2  C   UNL     1      11.894   6.754  -3.468  0.00  0.00    +0.000 A 
ATOM      3  C   UNL     1      12.450   5.488  -3.645  0.00  0.00    +0.000 A 
ATOM      4  C   UNL     1      14.291   6.466  -4.866  0.00  0.00    +0.000 A 
ATOM      5  C   UNL     1      12.537   7.877  -3.991  0.00  0.00    +0.000 A 
ATOM      6  C   UNL     1      13.735   7.733  -4.690  0.00  0.00    +0.000 A 
ATOM      7  H   UNL     1      11.909   4.650  -3.218  0.00  0.00    +0.000 HD
ATOM      8  H   UNL     1      12.121   8.874  -3.866  0.00  0.00    +0.000 HD
ATOM      9  H   UNL     1      14.225   8.616  -5.092  0.00  0.00    +0.000 HD
ENDROOT
BRANCH   2  11
ATOM     10  O   UNL     1      10.127   8.002  -2.510  0.00  0.00    +0.000 OA
ATOM     11  C   UNL     1      10.645   6.905  -2.740  0.00  0.00    +0.000 C 
ATOM     12  H   UNL     1      10.160   5.979  -2.388  0.00  0.00    +0.000 HD
ENDBRANCH   2  11
BRANCH   4  13
ATOM     13  O   UNL     1      15.462   6.338  -5.551  0.00  0.00    +0.000 OA
ATOM     14  H   UNL     1      15.831   7.223  -5.716  0.00  0.00    +0.000 HD
ENDBRANCH   4  13
BRANCH   1  15
ATOM     15  O   UNL     1      14.182   4.101  -4.510  0.00  0.00    +0.000 OA
BRANCH  15  16
ATOM     16  C   UNL     1      14.354   3.307  -3.337  0.00  0.00    +0.000 C 
ATOM     17  H   UNL     1      14.119   2.254  -3.524  0.00  0.00    +0.000 HD
ATOM     18  H   UNL     1      13.796   3.716  -2.487  0.00  0.00    +0.000 HD
ATOM     19  H   UNL     1      15.416   3.353  -3.071  0.00  0.00    +0.000 HD
ENDBRANCH  15  16
ENDBRANCH   1  15
TORSDOF 4
ENDMDL
MODEL 5
REMARK VINA RESULT:    -4.350     16.731     17.983
REMARK INTER + INTRA:          -5.179
REMARK INTER:                  -5.094
REMARK INTRA:                  -0.085
REMARK UNBOUND:                -0.067
REMARK  Name = 1183
REMARK  4 active torsions:
REMARK  status: ('A' for Active; 'I' for Inactive)
REMARK    1  A    between atoms: O_1  and  C_4
REMARK    2  A    between atoms: O_1  and  C_11
REMARK    3  A    between atoms: O_2  and  C_7
REMARK    4  A    between atoms: C_5  and  C_10
REMARK                            x       y       z     vdW  Elec       q    Type
REMARK                         _______ _______ _______ _____ _____    ______ ____
ROOT
ATOM      1  C   UNL     1      -1.083 -14.119 -11.084  0.00  0.00    +0.000 A 
ATOM      2  C   UNL     1      -1.427 -13.817  -8.711  0.00  0.00    +0.000 A 
ATOM      3  C   UNL     1      -1.660 -14.535  -9.884  0.00  0.00    +0.000 A 
ATOM      4  C   UNL     1      -0.273 -12.984 -11.111  0.00  0.00    +0.000 A 
ATOM      5  C   UNL     1      -0.616 -12.682  -8.739  0.00  0.00    +0.000 A 
ATOM      6  C   UNL     1      -0.039 -12.265  -9.938  0.00  0.00    +0.000 A 
ATOM      7  H   UNL     1      -2.298 -15.410  -9.805  0.00  0.00    +0.000 HD
ATOM      8  H   UNL     1      -0.420 -12.107  -7.837  0.00  0.00    +0.000 HD
ATOM      9  H   UNL     1       0.590 -11.380  -9.946  0.00  0.00    +0.000 HD
ENDROOT
BRANCH   2  11
ATOM     10  O   UNL     1      -1.728 -13.767  -6.365  0.00  0.00    +0.000 OA
ATOM     11  C   UNL     1      -2.027 -14.251  -7.460  0.00  0.00    +0.000 C 
ATOM     12  H   UNL     1      -2.783 -15.052  -7.524  0.00  0.00    +0.000 HD
ENDBRANCH   2  11
BRANCH   4  13
ATOM     13  O   UNL     1       0.296 -12.567 -12.276  0.00  0.00    +0.000 OA
ATOM     14  H   UNL     1       1.143 -13.029 -12.399  0.00  0.00    +0.000 HD
ENDBRANCH   4  13
BRANCH   1  15
ATOM     15  O   UNL     1      -1.319 -14.829 -12.222  0.00  0.00    +0.000 OA
BRANCH  15  16
ATOM     16  C   UNL     1      -0.797 -16.156 -12.279  0.00  0.00    +0.000 C 
ATOM     17  H   UNL     1      -1.592 -16.897 -12.408  0.00  0.00    +0.000 HD
ATOM     18  H   UNL     1      -0.156 -16.374 -11.418  0.00  0.00    +0.000 HD
ATOM     19  H   UNL     1      -0.163 -16.213 -13.170  0.00  0.00    +0.000 HD
ENDBRANCH  15  16
ENDBRANCH   1  15
TORSDOF 4
ENDMDL
MODEL 6
REMARK VINA RESULT:    -4.340      1.132      2.548
REMARK INTER + INTRA:          -5.168
REMARK INTER:                  -5.087
REMARK INTRA:                  -0.081
REMARK UNBOUND:                -0.067
REMARK  Name = 1183
REMARK  4 active torsions:
REMARK  status: ('A' for Active; 'I' for Inactive)
REMARK    1  A    between atoms: O_1  and  C_4
REMARK    2  A    between atoms: O_1  and  C_11
REMARK    3  A    between atoms: O_2  and  C_7
REMARK    4  A    between atoms: C_5  and  C_10
REMARK                            x       y       z     vdW  Elec       q    Type
REMARK                         _______ _______ _______ _____ _____    ______ ____
ROOT
ATOM      1  C   UNL     1       6.974  -0.120  -3.109  0.00  0.00    +0.000 A 
ATOM      2  C   UNL     1       9.309  -0.568  -3.545  0.00  0.00    +0.000 A 
ATOM      3  C   UNL     1       7.967  -0.698  -3.902  0.00  0.00    +0.000 A 
ATOM      4  C   UNL     1       7.324   0.586  -1.959  0.00  0.00    +0.000 A 
ATOM      5  C   UNL     1       9.658   0.139  -2.394  0.00  0.00    +0.000 A 
ATOM      6  C   UNL     1       8.667   0.716  -1.601  0.00  0.00    +0.000 A 
ATOM      7  H   UNL     1       7.751  -1.258  -4.807  0.00  0.00    +0.000 HD
ATOM      8  H   UNL     1      10.698   0.253  -2.096  0.00  0.00    +0.000 HD
ATOM      9  H   UNL     1       8.953   1.263  -0.708  0.00  0.00    +0.000 HD
ENDROOT
BRANCH   2  11
ATOM     10  O   UNL     1      10.475  -2.389  -4.504  0.00  0.00    +0.000 OA
ATOM     11  C   UNL     1      10.343  -1.169  -4.371  0.00  0.00    +0.000 C 
ATOM     12  H   UNL     1      11.028  -0.478  -4.891  0.00  0.00    +0.000 HD
ENDBRANCH   2  11
BRANCH   4  13
ATOM     13  O   UNL     1       6.365   1.154  -1.176  0.00  0.00    +0.000 OA
ATOM     14  H   UNL     1       6.648   1.110  -0.246  0.00  0.00    +0.000 HD
ENDBRANCH   4  13
BRANCH   1  15
ATOM     15  O   UNL     1       5.667  -0.254  -3.469  0.00  0.00    +0.000 OA
BRANCH  15  16
ATOM     16  C   UNL     1       5.199   0.574  -4.532  0.00  0.00    +0.000 C 
ATOM     17  H   UNL     1       5.321   0.089  -5.506  0.00  0.00    +0.000 HD
ATOM     18  H   UNL     1       5.656   1.570  -4.499  0.00  0.00    +0.000 HD
ATOM     19  H   UNL     1       4.123   0.715  -4.380  0.00  0.00    +0.000 HD
ENDBRANCH  15  16
ENDBRANCH   1  15
TORSDOF 4
ENDMDL
MODEL 7
REMARK VINA RESULT:    -4.120     19.607     21.606
REMARK INTER + INTRA:          -4.909
REMARK INTER:                  -4.831
REMARK INTRA:                  -0.079
REMARK UNBOUND:                -0.067
REMARK  Name = 1183
REMARK  4 active torsions:
REMARK  status: ('A' for Active; 'I' for Inactive)
REMARK    1  A    between atoms: O_1  and  C_4
REMARK    2  A    between atoms: O_1  and  C_11
REMARK    3  A    between atoms: O_2  and  C_7
REMARK    4  A    between atoms: C_5  and  C_10
REMARK                            x       y       z     vdW  Elec       q    Type
REMARK                         _______ _______ _______ _____ _____    ______ ____
ROOT
ATOM      1  C   UNL     1      -2.211   9.553  12.033  0.00  0.00    +0.000 A 
ATOM      2  C   UNL     1      -2.938   9.506  14.337  0.00  0.00    +0.000 A 
ATOM      3  C   UNL     1      -2.630  10.224  13.182  0.00  0.00    +0.000 A 
ATOM      4  C   UNL     1      -2.100   8.163  12.039  0.00  0.00    +0.000 A 
ATOM      5  C   UNL     1      -2.827   8.115  14.342  0.00  0.00    +0.000 A 
ATOM      6  C   UNL     1      -2.407   7.443  13.194  0.00  0.00    +0.000 A 
ATOM      7  H   UNL     1      -2.735  11.304  13.233  0.00  0.00    +0.000 HD
ATOM      8  H   UNL     1      -3.061   7.534  15.231  0.00  0.00    +0.000 HD
ATOM      9  H   UNL     1      -2.325   6.360  13.212  0.00  0.00    +0.000 HD
ENDROOT
BRANCH   2  11
ATOM     10  O   UNL     1      -2.870  10.019  16.645  0.00  0.00    +0.000 OA
ATOM     11  C   UNL     1      -3.375  10.204  15.534  0.00  0.00    +0.000 C 
ATOM     12  H   UNL     1      -4.199  10.929  15.414  0.00  0.00    +0.000 HD
ENDBRANCH   2  11
BRANCH   4  13
ATOM     13  O   UNL     1      -1.692   7.496  10.924  0.00  0.00    +0.000 OA
ATOM     14  H   UNL     1      -1.794   6.540  11.071  0.00  0.00    +0.000 HD
ENDBRANCH   4  13
BRANCH   1  15
ATOM     15  O   UNL     1      -1.913  10.267  10.911  0.00  0.00    +0.000 OA
BRANCH  15  16
ATOM     16  C   UNL     1      -0.897  11.262  11.026  0.00  0.00    +0.000 C 
ATOM     17  H   UNL     1      -0.869  11.695  12.031  0.00  0.00    +0.000 HD
ATOM     18  H   UNL     1      -0.987  12.023  10.244  0.00  0.00    +0.000 HD
ATOM     19  H   UNL     1       0.063  10.759  10.870  0.00  0.00    +0.000 HD
ENDBRANCH  15  16
ENDBRANCH   1  15
TORSDOF 4
ENDMDL
MODEL 8
REMARK VINA RESULT:    -4.054     17.688     18.874
REMARK INTER + INTRA:          -4.832
REMARK INTER:                  -4.749
REMARK INTRA:                  -0.083
REMARK UNBOUND:                -0.067
REMARK  Name = 1183
REMARK  4 active torsions:
REMARK  status: ('A' for Active; 'I' for Inactive)
REMARK    1  A    between atoms: O_1  and  C_4
REMARK    2  A    between atoms: O_1  and  C_11
REMARK    3  A    between atoms: O_2  and  C_7
REMARK    4  A    between atoms: C_5  and  C_10
REMARK                            x       y       z     vdW  Elec       q    Type
REMARK                         _______ _______ _______ _____ _____    ______ ____
ROOT
ATOM      1  C   UNL     1      -1.188   9.512  11.292  0.00  0.00    +0.000 A 
ATOM      2  C   UNL     1       1.130  10.078  10.912  0.00  0.00    +0.000 A 
ATOM      3  C   UNL     1      -0.159  10.454  11.287  0.00  0.00    +0.000 A 
ATOM      4  C   UNL     1      -0.927   8.193  10.922  0.00  0.00    +0.000 A 
ATOM      5  C   UNL     1       1.391   8.758  10.542  0.00  0.00    +0.000 A 
ATOM      6  C   UNL     1       0.363   7.815  10.547  0.00  0.00    +0.000 A 
ATOM      7  H   UNL     1      -0.305  11.493  11.566  0.00  0.00    +0.000 HD
ATOM      8  H   UNL     1       2.388   8.441  10.246  0.00  0.00    +0.000 HD
ATOM      9  H   UNL     1       0.579   6.791  10.256  0.00  0.00    +0.000 HD
ENDROOT
BRANCH   2  11
ATOM     10  O   UNL     1       3.187  10.978  10.167  0.00  0.00    +0.000 OA
ATOM     11  C   UNL     1       2.202  11.059  10.907  0.00  0.00    +0.000 C 
ATOM     12  H   UNL     1       2.105  11.905  11.608  0.00  0.00    +0.000 HD
ENDBRANCH   2  11
BRANCH   4  13
ATOM     13  O   UNL     1      -1.923   7.263  10.923  0.00  0.00    +0.000 OA
ATOM     14  H   UNL     1      -2.732   7.665  10.563  0.00  0.00    +0.000 HD
ENDBRANCH   4  13
BRANCH   1  15
ATOM     15  O   UNL     1      -2.443   9.892  11.661  0.00  0.00    +0.000 OA
BRANCH  15  16
ATOM     16  C   UNL     1      -3.085  10.878  10.853  0.00  0.00    +0.000 C 
ATOM     17  H   UNL     1      -4.173  10.755  10.854  0.00  0.00    +0.000 HD
ATOM     18  H   UNL     1      -2.667  10.906   9.841  0.00  0.00    +0.000 HD
ATOM     19  H   UNL     1      -2.876  11.852  11.309  0.00  0.00    +0.000 HD
ENDBRANCH  15  16
ENDBRANCH   1  15
TORSDOF 4
ENDMDL
MODEL 9
REMARK VINA RESULT:    -4.034     23.840     25.491
REMARK INTER + INTRA:          -4.808
REMARK INTER:                  -4.741
REMARK INTRA:                  -0.067
REMARK UNBOUND:                -0.067
REMARK  Name = 1183
REMARK  4 active torsions:
REMARK  status: ('A' for Active; 'I' for Inactive)
REMARK    1  A    between atoms: O_1  and  C_4
REMARK    2  A    between atoms: O_1  and  C_11
REMARK    3  A    between atoms: O_2  and  C_7
REMARK    4  A    between atoms: C_5  and  C_10
REMARK                            x       y       z     vdW  Elec       q    Type
REMARK                         _______ _______ _______ _____ _____    ______ ____
ROOT
ATOM      1  C   UNL     1       6.117 -11.425 -25.159  0.00  0.00    +0.000 A 
ATOM      2  C   UNL     1       7.876 -11.187 -26.799  0.00  0.00    +0.000 A 
ATOM      3  C   UNL     1       6.838 -10.631 -26.052  0.00  0.00    +0.000 A 
ATOM      4  C   UNL     1       6.435 -12.775 -25.013  0.00  0.00    +0.000 A 
ATOM      5  C   UNL     1       8.194 -12.538 -26.653  0.00  0.00    +0.000 A 
ATOM      6  C   UNL     1       7.474 -13.332 -25.760  0.00  0.00    +0.000 A 
ATOM      7  H   UNL     1       6.634  -9.576 -26.205  0.00  0.00    +0.000 HD
ATOM      8  H   UNL     1       8.999 -12.993 -27.225  0.00  0.00    +0.000 HD
ATOM      9  H   UNL     1       7.731 -14.382 -25.657  0.00  0.00    +0.000 HD
ENDROOT
BRANCH   2  11
ATOM     10  O   UNL     1       8.138  -9.391 -28.316  0.00  0.00    +0.000 OA
ATOM     11  C   UNL     1       8.627 -10.361 -27.729  0.00  0.00    +0.000 C 
ATOM     12  H   UNL     1       9.682 -10.636 -27.899  0.00  0.00    +0.000 HD
ENDBRANCH   2  11
BRANCH   4  13
ATOM     13  O   UNL     1       5.739 -13.561 -24.145  0.00  0.00    +0.000 OA
ATOM     14  H   UNL     1       5.249 -14.233 -24.649  0.00  0.00    +0.000 HD
ENDBRANCH   4  13
BRANCH   1  15
ATOM     15  O   UNL     1       5.105 -10.870 -24.435  0.00  0.00    +0.000 OA
BRANCH  15  16
ATOM     16  C   UNL     1       4.768  -9.514 -24.726  0.00  0.00    +0.000 C 
ATOM     17  H   UNL     1       4.333  -9.011 -23.857  0.00  0.00    +0.000 HD
ATOM     18  H   UNL     1       4.134  -9.438 -25.616  0.00  0.00    +0.000 HD
ATOM     19  H   UNL     1       5.704  -8.994 -24.958  0.00  0.00    +0.000 HD
ENDBRANCH  15  16
ENDBRANCH   1  15
TORSDOF 4
ENDMDL
MODEL 10
REMARK VINA RESULT:    -3.938     15.325     16.590
REMARK INTER + INTRA:          -4.695
REMARK INTER:                  -4.629
REMARK INTRA:                  -0.066
REMARK UNBOUND:                -0.067
REMARK  Name = 1183
REMARK  4 active torsions:
REMARK  status: ('A' for Active; 'I' for Inactive)
REMARK    1  A    between atoms: O_1  and  C_4
REMARK    2  A    between atoms: O_1  and  C_11
REMARK    3  A    between atoms: O_2  and  C_7
REMARK    4  A    between atoms: C_5  and  C_10
REMARK                            x       y       z     vdW  Elec       q    Type
REMARK                         _______ _______ _______ _____ _____    ______ ____
ROOT
ATOM      1  C   UNL     1       4.809  13.400 -12.677  0.00  0.00    +0.000 A 
ATOM      2  C   UNL     1       4.072  13.743 -10.401  0.00  0.00    +0.000 A 
ATOM      3  C   UNL     1       4.795  14.172 -11.514  0.00  0.00    +0.000 A 
ATOM      4  C   UNL     1       4.101  12.200 -12.726  0.00  0.00    +0.000 A 
ATOM      5  C   UNL     1       3.364  12.542 -10.451  0.00  0.00    +0.000 A 
ATOM      6  C   UNL     1       3.378  11.770 -11.613  0.00  0.00    +0.000 A 
ATOM      7  H   UNL     1       5.327  15.114 -11.421  0.00  0.00    +0.000 HD
ATOM      8  H   UNL     1       2.794  12.188  -9.595  0.00  0.00    +0.000 HD
ATOM      9  H   UNL     1       2.823  10.837 -11.637  0.00  0.00    +0.000 HD
ENDROOT
BRANCH   2  11
ATOM     10  O   UNL     1       4.828  14.357  -8.246  0.00  0.00    +0.000 OA
ATOM     11  C   UNL     1       4.057  14.546  -9.190  0.00  0.00    +0.000 C 
ATOM     12  H   UNL     1       3.309  15.356  -9.140  0.00  0.00    +0.000 HD
ENDBRANCH   2  11
BRANCH   4  13
ATOM     13  O   UNL     1       4.108  11.438 -13.855  0.00  0.00    +0.000 OA
ATOM     14  H   UNL     1       3.957  10.508 -13.610  0.00  0.00    +0.000 HD
ENDBRANCH   4  13
BRANCH   1  15
ATOM     15  O   UNL     1       5.519  13.831 -13.758  0.00  0.00    +0.000 OA
BRANCH  15  16
ATOM     16  C   UNL     1       5.959  15.188 -13.746  0.00  0.00    +0.000 C 
ATOM     17  H   UNL     1       6.020  15.584 -12.727  0.00  0.00    +0.000 HD
ATOM     18  H   UNL     1       5.348  15.816 -14.404  0.00  0.00    +0.000 HD
ATOM     19  H   UNL     1       6.976  15.199 -14.152  0.00  0.00    +0.000 HD
ENDBRANCH  15  16
ENDBRANCH   1  15
TORSDOF 4
ENDMDL
