MODEL 1
REMARK VINA RESULT:    -4.778      0.000      0.000
REMARK INTER + INTRA:          -6.731
REMARK INTER:                  -6.377
REMARK INTRA:                  -0.354
REMARK UNBOUND:                -0.276
REMARK  Name = 5363388
REMARK  7 active torsions:
REMARK  status: ('A' for Active; 'I' for Inactive)
REMARK    1  A    between atoms: O_1  and  C_4
REMARK    2  A    between atoms: O_1  and  C_9
REMARK    3  A    between atoms: C_3  and  C_4
REMARK    4  A    between atoms: C_3  and  C_5
REMARK    5  A    between atoms: C_6  and  C_7
REMARK    6  A    between atoms: C_6  and  C_8
REMARK    7  A    between atoms: C_9  and  C_10
REMARK                            x       y       z     vdW  Elec       q    Type
REMARK                         _______ _______ _______ _____ _____    ______ ____
ROOT
ATOM      1  C   UNL     1      12.091   7.697  -2.578  0.00  0.00    +0.000 C 
ATOM      2  H   UNL     1      11.510   8.548  -2.955  0.00  0.00    +0.000 HD
ATOM      3  H   UNL     1      13.134   8.025  -2.568  0.00  0.00    +0.000 HD
ENDROOT
BRANCH   1   4
ATOM      4  C   UNL     1      11.848   6.530  -3.492  0.00  0.00    +0.000 C 
ATOM      5  C   UNL     1      10.879   6.497  -4.420  0.00  0.00    +0.000 C 
ATOM      6  H   UNL     1      12.491   5.661  -3.378  0.00  0.00    +0.000 HD
ATOM      7  H   UNL     1      10.763   5.601  -5.024  0.00  0.00    +0.000 HD
BRANCH   5   8
ATOM      8  C   UNL     1       9.918   7.623  -4.662  0.00  0.00    +0.000 C 
ATOM      9  H   UNL     1       9.423   7.959  -3.747  0.00  0.00    +0.000 HD
ATOM     10  H   UNL     1      10.495   8.488  -5.009  0.00  0.00    +0.000 HD
BRANCH   8  11
ATOM     11  C   UNL     1       8.894   7.256  -5.726  0.00  0.00    +0.000 C 
ATOM     12  H   UNL     1       8.538   6.233  -5.567  0.00  0.00    +0.000 HD
ATOM     13  H   UNL     1       9.325   7.310  -6.731  0.00  0.00    +0.000 HD
ATOM     14  H   UNL     1       8.026   7.923  -5.689  0.00  0.00    +0.000 HD
ENDBRANCH   8  11
ENDBRANCH   5   8
ENDBRANCH   1   4
BRANCH   1  15
ATOM     15  C   UNL     1      11.653   7.398  -1.151  0.00  0.00    +0.000 C 
ATOM     16  H   UNL     1      11.105   6.449  -1.131  0.00  0.00    +0.000 HD
ATOM     17  H   UNL     1      12.528   7.312  -0.495  0.00  0.00    +0.000 HD
BRANCH  15  18
ATOM     18  O   UNL     1      10.808   8.441  -0.681  0.00  0.00    +0.000 OA
BRANCH  18  20
ATOM     19  O   UNL     1       8.785   8.753   0.390  0.00  0.00    +0.000 OA
ATOM     20  C   UNL     1       9.577   8.053  -0.228  0.00  0.00    +0.000 C 
BRANCH  20  21
ATOM     21  C   UNL     1       9.325   6.624  -0.597  0.00  0.00    +0.000 C 
ATOM     22  H   UNL     1       9.547   5.976   0.256  0.00  0.00    +0.000 HD
ATOM     23  H   UNL     1       9.938   6.349  -1.459  0.00  0.00    +0.000 HD
ATOM     24  H   UNL     1       8.271   6.499  -0.864  0.00  0.00    +0.000 HD
ENDBRANCH  20  21
ENDBRANCH  18  20
ENDBRANCH  15  18
ENDBRANCH   1  15
TORSDOF 7
ENDMDL
MODEL 2
REMARK VINA RESULT:    -4.656      3.092      4.627
REMARK INTER + INTRA:          -6.566
REMARK INTER:                  -6.274
REMARK INTRA:                  -0.292
REMARK UNBOUND:                -0.276
REMARK  Name = 5363388
REMARK  7 active torsions:
REMARK  status: ('A' for Active; 'I' for Inactive)
REMARK    1  A    between atoms: O_1  and  C_4
REMARK    2  A    between atoms: O_1  and  C_9
REMARK    3  A    between atoms: C_3  and  C_4
REMARK    4  A    between atoms: C_3  and  C_5
REMARK    5  A    between atoms: C_6  and  C_7
REMARK    6  A    between atoms: C_6  and  C_8
REMARK    7  A    between atoms: C_9  and  C_10
REMARK                            x       y       z     vdW  Elec       q    Type
REMARK                         _______ _______ _______ _____ _____    ______ ____
ROOT
ATOM      1  C   UNL     1      12.665   6.411  -3.856  0.00  0.00    +0.000 C 
ATOM      2  H   UNL     1      13.037   6.673  -2.857  0.00  0.00    +0.000 HD
ATOM      3  H   UNL     1      12.789   5.329  -3.950  0.00  0.00    +0.000 HD
ENDROOT
BRANCH   1   4
ATOM      4  C   UNL     1      13.461   7.188  -4.865  0.00  0.00    +0.000 C 
ATOM      5  C   UNL     1      14.468   6.667  -5.583  0.00  0.00    +0.000 C 
ATOM      6  H   UNL     1      13.207   8.235  -5.005  0.00  0.00    +0.000 HD
ATOM      7  H   UNL     1      15.003   7.310  -6.277  0.00  0.00    +0.000 HD
BRANCH   5   8
ATOM      8  C   UNL     1      14.925   5.244  -5.467  0.00  0.00    +0.000 C 
ATOM      9  H   UNL     1      14.516   4.739  -4.588  0.00  0.00    +0.000 HD
ATOM     10  H   UNL     1      14.523   4.691  -6.326  0.00  0.00    +0.000 HD
BRANCH   8  11
ATOM     11  C   UNL     1      16.443   5.147  -5.489  0.00  0.00    +0.000 C 
ATOM     12  H   UNL     1      16.884   6.142  -5.369  0.00  0.00    +0.000 HD
ATOM     13  H   UNL     1      16.804   4.731  -6.436  0.00  0.00    +0.000 HD
ATOM     14  H   UNL     1      16.813   4.515  -4.675  0.00  0.00    +0.000 HD
ENDBRANCH   8  11
ENDBRANCH   5   8
ENDBRANCH   1   4
BRANCH   1  15
ATOM     15  C   UNL     1      11.180   6.745  -3.929  0.00  0.00    +0.000 C 
ATOM     16  H   UNL     1      10.700   6.104  -4.677  0.00  0.00    +0.000 HD
ATOM     17  H   UNL     1      10.703   6.569  -2.956  0.00  0.00    +0.000 HD
BRANCH  15  18
ATOM     18  O   UNL     1      11.016   8.109  -4.298  0.00  0.00    +0.000 OA
BRANCH  18  20
ATOM     19  O   UNL     1       9.341   9.532  -5.009  0.00  0.00    +0.000 OA
ATOM     20  C   UNL     1       9.841   8.418  -4.926  0.00  0.00    +0.000 C 
BRANCH  20  21
ATOM     21  C   UNL     1       9.235   7.181  -5.514  0.00  0.00    +0.000 C 
ATOM     22  H   UNL     1       9.629   7.019  -6.522  0.00  0.00    +0.000 HD
ATOM     23  H   UNL     1       8.147   7.275  -5.537  0.00  0.00    +0.000 HD
ATOM     24  H   UNL     1       9.499   6.318  -4.895  0.00  0.00    +0.000 HD
ENDBRANCH  20  21
ENDBRANCH  18  20
ENDBRANCH  15  18
ENDBRANCH   1  15
TORSDOF 7
ENDMDL
MODEL 3
REMARK VINA RESULT:    -4.421      7.031      8.518
REMARK INTER + INTRA:          -6.247
REMARK INTER:                  -6.067
REMARK INTRA:                  -0.181
REMARK UNBOUND:                -0.276
REMARK  Name = 5363388
REMARK  7 active torsions:
REMARK  status: ('A' for Active; 'I' for Inactive)
REMARK    1  A    between atoms: O_1  and  C_4
REMARK    2  A    between atoms: O_1  and  C_9
REMARK    3  A    between atoms: C_3  and  C_4
REMARK    4  A    between atoms: C_3  and  C_5
REMARK    5  A    between atoms: C_6  and  C_7
REMARK    6  A    between atoms: C_6  and  C_8
REMARK    7  A    between atoms: C_9  and  C_10
REMARK                            x       y       z     vdW  Elec       q    Type
REMARK                         _______ _______ _______ _____ _____    ______ ____
ROOT
ATOM      1  C   UNL     1       6.708   1.654  -1.615  0.00  0.00    +0.000 C 
ATOM      2  H   UNL     1       6.595   2.666  -2.025  0.00  0.00    +0.000 HD
ATOM      3  H   UNL     1       5.784   1.443  -1.072  0.00  0.00    +0.000 HD
ENDROOT
BRANCH   1   4
ATOM      4  C   UNL     1       7.926   1.644  -0.736  0.00  0.00    +0.000 C 
ATOM      5  C   UNL     1       8.180   2.572   0.199  0.00  0.00    +0.000 C 
ATOM      6  H   UNL     1       8.644   0.841  -0.883  0.00  0.00    +0.000 HD
ATOM      7  H   UNL     1       9.098   2.496   0.776  0.00  0.00    +0.000 HD
BRANCH   5   8
ATOM      8  C   UNL     1       7.279   3.737   0.484  0.00  0.00    +0.000 C 
ATOM      9  H   UNL     1       6.708   4.054  -0.393  0.00  0.00    +0.000 HD
ATOM     10  H   UNL     1       6.526   3.409   1.211  0.00  0.00    +0.000 HD
BRANCH   8  11
ATOM     11  C   UNL     1       8.055   4.905   1.074  0.00  0.00    +0.000 C 
ATOM     12  H   UNL     1       7.449   5.415   1.830  0.00  0.00    +0.000 HD
ATOM     13  H   UNL     1       8.321   5.638   0.305  0.00  0.00    +0.000 HD
ATOM     14  H   UNL     1       8.978   4.566   1.557  0.00  0.00    +0.000 HD
ENDBRANCH   8  11
ENDBRANCH   5   8
ENDBRANCH   1   4
BRANCH   1  15
ATOM     15  C   UNL     1       6.838   0.670  -2.771  0.00  0.00    +0.000 C 
ATOM     16  H   UNL     1       7.804   0.819  -3.268  0.00  0.00    +0.000 HD
ATOM     17  H   UNL     1       6.790  -0.361  -2.399  0.00  0.00    +0.000 HD
BRANCH  15  18
ATOM     18  O   UNL     1       5.788   0.888  -3.704  0.00  0.00    +0.000 OA
BRANCH  18  20
ATOM     19  O   UNL     1       5.310   0.366  -5.903  0.00  0.00    +0.000 OA
ATOM     20  C   UNL     1       5.805   0.094  -4.818  0.00  0.00    +0.000 C 
BRANCH  20  21
ATOM     21  C   UNL     1       6.529  -1.184  -4.522  0.00  0.00    +0.000 C 
ATOM     22  H   UNL     1       5.828  -2.022  -4.553  0.00  0.00    +0.000 HD
ATOM     23  H   UNL     1       7.009  -1.119  -3.542  0.00  0.00    +0.000 HD
ATOM     24  H   UNL     1       7.301  -1.347  -5.279  0.00  0.00    +0.000 HD
ENDBRANCH  20  21
ENDBRANCH  18  20
ENDBRANCH  15  18
ENDBRANCH   1  15
TORSDOF 7
ENDMDL
MODEL 4
REMARK VINA RESULT:    -4.366      3.472      5.008
REMARK INTER + INTRA:          -6.173
REMARK INTER:                  -5.991
REMARK INTRA:                  -0.182
REMARK UNBOUND:                -0.276
REMARK  Name = 5363388
REMARK  7 active torsions:
REMARK  status: ('A' for Active; 'I' for Inactive)
REMARK    1  A    between atoms: O_1  and  C_4
REMARK    2  A    between atoms: O_1  and  C_9
REMARK    3  A    between atoms: C_3  and  C_4
REMARK    4  A    between atoms: C_3  and  C_5
REMARK    5  A    between atoms: C_6  and  C_7
REMARK    6  A    between atoms: C_6  and  C_8
REMARK    7  A    between atoms: C_9  and  C_10
REMARK                            x       y       z     vdW  Elec       q    Type
REMARK                         _______ _______ _______ _____ _____    ______ ____
ROOT
ATOM      1  C   UNL     1      11.431   6.788  -3.773  0.00  0.00    +0.000 C 
ATOM      2  H   UNL     1      10.986   6.283  -4.640  0.00  0.00    +0.000 HD
ATOM      3  H   UNL     1      11.345   6.088  -2.938  0.00  0.00    +0.000 HD
ENDROOT
BRANCH   1   4
ATOM      4  C   UNL     1      10.680   8.070  -3.548  0.00  0.00    +0.000 C 
ATOM      5  C   UNL     1       9.924   8.666  -4.483  0.00  0.00    +0.000 C 
ATOM      6  H   UNL     1      10.773   8.541  -2.573  0.00  0.00    +0.000 HD
ATOM      7  H   UNL     1       9.432   9.604  -4.238  0.00  0.00    +0.000 HD
BRANCH   5   8
ATOM      8  C   UNL     1       9.733   8.127  -5.869  0.00  0.00    +0.000 C 
ATOM      9  H   UNL     1       9.676   8.915  -6.625  0.00  0.00    +0.000 HD
ATOM     10  H   UNL     1      10.626   7.546  -6.130  0.00  0.00    +0.000 HD
BRANCH   8  11
ATOM     11  C   UNL     1       8.516   7.216  -5.945  0.00  0.00    +0.000 C 
ATOM     12  H   UNL     1       8.165   6.974  -4.936  0.00  0.00    +0.000 HD
ATOM     13  H   UNL     1       8.751   6.276  -6.455  0.00  0.00    +0.000 HD
ATOM     14  H   UNL     1       7.691   7.699  -6.480  0.00  0.00    +0.000 HD
ENDBRANCH   8  11
ENDBRANCH   5   8
ENDBRANCH   1   4
BRANCH   1  15
ATOM     15  C   UNL     1      12.906   7.040  -4.057  0.00  0.00    +0.000 C 
ATOM     16  H   UNL     1      13.000   7.797  -4.844  0.00  0.00    +0.000 HD
ATOM     17  H   UNL     1      13.409   7.408  -3.154  0.00  0.00    +0.000 HD
BRANCH  15  18
ATOM     18  O   UNL     1      13.523   5.833  -4.486  0.00  0.00    +0.000 OA
BRANCH  18  20
ATOM     19  O   UNL     1      14.973   6.939  -5.904  0.00  0.00    +0.000 OA
ATOM     20  C   UNL     1      14.675   5.977  -5.209  0.00  0.00    +0.000 C 
BRANCH  20  21
ATOM     21  C   UNL     1      15.544   4.769  -5.030  0.00  0.00    +0.000 C 
ATOM     22  H   UNL     1      15.364   4.327  -4.046  0.00  0.00    +0.000 HD
ATOM     23  H   UNL     1      16.595   5.049  -5.140  0.00  0.00    +0.000 HD
ATOM     24  H   UNL     1      15.297   4.028  -5.795  0.00  0.00    +0.000 HD
ENDBRANCH  20  21
ENDBRANCH  18  20
ENDBRANCH  15  18
ENDBRANCH   1  15
TORSDOF 7
ENDMDL
MODEL 5
REMARK VINA RESULT:    -4.332      8.152      8.955
REMARK INTER + INTRA:          -6.127
REMARK INTER:                  -5.641
REMARK INTRA:                  -0.486
REMARK UNBOUND:                -0.276
REMARK  Name = 5363388
REMARK  7 active torsions:
REMARK  status: ('A' for Active; 'I' for Inactive)
REMARK    1  A    between atoms: O_1  and  C_4
REMARK    2  A    between atoms: O_1  and  C_9
REMARK    3  A    between atoms: C_3  and  C_4
REMARK    4  A    between atoms: C_3  and  C_5
REMARK    5  A    between atoms: C_6  and  C_7
REMARK    6  A    between atoms: C_6  and  C_8
REMARK    7  A    between atoms: C_9  and  C_10
REMARK                            x       y       z     vdW  Elec       q    Type
REMARK                         _______ _______ _______ _____ _____    ______ ____
ROOT
ATOM      1  C   UNL     1       7.087   1.026  -2.102  0.00  0.00    +0.000 C 
ATOM      2  H   UNL     1       6.863   1.783  -1.341  0.00  0.00    +0.000 HD
ATOM      3  H   UNL     1       7.271   1.574  -3.029  0.00  0.00    +0.000 HD
ENDROOT
BRANCH   1   4
ATOM      4  C   UNL     1       5.912   0.094  -2.189  0.00  0.00    +0.000 C 
ATOM      5  C   UNL     1       5.533  -0.527  -3.316  0.00  0.00    +0.000 C 
ATOM      6  H   UNL     1       5.334  -0.070  -1.283  0.00  0.00    +0.000 HD
ATOM      7  H   UNL     1       4.656  -1.169  -3.291  0.00  0.00    +0.000 HD
BRANCH   5   8
ATOM      8  C   UNL     1       6.235  -0.368  -4.632  0.00  0.00    +0.000 C 
ATOM      9  H   UNL     1       7.176   0.183  -4.545  0.00  0.00    +0.000 HD
ATOM     10  H   UNL     1       6.521  -1.367  -4.983  0.00  0.00    +0.000 HD
BRANCH   8  11
ATOM     11  C   UNL     1       5.327   0.275  -5.670  0.00  0.00    +0.000 C 
ATOM     12  H   UNL     1       5.739   0.125  -6.673  0.00  0.00    +0.000 HD
ATOM     13  H   UNL     1       5.230   1.353  -5.503  0.00  0.00    +0.000 HD
ATOM     14  H   UNL     1       4.325  -0.166  -5.649  0.00  0.00    +0.000 HD
ENDBRANCH   8  11
ENDBRANCH   5   8
ENDBRANCH   1   4
BRANCH   1  15
ATOM     15  C   UNL     1       8.361   0.292  -1.701  0.00  0.00    +0.000 C 
ATOM     16  H   UNL     1       8.903   0.886  -0.957  0.00  0.00    +0.000 HD
ATOM     17  H   UNL     1       8.115  -0.683  -1.262  0.00  0.00    +0.000 HD
BRANCH  15  18
ATOM     18  O   UNL     1       9.184   0.103  -2.846  0.00  0.00    +0.000 OA
BRANCH  18  20
ATOM     19  O   UNL     1      10.658  -1.465  -3.685  0.00  0.00    +0.000 OA
ATOM     20  C   UNL     1       9.671  -1.162  -3.027  0.00  0.00    +0.000 C 
BRANCH  20  21
ATOM     21  C   UNL     1       8.814  -2.149  -2.296  0.00  0.00    +0.000 C 
ATOM     22  H   UNL     1       9.274  -3.140  -2.336  0.00  0.00    +0.000 HD
ATOM     23  H   UNL     1       7.814  -2.171  -2.737  0.00  0.00    +0.000 HD
ATOM     24  H   UNL     1       8.727  -1.847  -1.248  0.00  0.00    +0.000 HD
ENDBRANCH  20  21
ENDBRANCH  18  20
ENDBRANCH  15  18
ENDBRANCH   1  15
TORSDOF 7
ENDMDL
MODEL 6
REMARK VINA RESULT:    -4.092      3.627      5.083
REMARK INTER + INTRA:          -5.804
REMARK INTER:                  -5.542
REMARK INTRA:                  -0.261
REMARK UNBOUND:                -0.276
REMARK  Name = 5363388
REMARK  7 active torsions:
REMARK  status: ('A' for Active; 'I' for Inactive)
REMARK    1  A    between atoms: O_1  and  C_4
REMARK    2  A    between atoms: O_1  and  C_9
REMARK    3  A    between atoms: C_3  and  C_4
REMARK    4  A    between atoms: C_3  and  C_5
REMARK    5  A    between atoms: C_6  and  C_7
REMARK    6  A    between atoms: C_6  and  C_8
REMARK    7  A    between atoms: C_9  and  C_10
REMARK                            x       y       z     vdW  Elec       q    Type
REMARK                         _______ _______ _______ _____ _____    ______ ____
ROOT
ATOM      1  C   UNL     1      11.932   5.918  -2.727  0.00  0.00    +0.000 C 
ATOM      2  H   UNL     1      10.875   5.799  -2.995  0.00  0.00    +0.000 HD
ATOM      3  H   UNL     1      11.950   6.130  -1.655  0.00  0.00    +0.000 HD
ENDROOT
BRANCH   1   4
ATOM      4  C   UNL     1      12.499   7.032  -3.559  0.00  0.00    +0.000 C 
ATOM      5  C   UNL     1      11.791   7.722  -4.466  0.00  0.00    +0.000 C 
ATOM      6  H   UNL     1      13.549   7.278  -3.420  0.00  0.00    +0.000 HD
ATOM      7  H   UNL     1      12.290   8.500  -5.038  0.00  0.00    +0.000 HD
BRANCH   5   8
ATOM      8  C   UNL     1      10.343   7.467  -4.763  0.00  0.00    +0.000 C 
ATOM      9  H   UNL     1      10.198   6.721  -5.549  0.00  0.00    +0.000 HD
ATOM     10  H   UNL     1       9.889   7.028  -3.866  0.00  0.00    +0.000 HD
BRANCH   8  11
ATOM     11  C   UNL     1       9.612   8.758  -5.101  0.00  0.00    +0.000 C 
ATOM     12  H   UNL     1       9.625   8.923  -6.184  0.00  0.00    +0.000 HD
ATOM     13  H   UNL     1      10.085   9.622  -4.623  0.00  0.00    +0.000 HD
ATOM     14  H   UNL     1       8.566   8.718  -4.780  0.00  0.00    +0.000 HD
ENDBRANCH   8  11
ENDBRANCH   5   8
ENDBRANCH   1   4
BRANCH   1  15
ATOM     15  C   UNL     1      12.652   4.600  -2.982  0.00  0.00    +0.000 C 
ATOM     16  H   UNL     1      13.310   4.376  -2.134  0.00  0.00    +0.000 HD
ATOM     17  H   UNL     1      11.926   3.784  -3.087  0.00  0.00    +0.000 HD
BRANCH  15  18
ATOM     18  O   UNL     1      13.429   4.702  -4.169  0.00  0.00    +0.000 OA
BRANCH  18  20
ATOM     19  O   UNL     1      15.086   3.403  -3.219  0.00  0.00    +0.000 OA
ATOM     20  C   UNL     1      14.638   4.064  -4.147  0.00  0.00    +0.000 C 
BRANCH  20  21
ATOM     21  C   UNL     1      15.357   4.289  -5.442  0.00  0.00    +0.000 C 
ATOM     22  H   UNL     1      15.792   5.292  -5.454  0.00  0.00    +0.000 HD
ATOM     23  H   UNL     1      14.665   4.159  -6.277  0.00  0.00    +0.000 HD
ATOM     24  H   UNL     1      16.164   3.557  -5.540  0.00  0.00    +0.000 HD
ENDBRANCH  20  21
ENDBRANCH  18  20
ENDBRANCH  15  18
ENDBRANCH   1  15
TORSDOF 7
ENDMDL
MODEL 7
REMARK VINA RESULT:    -4.057      7.054      7.652
REMARK INTER + INTRA:          -5.757
REMARK INTER:                  -5.462
REMARK INTRA:                  -0.295
REMARK UNBOUND:                -0.276
REMARK  Name = 5363388
REMARK  7 active torsions:
REMARK  status: ('A' for Active; 'I' for Inactive)
REMARK    1  A    between atoms: O_1  and  C_4
REMARK    2  A    between atoms: O_1  and  C_9
REMARK    3  A    between atoms: C_3  and  C_4
REMARK    4  A    between atoms: C_3  and  C_5
REMARK    5  A    between atoms: C_6  and  C_7
REMARK    6  A    between atoms: C_6  and  C_8
REMARK    7  A    between atoms: C_9  and  C_10
REMARK                            x       y       z     vdW  Elec       q    Type
REMARK                         _______ _______ _______ _____ _____    ______ ____
ROOT
ATOM      1  C   UNL     1       8.252   0.106  -2.909  0.00  0.00    +0.000 C 
ATOM      2  H   UNL     1       8.800   0.880  -3.462  0.00  0.00    +0.000 HD
ATOM      3  H   UNL     1       8.281  -0.790  -3.535  0.00  0.00    +0.000 HD
ENDROOT
BRANCH   1   4
ATOM      4  C   UNL     1       6.859   0.612  -2.664  0.00  0.00    +0.000 C 
ATOM      5  C   UNL     1       5.832   0.408  -3.503  0.00  0.00    +0.000 C 
ATOM      6  H   UNL     1       6.686   1.186  -1.758  0.00  0.00    +0.000 HD
ATOM      7  H   UNL     1       4.861   0.828  -3.254  0.00  0.00    +0.000 HD
BRANCH   5   8
ATOM      8  C   UNL     1       5.947  -0.351  -4.792  0.00  0.00    +0.000 C 
ATOM      9  H   UNL     1       6.985  -0.533  -5.084  0.00  0.00    +0.000 HD
ATOM     10  H   UNL     1       5.515  -1.347  -4.635  0.00  0.00    +0.000 HD
BRANCH   8  11
ATOM     11  C   UNL     1       5.184   0.343  -5.912  0.00  0.00    +0.000 C 
ATOM     12  H   UNL     1       5.850   1.022  -6.454  0.00  0.00    +0.000 HD
ATOM     13  H   UNL     1       4.348   0.932  -5.521  0.00  0.00    +0.000 HD
ATOM     14  H   UNL     1       4.786  -0.382  -6.630  0.00  0.00    +0.000 HD
ENDBRANCH   8  11
ENDBRANCH   5   8
ENDBRANCH   1   4
BRANCH   1  15
ATOM     15  C   UNL     1       8.987  -0.178  -1.606  0.00  0.00    +0.000 C 
ATOM     16  H   UNL     1       8.283  -0.589  -0.874  0.00  0.00    +0.000 HD
ATOM     17  H   UNL     1       9.788  -0.909  -1.773  0.00  0.00    +0.000 HD
BRANCH  15  18
ATOM     18  O   UNL     1       9.544   1.029  -1.099  0.00  0.00    +0.000 OA
BRANCH  18  20
ATOM     19  O   UNL     1       9.345   0.739   1.184  0.00  0.00    +0.000 OA
ATOM     20  C   UNL     1       9.151   1.384   0.162  0.00  0.00    +0.000 C 
BRANCH  20  21
ATOM     21  C   UNL     1       8.435   2.699   0.122  0.00  0.00    +0.000 C 
ATOM     22  H   UNL     1       8.982   3.436   0.716  0.00  0.00    +0.000 HD
ATOM     23  H   UNL     1       7.417   2.578   0.501  0.00  0.00    +0.000 HD
ATOM     24  H   UNL     1       8.384   3.053  -0.912  0.00  0.00    +0.000 HD
ENDBRANCH  20  21
ENDBRANCH  18  20
ENDBRANCH  15  18
ENDBRANCH   1  15
TORSDOF 7
ENDMDL
MODEL 8
REMARK VINA RESULT:    -3.753     26.232     28.464
REMARK INTER + INTRA:          -5.346
REMARK INTER:                  -5.134
REMARK INTRA:                  -0.212
REMARK UNBOUND:                -0.276
REMARK  Name = 5363388
REMARK  7 active torsions:
REMARK  status: ('A' for Active; 'I' for Inactive)
REMARK    1  A    between atoms: O_1  and  C_4
REMARK    2  A    between atoms: O_1  and  C_9
REMARK    3  A    between atoms: C_3  and  C_4
REMARK    4  A    between atoms: C_3  and  C_5
REMARK    5  A    between atoms: C_6  and  C_7
REMARK    6  A    between atoms: C_6  and  C_8
REMARK    7  A    between atoms: C_9  and  C_10
REMARK                            x       y       z     vdW  Elec       q    Type
REMARK                         _______ _______ _______ _____ _____    ______ ____
ROOT
ATOM      1  C   UNL     1       0.444  -7.073  20.264  0.00  0.00    +0.000 C 
ATOM      2  H   UNL     1       0.511  -6.926  19.179  0.00  0.00    +0.000 HD
ATOM      3  H   UNL     1       0.679  -8.126  20.441  0.00  0.00    +0.000 HD
ENDROOT
BRANCH   1   4
ATOM      4  C   UNL     1      -0.945  -6.698  20.697  0.00  0.00    +0.000 C 
ATOM      5  C   UNL     1      -1.979  -7.553  20.714  0.00  0.00    +0.000 C 
ATOM      6  H   UNL     1      -1.114  -5.668  21.000  0.00  0.00    +0.000 HD
ATOM      7  H   UNL     1      -2.955  -7.188  21.023  0.00  0.00    +0.000 HD
BRANCH   5   8
ATOM      8  C   UNL     1      -1.878  -8.992  20.302  0.00  0.00    +0.000 C 
ATOM      9  H   UNL     1      -0.957  -9.210  19.753  0.00  0.00    +0.000 HD
ATOM     10  H   UNL     1      -1.818  -9.599  21.214  0.00  0.00    +0.000 HD
BRANCH   8  11
ATOM     11  C   UNL     1      -3.098  -9.425  19.503  0.00  0.00    +0.000 C 
ATOM     12  H   UNL     1      -3.677 -10.160  20.072  0.00  0.00    +0.000 HD
ATOM     13  H   UNL     1      -2.811  -9.886  18.552  0.00  0.00    +0.000 HD
ATOM     14  H   UNL     1      -3.754  -8.576  19.287  0.00  0.00    +0.000 HD
ENDBRANCH   8  11
ENDBRANCH   5   8
ENDBRANCH   1   4
BRANCH   1  15
ATOM     15  C   UNL     1       1.499  -6.210  20.942  0.00  0.00    +0.000 C 
ATOM     16  H   UNL     1       1.111  -5.192  21.066  0.00  0.00    +0.000 HD
ATOM     17  H   UNL     1       1.743  -6.615  21.932  0.00  0.00    +0.000 HD
BRANCH  15  18
ATOM     18  O   UNL     1       2.674  -6.174  20.142  0.00  0.00    +0.000 OA
BRANCH  18  20
ATOM     19  O   UNL     1       3.358  -3.974  20.307  0.00  0.00    +0.000 OA
ATOM     20  C   UNL     1       3.020  -4.947  19.646  0.00  0.00    +0.000 C 
BRANCH  20  21
ATOM     21  C   UNL     1       2.929  -4.956  18.151  0.00  0.00    +0.000 C 
ATOM     22  H   UNL     1       3.874  -5.305  17.725  0.00  0.00    +0.000 HD
ATOM     23  H   UNL     1       2.690  -3.953  17.788  0.00  0.00    +0.000 HD
ATOM     24  H   UNL     1       2.133  -5.639  17.840  0.00  0.00    +0.000 HD
ENDBRANCH  20  21
ENDBRANCH  18  20
ENDBRANCH  15  18
ENDBRANCH   1  15
TORSDOF 7
ENDMDL
MODEL 9
REMARK VINA RESULT:    -3.753      7.567      9.074
REMARK INTER + INTRA:          -5.346
REMARK INTER:                  -5.078
REMARK INTRA:                  -0.267
REMARK UNBOUND:                -0.276
REMARK  Name = 5363388
REMARK  7 active torsions:
REMARK  status: ('A' for Active; 'I' for Inactive)
REMARK    1  A    between atoms: O_1  and  C_4
REMARK    2  A    between atoms: O_1  and  C_9
REMARK    3  A    between atoms: C_3  and  C_4
REMARK    4  A    between atoms: C_3  and  C_5
REMARK    5  A    between atoms: C_6  and  C_7
REMARK    6  A    between atoms: C_6  and  C_8
REMARK    7  A    between atoms: C_9  and  C_10
REMARK                            x       y       z     vdW  Elec       q    Type
REMARK                         _______ _______ _______ _____ _____    ______ ____
ROOT
ATOM      1  C   UNL     1       6.997   0.789  -0.135  0.00  0.00    +0.000 C 
ATOM      2  H   UNL     1       6.331   1.659  -0.192  0.00  0.00    +0.000 HD
ATOM      3  H   UNL     1       6.735   0.269   0.790  0.00  0.00    +0.000 HD
ENDROOT
BRANCH   1   4
ATOM      4  C   UNL     1       8.413   1.289  -0.151  0.00  0.00    +0.000 C 
ATOM      5  C   UNL     1       9.372   0.845   0.677  0.00  0.00    +0.000 C 
ATOM      6  H   UNL     1       8.663   2.065  -0.871  0.00  0.00    +0.000 HD
ATOM      7  H   UNL     1      10.366   1.279   0.607  0.00  0.00    +0.000 HD
BRANCH   5   8
ATOM      8  C   UNL     1       9.148  -0.206   1.723  0.00  0.00    +0.000 C 
ATOM      9  H   UNL     1       9.723  -0.023   2.635  0.00  0.00    +0.000 HD
ATOM     10  H   UNL     1       8.097  -0.154   2.032  0.00  0.00    +0.000 HD
BRANCH   8  11
ATOM     11  C   UNL     1       9.430  -1.598   1.176  0.00  0.00    +0.000 C 
ATOM     12  H   UNL     1       9.456  -2.324   1.996  0.00  0.00    +0.000 HD
ATOM     13  H   UNL     1      10.395  -1.637   0.660  0.00  0.00    +0.000 HD
ATOM     14  H   UNL     1       8.652  -1.914   0.473  0.00  0.00    +0.000 HD
ENDBRANCH   8  11
ENDBRANCH   5   8
ENDBRANCH   1   4
BRANCH   1  15
ATOM     15  C   UNL     1       6.708  -0.128  -1.316  0.00  0.00    +0.000 C 
ATOM     16  H   UNL     1       7.298  -1.046  -1.216  0.00  0.00    +0.000 HD
ATOM     17  H   UNL     1       5.644  -0.395  -1.338  0.00  0.00    +0.000 HD
BRANCH  15  18
ATOM     18  O   UNL     1       7.058   0.529  -2.528  0.00  0.00    +0.000 OA
BRANCH  18  20
ATOM     19  O   UNL     1       5.185   1.235  -3.680  0.00  0.00    +0.000 OA
ATOM     20  C   UNL     1       6.128   0.470  -3.528  0.00  0.00    +0.000 C 
BRANCH  20  21
ATOM     21  C   UNL     1       6.426  -0.685  -4.435  0.00  0.00    +0.000 C 
ATOM     22  H   UNL     1       7.014  -1.435  -3.897  0.00  0.00    +0.000 HD
ATOM     23  H   UNL     1       6.966  -0.334  -5.318  0.00  0.00    +0.000 HD
ATOM     24  H   UNL     1       5.488  -1.144  -4.758  0.00  0.00    +0.000 HD
ENDBRANCH  20  21
ENDBRANCH  18  20
ENDBRANCH  15  18
ENDBRANCH   1  15
TORSDOF 7
ENDMDL
MODEL 10
REMARK VINA RESULT:    -3.691      6.935      8.395
REMARK INTER + INTRA:          -5.262
REMARK INTER:                  -4.986
REMARK INTRA:                  -0.276
REMARK UNBOUND:                -0.276
REMARK  Name = 5363388
REMARK  7 active torsions:
REMARK  status: ('A' for Active; 'I' for Inactive)
REMARK    1  A    between atoms: O_1  and  C_4
REMARK    2  A    between atoms: O_1  and  C_9
REMARK    3  A    between atoms: C_3  and  C_4
REMARK    4  A    between atoms: C_3  and  C_5
REMARK    5  A    between atoms: C_6  and  C_7
REMARK    6  A    between atoms: C_6  and  C_8
REMARK    7  A    between atoms: C_9  and  C_10
REMARK                            x       y       z     vdW  Elec       q    Type
REMARK                         _______ _______ _______ _____ _____    ______ ____
ROOT
ATOM      1  C   UNL     1       7.137   1.082   0.039  0.00  0.00    +0.000 C 
ATOM      2  H   UNL     1       6.516   1.150  -0.863  0.00  0.00    +0.000 HD
ATOM      3  H   UNL     1       6.541   1.509   0.850  0.00  0.00    +0.000 HD
ENDROOT
BRANCH   1   4
ATOM      4  C   UNL     1       8.411   1.836  -0.218  0.00  0.00    +0.000 C 
ATOM      5  C   UNL     1       8.541   3.161  -0.053  0.00  0.00    +0.000 C 
ATOM      6  H   UNL     1       9.268   1.267  -0.570  0.00  0.00    +0.000 HD
ATOM      7  H   UNL     1       9.496   3.626  -0.283  0.00  0.00    +0.000 HD
BRANCH   5   8
ATOM      8  C   UNL     1       7.430   4.057   0.408  0.00  0.00    +0.000 C 
ATOM      9  H   UNL     1       6.946   4.588  -0.416  0.00  0.00    +0.000 HD
ATOM     10  H   UNL     1       6.645   3.423   0.839  0.00  0.00    +0.000 HD
BRANCH   8  11
ATOM     11  C   UNL     1       7.912   5.032   1.472  0.00  0.00    +0.000 C 
ATOM     12  H   UNL     1       7.534   4.732   2.455  0.00  0.00    +0.000 HD
ATOM     13  H   UNL     1       7.558   6.049   1.272  0.00  0.00    +0.000 HD
ATOM     14  H   UNL     1       9.005   5.054   1.525  0.00  0.00    +0.000 HD
ENDBRANCH   8  11
ENDBRANCH   5   8
ENDBRANCH   1   4
BRANCH   1  15
ATOM     15  C   UNL     1       7.402  -0.387   0.341  0.00  0.00    +0.000 C 
ATOM     16  H   UNL     1       6.480  -0.960   0.193  0.00  0.00    +0.000 HD
ATOM     17  H   UNL     1       8.173  -0.781  -0.333  0.00  0.00    +0.000 HD
BRANCH  15  18
ATOM     18  O   UNL     1       7.834  -0.528   1.689  0.00  0.00    +0.000 OA
BRANCH  18  20
ATOM     19  O   UNL     1       9.503  -2.043   1.185  0.00  0.00    +0.000 OA
ATOM     20  C   UNL     1       9.047  -1.134   1.866  0.00  0.00    +0.000 C 
BRANCH  20  21
ATOM     21  C   UNL     1       9.757  -0.522   3.034  0.00  0.00    +0.000 C 
ATOM     22  H   UNL     1       9.293   0.435   3.290  0.00  0.00    +0.000 HD
ATOM     23  H   UNL     1      10.815  -0.383   2.793  0.00  0.00    +0.000 HD
ATOM     24  H   UNL     1       9.680  -1.189   3.897  0.00  0.00    +0.000 HD
ENDBRANCH  20  21
ENDBRANCH  18  20
ENDBRANCH  15  18
ENDBRANCH   1  15
TORSDOF 7
ENDMDL
