MODEL 1
REMARK VINA RESULT:    -5.585      0.000      0.000
REMARK INTER + INTRA:          -6.738
REMARK INTER:                  -6.531
REMARK INTRA:                  -0.207
REMARK UNBOUND:                -0.173
REMARK  Name = 17100
REMARK  5 active torsions:
REMARK  status: ('A' for Active; 'I' for Inactive)
REMARK    1  A    between atoms: O_1  and  C_3
REMARK    2  A    between atoms: C_2  and  C_3
REMARK    3  A    between atoms: C_3  and  C_9
REMARK    4  A    between atoms: C_3  and  C_10
REMARK    5  A    between atoms: C_7  and  C_11
REMARK                            x       y       z     vdW  Elec       q    Type
REMARK                         _______ _______ _______ _____ _____    ______ ____
ROOT
ATOM      1  C   UNL     1       7.257   0.169  -2.079  0.00  0.00    +0.000 C 
ATOM      2  C   UNL     1       6.345   1.359  -2.400  0.00  0.00    +0.000 C 
ATOM      3  C   UNL     1       8.010  -0.278  -3.341  0.00  0.00    +0.000 C 
ATOM      4  C   UNL     1       5.328   0.998  -3.488  0.00  0.00    +0.000 C 
ATOM      5  C   UNL     1       5.917   0.214  -4.633  0.00  0.00    +0.000 C 
ATOM      6  C   UNL     1       7.137  -0.346  -4.559  0.00  0.00    +0.000 C 
ATOM      7  H   UNL     1       6.616  -0.661  -1.749  0.00  0.00    +0.000 HD
ATOM      8  H   UNL     1       6.941   2.216  -2.738  0.00  0.00    +0.000 HD
ATOM      9  H   UNL     1       5.773   1.689  -1.527  0.00  0.00    +0.000 HD
ATOM     10  H   UNL     1       8.428  -1.279  -3.182  0.00  0.00    +0.000 HD
ATOM     11  H   UNL     1       8.850   0.388  -3.574  0.00  0.00    +0.000 HD
ATOM     12  H   UNL     1       4.880   1.926  -3.863  0.00  0.00    +0.000 HD
ATOM     13  H   UNL     1       4.517   0.406  -3.044  0.00  0.00    +0.000 HD
ATOM     14  H   UNL     1       7.536  -0.886  -5.413  0.00  0.00    +0.000 HD
ENDROOT
BRANCH   5  15
ATOM     15  C   UNL     1       5.061   0.092  -5.860  0.00  0.00    +0.000 C 
ATOM     16  H   UNL     1       4.084  -0.328  -5.600  0.00  0.00    +0.000 HD
ATOM     17  H   UNL     1       5.513  -0.558  -6.616  0.00  0.00    +0.000 HD
ATOM     18  H   UNL     1       4.907   1.076  -6.315  0.00  0.00    +0.000 HD
ENDBRANCH   5  15
BRANCH   1  19
ATOM     19  C   UNL     1       8.235   0.512  -0.957  0.00  0.00    +0.000 C 
BRANCH  19  20
ATOM     20  C   UNL     1       7.741   1.713  -0.151  0.00  0.00    +0.000 C 
ATOM     21  H   UNL     1       8.179   1.735   0.853  0.00  0.00    +0.000 HD
ATOM     22  H   UNL     1       6.651   1.684  -0.043  0.00  0.00    +0.000 HD
ATOM     23  H   UNL     1       7.956   2.661  -0.655  0.00  0.00    +0.000 HD
ENDBRANCH  19  20
BRANCH  19  24
ATOM     24  C   UNL     1       9.629   0.782  -1.522  0.00  0.00    +0.000 C 
ATOM     25  H   UNL     1      10.394   0.140  -1.071  0.00  0.00    +0.000 HD
ATOM     26  H   UNL     1       9.657   0.675  -2.611  0.00  0.00    +0.000 HD
ATOM     27  H   UNL     1       9.946   1.805  -1.282  0.00  0.00    +0.000 HD
ENDBRANCH  19  24
BRANCH  19  28
ATOM     28  O   UNL     1       8.336  -0.612  -0.082  0.00  0.00    +0.000 OA
ATOM     29  H   UNL     1       7.721  -0.473   0.658  0.00  0.00    +0.000 HD
ENDBRANCH  19  28
ENDBRANCH   1  19
TORSDOF 5
ENDMDL
MODEL 2
REMARK VINA RESULT:    -5.440      1.887      4.293
REMARK INTER + INTRA:          -6.568
REMARK INTER:                  -6.376
REMARK INTRA:                  -0.192
REMARK UNBOUND:                -0.173
REMARK  Name = 17100
REMARK  5 active torsions:
REMARK  status: ('A' for Active; 'I' for Inactive)
REMARK    1  A    between atoms: O_1  and  C_3
REMARK    2  A    between atoms: C_2  and  C_3
REMARK    3  A    between atoms: C_3  and  C_9
REMARK    4  A    between atoms: C_3  and  C_10
REMARK    5  A    between atoms: C_7  and  C_11
REMARK                            x       y       z     vdW  Elec       q    Type
REMARK                         _______ _______ _______ _____ _____    ______ ____
ROOT
ATOM      1  C   UNL     1       7.753  -0.469  -1.557  0.00  0.00    +0.000 C 
ATOM      2  C   UNL     1       9.148   0.164  -1.529  0.00  0.00    +0.000 C 
ATOM      3  C   UNL     1       6.691   0.599  -1.857  0.00  0.00    +0.000 C 
ATOM      4  C   UNL     1       9.234   1.267  -0.468  0.00  0.00    +0.000 C 
ATOM      5  C   UNL     1       8.031   2.176  -0.438  0.00  0.00    +0.000 C 
ATOM      6  C   UNL     1       6.892   1.868  -1.083  0.00  0.00    +0.000 C 
ATOM      7  H   UNL     1       7.554  -0.880  -0.556  0.00  0.00    +0.000 HD
ATOM      8  H   UNL     1       9.393   0.592  -2.509  0.00  0.00    +0.000 HD
ATOM      9  H   UNL     1       9.929  -0.565  -1.293  0.00  0.00    +0.000 HD
ATOM     10  H   UNL     1       5.699   0.211  -1.597  0.00  0.00    +0.000 HD
ATOM     11  H   UNL     1       6.665   0.863  -2.921  0.00  0.00    +0.000 HD
ATOM     12  H   UNL     1      10.141   1.855  -0.654  0.00  0.00    +0.000 HD
ATOM     13  H   UNL     1       9.346   0.808   0.523  0.00  0.00    +0.000 HD
ATOM     14  H   UNL     1       6.053   2.559  -1.055  0.00  0.00    +0.000 HD
ENDROOT
BRANCH   5  15
ATOM     15  C   UNL     1       8.178   3.441   0.355  0.00  0.00    +0.000 C 
ATOM     16  H   UNL     1       9.041   3.370   1.025  0.00  0.00    +0.000 HD
ATOM     17  H   UNL     1       7.295   3.649   0.968  0.00  0.00    +0.000 HD
ATOM     18  H   UNL     1       8.328   4.294  -0.315  0.00  0.00    +0.000 HD
ENDBRANCH   5  15
BRANCH   1  19
ATOM     19  C   UNL     1       7.684  -1.604  -2.576  0.00  0.00    +0.000 C 
BRANCH  19  20
ATOM     20  C   UNL     1       7.945  -1.084  -3.990  0.00  0.00    +0.000 C 
ATOM     21  H   UNL     1       7.672  -0.028  -4.091  0.00  0.00    +0.000 HD
ATOM     22  H   UNL     1       7.364  -1.655  -4.724  0.00  0.00    +0.000 HD
ATOM     23  H   UNL     1       8.991  -1.213  -4.288  0.00  0.00    +0.000 HD
ENDBRANCH  19  20
BRANCH  19  24
ATOM     24  C   UNL     1       6.330  -2.309  -2.506  0.00  0.00    +0.000 C 
ATOM     25  H   UNL     1       5.663  -2.016  -3.324  0.00  0.00    +0.000 HD
ATOM     26  H   UNL     1       6.437  -3.399  -2.495  0.00  0.00    +0.000 HD
ATOM     27  H   UNL     1       5.796  -2.020  -1.593  0.00  0.00    +0.000 HD
ENDBRANCH  19  24
BRANCH  19  28
ATOM     28  O   UNL     1       8.687  -2.568  -2.254  0.00  0.00    +0.000 OA
ATOM     29  H   UNL     1       9.336  -2.142  -1.669  0.00  0.00    +0.000 HD
ENDBRANCH  19  28
ENDBRANCH   1  19
TORSDOF 5
ENDMDL
MODEL 3
REMARK VINA RESULT:    -4.896      1.960      4.623
REMARK INTER + INTRA:          -5.928
REMARK INTER:                  -5.775
REMARK INTRA:                  -0.153
REMARK UNBOUND:                -0.173
REMARK  Name = 17100
REMARK  5 active torsions:
REMARK  status: ('A' for Active; 'I' for Inactive)
REMARK    1  A    between atoms: O_1  and  C_3
REMARK    2  A    between atoms: C_2  and  C_3
REMARK    3  A    between atoms: C_3  and  C_9
REMARK    4  A    between atoms: C_3  and  C_10
REMARK    5  A    between atoms: C_7  and  C_11
REMARK                            x       y       z     vdW  Elec       q    Type
REMARK                         _______ _______ _______ _____ _____    ______ ____
ROOT
ATOM      1  C   UNL     1       7.293  -0.173  -1.946  0.00  0.00    +0.000 C 
ATOM      2  C   UNL     1       6.852   0.666  -0.742  0.00  0.00    +0.000 C 
ATOM      3  C   UNL     1       7.911  -1.497  -1.473  0.00  0.00    +0.000 C 
ATOM      4  C   UNL     1       8.035   0.970   0.184  0.00  0.00    +0.000 C 
ATOM      5  C   UNL     1       8.937  -0.215   0.424  0.00  0.00    +0.000 C 
ATOM      6  C   UNL     1       8.860  -1.330  -0.323  0.00  0.00    +0.000 C 
ATOM      7  H   UNL     1       8.067   0.396  -2.482  0.00  0.00    +0.000 HD
ATOM      8  H   UNL     1       6.078   0.138  -0.171  0.00  0.00    +0.000 HD
ATOM      9  H   UNL     1       6.428   1.630  -1.041  0.00  0.00    +0.000 HD
ATOM     10  H   UNL     1       8.473  -1.953  -2.297  0.00  0.00    +0.000 HD
ATOM     11  H   UNL     1       7.145  -2.219  -1.166  0.00  0.00    +0.000 HD
ATOM     12  H   UNL     1       7.640   1.337   1.139  0.00  0.00    +0.000 HD
ATOM     13  H   UNL     1       8.636   1.780  -0.248  0.00  0.00    +0.000 HD
ATOM     14  H   UNL     1       9.513  -2.171  -0.106  0.00  0.00    +0.000 HD
ENDROOT
BRANCH   5  15
ATOM     15  C   UNL     1       9.925  -0.076   1.544  0.00  0.00    +0.000 C 
ATOM     16  H   UNL     1      10.374  -1.048   1.777  0.00  0.00    +0.000 HD
ATOM     17  H   UNL     1       9.460   0.304   2.461  0.00  0.00    +0.000 HD
ATOM     18  H   UNL     1      10.724   0.618   1.263  0.00  0.00    +0.000 HD
ENDBRANCH   5  15
BRANCH   1  19
ATOM     19  C   UNL     1       6.125  -0.428  -2.896  0.00  0.00    +0.000 C 
BRANCH  19  20
ATOM     20  C   UNL     1       6.542  -1.357  -4.037  0.00  0.00    +0.000 C 
ATOM     21  H   UNL     1       7.632  -1.406  -4.142  0.00  0.00    +0.000 HD
ATOM     22  H   UNL     1       6.127  -1.008  -4.989  0.00  0.00    +0.000 HD
ATOM     23  H   UNL     1       6.150  -2.370  -3.905  0.00  0.00    +0.000 HD
ENDBRANCH  19  20
BRANCH  19  24
ATOM     24  C   UNL     1       5.582   0.888  -3.449  0.00  0.00    +0.000 C 
ATOM     25  H   UNL     1       6.355   1.483  -3.948  0.00  0.00    +0.000 HD
ATOM     26  H   UNL     1       4.744   0.729  -4.135  0.00  0.00    +0.000 HD
ATOM     27  H   UNL     1       5.223   1.527  -2.631  0.00  0.00    +0.000 HD
ENDBRANCH  19  24
BRANCH  19  28
ATOM     28  O   UNL     1       5.070  -1.054  -2.164  0.00  0.00    +0.000 OA
ATOM     29  H   UNL     1       5.410  -1.280  -1.281  0.00  0.00    +0.000 HD
ENDBRANCH  19  28
ENDBRANCH   1  19
TORSDOF 5
ENDMDL
MODEL 4
REMARK VINA RESULT:    -4.641     16.032     17.680
REMARK INTER + INTRA:          -5.629
REMARK INTER:                  -5.420
REMARK INTRA:                  -0.209
REMARK UNBOUND:                -0.173
REMARK  Name = 17100
REMARK  5 active torsions:
REMARK  status: ('A' for Active; 'I' for Inactive)
REMARK    1  A    between atoms: O_1  and  C_3
REMARK    2  A    between atoms: C_2  and  C_3
REMARK    3  A    between atoms: C_3  and  C_9
REMARK    4  A    between atoms: C_3  and  C_10
REMARK    5  A    between atoms: C_7  and  C_11
REMARK                            x       y       z     vdW  Elec       q    Type
REMARK                         _______ _______ _______ _____ _____    ______ ____
ROOT
ATOM      1  C   UNL     1      -1.792 -13.907  -7.331  0.00  0.00    +0.000 C 
ATOM      2  C   UNL     1      -0.847 -12.892  -7.984  0.00  0.00    +0.000 C 
ATOM      3  C   UNL     1      -1.654 -15.277  -8.013  0.00  0.00    +0.000 C 
ATOM      4  C   UNL     1      -1.149 -12.738  -9.479  0.00  0.00    +0.000 C 
ATOM      5  C   UNL     1      -1.398 -14.048 -10.185  0.00  0.00    +0.000 C 
ATOM      6  C   UNL     1      -1.610 -15.190  -9.510  0.00  0.00    +0.000 C 
ATOM      7  H   UNL     1      -2.821 -13.550  -7.483  0.00  0.00    +0.000 HD
ATOM      8  H   UNL     1       0.196 -13.207  -7.860  0.00  0.00    +0.000 HD
ATOM      9  H   UNL     1      -0.938 -11.897  -7.538  0.00  0.00    +0.000 HD
ATOM     10  H   UNL     1      -2.511 -15.906  -7.746  0.00  0.00    +0.000 HD
ATOM     11  H   UNL     1      -0.751 -15.807  -7.687  0.00  0.00    +0.000 HD
ATOM     12  H   UNL     1      -0.307 -12.216  -9.948  0.00  0.00    +0.000 HD
ATOM     13  H   UNL     1      -2.034 -12.102  -9.607  0.00  0.00    +0.000 HD
ATOM     14  H   UNL     1      -1.765 -16.118 -10.055  0.00  0.00    +0.000 HD
ENDROOT
BRANCH   5  15
ATOM     15  C   UNL     1      -1.396 -13.999 -11.685  0.00  0.00    +0.000 C 
ATOM     16  H   UNL     1      -0.526 -14.533 -12.080  0.00  0.00    +0.000 HD
ATOM     17  H   UNL     1      -1.359 -12.972 -12.065  0.00  0.00    +0.000 HD
ATOM     18  H   UNL     1      -2.303 -14.468 -12.081  0.00  0.00    +0.000 HD
ENDBRANCH   5  15
BRANCH   1  19
ATOM     19  C   UNL     1      -1.528 -14.020  -5.831  0.00  0.00    +0.000 C 
BRANCH  19  20
ATOM     20  C   UNL     1      -0.603 -12.900  -5.354  0.00  0.00    +0.000 C 
ATOM     21  H   UNL     1       0.289 -12.815  -5.983  0.00  0.00    +0.000 HD
ATOM     22  H   UNL     1      -0.274 -13.083  -4.324  0.00  0.00    +0.000 HD
ATOM     23  H   UNL     1      -1.113 -11.932  -5.325  0.00  0.00    +0.000 HD
ENDBRANCH  19  20
BRANCH  19  24
ATOM     24  C   UNL     1      -0.935 -15.386  -5.490  0.00  0.00    +0.000 C 
ATOM     25  H   UNL     1      -0.117 -15.318  -4.764  0.00  0.00    +0.000 HD
ATOM     26  H   UNL     1      -1.695 -16.081  -5.119  0.00  0.00    +0.000 HD
ATOM     27  H   UNL     1      -0.480 -15.838  -6.380  0.00  0.00    +0.000 HD
ENDBRANCH  19  24
BRANCH  19  28
ATOM     28  O   UNL     1      -2.772 -13.907  -5.139  0.00  0.00    +0.000 OA
ATOM     29  H   UNL     1      -2.687 -13.196  -4.481  0.00  0.00    +0.000 HD
ENDBRANCH  19  28
ENDBRANCH   1  19
TORSDOF 5
ENDMDL
MODEL 5
REMARK VINA RESULT:    -4.633      1.669      2.162
REMARK INTER + INTRA:          -5.619
REMARK INTER:                  -5.455
REMARK INTRA:                  -0.164
REMARK UNBOUND:                -0.173
REMARK  Name = 17100
REMARK  5 active torsions:
REMARK  status: ('A' for Active; 'I' for Inactive)
REMARK    1  A    between atoms: O_1  and  C_3
REMARK    2  A    between atoms: C_2  and  C_3
REMARK    3  A    between atoms: C_3  and  C_9
REMARK    4  A    between atoms: C_3  and  C_10
REMARK    5  A    between atoms: C_7  and  C_11
REMARK                            x       y       z     vdW  Elec       q    Type
REMARK                         _______ _______ _______ _____ _____    ______ ____
ROOT
ATOM      1  C   UNL     1       7.637  -0.730  -1.026  0.00  0.00    +0.000 C 
ATOM      2  C   UNL     1       6.186  -0.261  -1.178  0.00  0.00    +0.000 C 
ATOM      3  C   UNL     1       8.521  -0.078  -2.100  0.00  0.00    +0.000 C 
ATOM      4  C   UNL     1       5.632  -0.614  -2.563  0.00  0.00    +0.000 C 
ATOM      5  C   UNL     1       6.598  -0.343  -3.689  0.00  0.00    +0.000 C 
ATOM      6  C   UNL     1       7.898  -0.088  -3.465  0.00  0.00    +0.000 C 
ATOM      7  H   UNL     1       7.653  -1.819  -1.182  0.00  0.00    +0.000 HD
ATOM      8  H   UNL     1       6.118   0.825  -1.033  0.00  0.00    +0.000 HD
ATOM      9  H   UNL     1       5.521  -0.725  -0.443  0.00  0.00    +0.000 HD
ATOM     10  H   UNL     1       9.471  -0.621  -2.170  0.00  0.00    +0.000 HD
ATOM     11  H   UNL     1       8.762   0.963  -1.855  0.00  0.00    +0.000 HD
ATOM     12  H   UNL     1       4.707  -0.047  -2.720  0.00  0.00    +0.000 HD
ATOM     13  H   UNL     1       5.365  -1.679  -2.586  0.00  0.00    +0.000 HD
ATOM     14  H   UNL     1       8.560   0.123  -4.302  0.00  0.00    +0.000 HD
ENDROOT
BRANCH   5  15
ATOM     15  C   UNL     1       6.023  -0.378  -5.075  0.00  0.00    +0.000 C 
ATOM     16  H   UNL     1       6.738   0.038  -5.792  0.00  0.00    +0.000 HD
ATOM     17  H   UNL     1       5.097   0.203  -5.152  0.00  0.00    +0.000 HD
ATOM     18  H   UNL     1       5.796  -1.408  -5.367  0.00  0.00    +0.000 HD
ENDBRANCH   5  15
BRANCH   1  19
ATOM     19  C   UNL     1       8.170  -0.426   0.373  0.00  0.00    +0.000 C 
BRANCH  19  20
ATOM     20  C   UNL     1       9.060  -1.562   0.876  0.00  0.00    +0.000 C 
ATOM     21  H   UNL     1       8.900  -2.485   0.309  0.00  0.00    +0.000 HD
ATOM     22  H   UNL     1       8.854  -1.775   1.932  0.00  0.00    +0.000 HD
ATOM     23  H   UNL     1      10.122  -1.298   0.838  0.00  0.00    +0.000 HD
ENDBRANCH  19  20
BRANCH  19  24
ATOM     24  C   UNL     1       7.018  -0.176   1.345  0.00  0.00    +0.000 C 
ATOM     25  H   UNL     1       6.312  -1.012   1.381  0.00  0.00    +0.000 HD
ATOM     26  H   UNL     1       7.377   0.042   2.356  0.00  0.00    +0.000 HD
ATOM     27  H   UNL     1       6.419   0.682   1.015  0.00  0.00    +0.000 HD
ENDBRANCH  19  24
BRANCH  19  28
ATOM     28  O   UNL     1       8.949   0.770   0.314  0.00  0.00    +0.000 OA
ATOM     29  H   UNL     1       9.054   1.014  -0.622  0.00  0.00    +0.000 HD
ENDBRANCH  19  28
ENDBRANCH   1  19
TORSDOF 5
ENDMDL
MODEL 6
REMARK VINA RESULT:    -4.588     25.971     27.275
REMARK INTER + INTRA:          -5.566
REMARK INTER:                  -5.387
REMARK INTRA:                  -0.179
REMARK UNBOUND:                -0.173
REMARK  Name = 17100
REMARK  5 active torsions:
REMARK  status: ('A' for Active; 'I' for Inactive)
REMARK    1  A    between atoms: O_1  and  C_3
REMARK    2  A    between atoms: C_2  and  C_3
REMARK    3  A    between atoms: C_3  and  C_9
REMARK    4  A    between atoms: C_3  and  C_10
REMARK    5  A    between atoms: C_7  and  C_11
REMARK                            x       y       z     vdW  Elec       q    Type
REMARK                         _______ _______ _______ _____ _____    ______ ____
ROOT
ATOM      1  C   UNL     1     -17.301  -9.987   1.575  0.00  0.00    +0.000 C 
ATOM      2  C   UNL     1     -16.786 -11.387   1.924  0.00  0.00    +0.000 C 
ATOM      3  C   UNL     1     -17.364  -9.114   2.838  0.00  0.00    +0.000 C 
ATOM      4  C   UNL     1     -17.691 -12.068   2.957  0.00  0.00    +0.000 C 
ATOM      5  C   UNL     1     -18.119 -11.158   4.081  0.00  0.00    +0.000 C 
ATOM      6  C   UNL     1     -17.953  -9.826   4.020  0.00  0.00    +0.000 C 
ATOM      7  H   UNL     1     -18.322 -10.096   1.182  0.00  0.00    +0.000 HD
ATOM      8  H   UNL     1     -15.766 -11.330   2.325  0.00  0.00    +0.000 HD
ATOM      9  H   UNL     1     -16.751 -12.045   1.050  0.00  0.00    +0.000 HD
ATOM     10  H   UNL     1     -17.987  -8.233   2.643  0.00  0.00    +0.000 HD
ATOM     11  H   UNL     1     -16.373  -8.749   3.133  0.00  0.00    +0.000 HD
ATOM     12  H   UNL     1     -17.158 -12.937   3.363  0.00  0.00    +0.000 HD
ATOM     13  H   UNL     1     -18.591 -12.447   2.457  0.00  0.00    +0.000 HD
ATOM     14  H   UNL     1     -18.255  -9.205   4.860  0.00  0.00    +0.000 HD
ENDROOT
BRANCH   5  15
ATOM     15  C   UNL     1     -18.745 -11.827   5.270  0.00  0.00    +0.000 C 
ATOM     16  H   UNL     1     -19.773 -12.125   5.040  0.00  0.00    +0.000 HD
ATOM     17  H   UNL     1     -18.776 -11.168   6.145  0.00  0.00    +0.000 HD
ATOM     18  H   UNL     1     -18.176 -12.721   5.546  0.00  0.00    +0.000 HD
ENDBRANCH   5  15
BRANCH   1  19
ATOM     19  C   UNL     1     -16.430  -9.330   0.506  0.00  0.00    +0.000 C 
BRANCH  19  20
ATOM     20  C   UNL     1     -17.100  -9.406  -0.866  0.00  0.00    +0.000 C 
ATOM     21  H   UNL     1     -16.752 -10.271  -1.440  0.00  0.00    +0.000 HD
ATOM     22  H   UNL     1     -16.885  -8.503  -1.450  0.00  0.00    +0.000 HD
ATOM     23  H   UNL     1     -18.191  -9.445  -0.787  0.00  0.00    +0.000 HD
ENDBRANCH  19  20
BRANCH  19  24
ATOM     24  C   UNL     1     -15.048  -9.980   0.464  0.00  0.00    +0.000 C 
ATOM     25  H   UNL     1     -14.965 -10.832   1.147  0.00  0.00    +0.000 HD
ATOM     26  H   UNL     1     -14.775 -10.297  -0.548  0.00  0.00    +0.000 HD
ATOM     27  H   UNL     1     -14.282  -9.273   0.806  0.00  0.00    +0.000 HD
ENDBRANCH  19  24
BRANCH  19  28
ATOM     28  O   UNL     1     -16.247  -7.956   0.848  0.00  0.00    +0.000 OA
ATOM     29  H   UNL     1     -15.316  -7.727   0.685  0.00  0.00    +0.000 HD
ENDBRANCH  19  28
ENDBRANCH   1  19
TORSDOF 5
ENDMDL
MODEL 7
REMARK VINA RESULT:    -4.443     25.598     26.396
REMARK INTER + INTRA:          -5.396
REMARK INTER:                  -5.218
REMARK INTRA:                  -0.177
REMARK UNBOUND:                -0.173
REMARK  Name = 17100
REMARK  5 active torsions:
REMARK  status: ('A' for Active; 'I' for Inactive)
REMARK    1  A    between atoms: O_1  and  C_3
REMARK    2  A    between atoms: C_2  and  C_3
REMARK    3  A    between atoms: C_3  and  C_9
REMARK    4  A    between atoms: C_3  and  C_10
REMARK    5  A    between atoms: C_7  and  C_11
REMARK                            x       y       z     vdW  Elec       q    Type
REMARK                         _______ _______ _______ _____ _____    ______ ____
ROOT
ATOM      1  C   UNL     1      -1.651  -9.553  20.315  0.00  0.00    +0.000 C 
ATOM      2  C   UNL     1      -0.216  -9.700  19.795  0.00  0.00    +0.000 C 
ATOM      3  C   UNL     1      -2.137  -8.107  20.128  0.00  0.00    +0.000 C 
ATOM      4  C   UNL     1       0.738  -8.752  20.530  0.00  0.00    +0.000 C 
ATOM      5  C   UNL     1       0.183  -7.364  20.726  0.00  0.00    +0.000 C 
ATOM      6  C   UNL     1      -1.116  -7.083  20.527  0.00  0.00    +0.000 C 
ATOM      7  H   UNL     1      -1.639  -9.775  21.392  0.00  0.00    +0.000 HD
ATOM      8  H   UNL     1      -0.176  -9.485  18.720  0.00  0.00    +0.000 HD
ATOM      9  H   UNL     1       0.172 -10.713  19.935  0.00  0.00    +0.000 HD
ATOM     10  H   UNL     1      -3.028  -7.939  20.746  0.00  0.00    +0.000 HD
ATOM     11  H   UNL     1      -2.422  -7.902  19.089  0.00  0.00    +0.000 HD
ATOM     12  H   UNL     1       1.677  -8.702  19.965  0.00  0.00    +0.000 HD
ATOM     13  H   UNL     1       0.978  -9.171  21.515  0.00  0.00    +0.000 HD
ATOM     14  H   UNL     1      -1.475  -6.065  20.658  0.00  0.00    +0.000 HD
ENDROOT
BRANCH   5  15
ATOM     15  C   UNL     1       1.165  -6.315  21.158  0.00  0.00    +0.000 C 
ATOM     16  H   UNL     1       1.899  -6.134  20.367  0.00  0.00    +0.000 HD
ATOM     17  H   UNL     1       1.713  -6.609  22.061  0.00  0.00    +0.000 HD
ATOM     18  H   UNL     1       0.647  -5.375  21.375  0.00  0.00    +0.000 HD
ENDBRANCH   5  15
BRANCH   1  19
ATOM     19  C   UNL     1      -2.592 -10.535  19.620  0.00  0.00    +0.000 C 
BRANCH  19  20
ATOM     20  C   UNL     1      -2.975 -11.679  20.558  0.00  0.00    +0.000 C 
ATOM     21  H   UNL     1      -4.049 -11.682  20.777  0.00  0.00    +0.000 HD
ATOM     22  H   UNL     1      -2.437 -11.596  21.509  0.00  0.00    +0.000 HD
ATOM     23  H   UNL     1      -2.692 -12.655  20.152  0.00  0.00    +0.000 HD
ENDBRANCH  19  20
BRANCH  19  24
ATOM     24  C   UNL     1      -1.954 -11.080  18.343  0.00  0.00    +0.000 C 
ATOM     25  H   UNL     1      -2.524 -11.911  17.913  0.00  0.00    +0.000 HD
ATOM     26  H   UNL     1      -1.820 -10.299  17.588  0.00  0.00    +0.000 HD
ATOM     27  H   UNL     1      -0.965 -11.503  18.560  0.00  0.00    +0.000 HD
ENDBRANCH  19  24
BRANCH  19  28
ATOM     28  O   UNL     1      -3.780  -9.839  19.243  0.00  0.00    +0.000 OA
ATOM     29  H   UNL     1      -4.074  -9.310  20.005  0.00  0.00    +0.000 HD
ENDBRANCH  19  28
ENDBRANCH   1  19
TORSDOF 5
ENDMDL
MODEL 8
REMARK VINA RESULT:    -4.434     23.857     25.917
REMARK INTER + INTRA:          -5.385
REMARK INTER:                  -5.177
REMARK INTRA:                  -0.208
REMARK UNBOUND:                -0.173
REMARK  Name = 17100
REMARK  5 active torsions:
REMARK  status: ('A' for Active; 'I' for Inactive)
REMARK    1  A    between atoms: O_1  and  C_3
REMARK    2  A    between atoms: C_2  and  C_3
REMARK    3  A    between atoms: C_3  and  C_9
REMARK    4  A    between atoms: C_3  and  C_10
REMARK    5  A    between atoms: C_7  and  C_11
REMARK                            x       y       z     vdW  Elec       q    Type
REMARK                         _______ _______ _______ _____ _____    ______ ____
ROOT
ATOM      1  C   UNL     1       6.586 -11.709 -25.348  0.00  0.00    +0.000 C 
ATOM      2  C   UNL     1       6.945 -10.244 -25.622  0.00  0.00    +0.000 C 
ATOM      3  C   UNL     1       5.087 -11.942 -25.591  0.00  0.00    +0.000 C 
ATOM      4  C   UNL     1       6.141  -9.300 -24.723  0.00  0.00    +0.000 C 
ATOM      5  C   UNL     1       4.684  -9.672 -24.601  0.00  0.00    +0.000 C 
ATOM      6  C   UNL     1       4.219 -10.865 -25.011  0.00  0.00    +0.000 C 
ATOM      7  H   UNL     1       6.797 -11.911 -24.288  0.00  0.00    +0.000 HD
ATOM      8  H   UNL     1       6.748  -9.993 -26.672  0.00  0.00    +0.000 HD
ATOM      9  H   UNL     1       8.003 -10.036 -25.435  0.00  0.00    +0.000 HD
ATOM     10  H   UNL     1       4.785 -12.890 -25.129  0.00  0.00    +0.000 HD
ATOM     11  H   UNL     1       4.852 -12.015 -26.660  0.00  0.00    +0.000 HD
ATOM     12  H   UNL     1       6.233  -8.282 -25.121  0.00  0.00    +0.000 HD
ATOM     13  H   UNL     1       6.581  -9.293 -23.718  0.00  0.00    +0.000 HD
ATOM     14  H   UNL     1       3.158 -11.089 -24.926  0.00  0.00    +0.000 HD
ENDROOT
BRANCH   5  15
ATOM     15  C   UNL     1       3.786  -8.635 -23.994  0.00  0.00    +0.000 C 
ATOM     16  H   UNL     1       2.811  -9.072 -23.752  0.00  0.00    +0.000 HD
ATOM     17  H   UNL     1       3.614  -7.790 -24.671  0.00  0.00    +0.000 HD
ATOM     18  H   UNL     1       4.229  -8.240 -23.074  0.00  0.00    +0.000 HD
ENDBRANCH   5  15
BRANCH   1  19
ATOM     19  C   UNL     1       7.427 -12.652 -26.205  0.00  0.00    +0.000 C 
BRANCH  19  20
ATOM     20  C   UNL     1       8.653 -11.933 -26.766  0.00  0.00    +0.000 C 
ATOM     21  H   UNL     1       9.487 -12.623 -26.935  0.00  0.00    +0.000 HD
ATOM     22  H   UNL     1       8.994 -11.154 -26.074  0.00  0.00    +0.000 HD
ATOM     23  H   UNL     1       8.429 -11.409 -27.701  0.00  0.00    +0.000 HD
ENDBRANCH  19  20
BRANCH  19  24
ATOM     24  C   UNL     1       6.588 -13.243 -27.337  0.00  0.00    +0.000 C 
ATOM     25  H   UNL     1       5.952 -12.494 -27.821  0.00  0.00    +0.000 HD
ATOM     26  H   UNL     1       7.209 -13.737 -28.092  0.00  0.00    +0.000 HD
ATOM     27  H   UNL     1       5.888 -13.991 -26.944  0.00  0.00    +0.000 HD
ENDBRANCH  19  24
BRANCH  19  28
ATOM     28  O   UNL     1       7.870 -13.737 -25.389  0.00  0.00    +0.000 OA
ATOM     29  H   UNL     1       8.842 -13.705 -25.348  0.00  0.00    +0.000 HD
ENDBRANCH  19  28
ENDBRANCH   1  19
TORSDOF 5
ENDMDL
MODEL 9
REMARK VINA RESULT:    -4.311     25.952     27.170
REMARK INTER + INTRA:          -5.241
REMARK INTER:                  -5.068
REMARK INTRA:                  -0.173
REMARK UNBOUND:                -0.173
REMARK  Name = 17100
REMARK  5 active torsions:
REMARK  status: ('A' for Active; 'I' for Inactive)
REMARK    1  A    between atoms: O_1  and  C_3
REMARK    2  A    between atoms: C_2  and  C_3
REMARK    3  A    between atoms: C_3  and  C_9
REMARK    4  A    between atoms: C_3  and  C_10
REMARK    5  A    between atoms: C_7  and  C_11
REMARK                            x       y       z     vdW  Elec       q    Type
REMARK                         _______ _______ _______ _____ _____    ______ ____
ROOT
ATOM      1  C   UNL     1     -17.018 -10.916   1.715  0.00  0.00    +0.000 C 
ATOM      2  C   UNL     1     -18.491 -10.902   1.293  0.00  0.00    +0.000 C 
ATOM      3  C   UNL     1     -16.343  -9.590   1.331  0.00  0.00    +0.000 C 
ATOM      4  C   UNL     1     -18.632 -10.688  -0.219  0.00  0.00    +0.000 C 
ATOM      5  C   UNL     1     -17.716  -9.624  -0.769  0.00  0.00    +0.000 C 
ATOM      6  C   UNL     1     -16.693  -9.126  -0.052  0.00  0.00    +0.000 C 
ATOM      7  H   UNL     1     -16.521 -11.726   1.162  0.00  0.00    +0.000 HD
ATOM      8  H   UNL     1     -19.031 -10.104   1.818  0.00  0.00    +0.000 HD
ATOM      9  H   UNL     1     -18.998 -11.842   1.529  0.00  0.00    +0.000 HD
ATOM     10  H   UNL     1     -15.253  -9.710   1.370  0.00  0.00    +0.000 HD
ATOM     11  H   UNL     1     -16.603  -8.782   2.026  0.00  0.00    +0.000 HD
ATOM     12  H   UNL     1     -19.675 -10.430  -0.435  0.00  0.00    +0.000 HD
ATOM     13  H   UNL     1     -18.419 -11.630  -0.739  0.00  0.00    +0.000 HD
ATOM     14  H   UNL     1     -16.067  -8.344  -0.475  0.00  0.00    +0.000 HD
ENDROOT
BRANCH   5  15
ATOM     15  C   UNL     1     -18.011  -9.155  -2.163  0.00  0.00    +0.000 C 
ATOM     16  H   UNL     1     -17.257  -8.429  -2.486  0.00  0.00    +0.000 HD
ATOM     17  H   UNL     1     -18.992  -8.673  -2.238  0.00  0.00    +0.000 HD
ATOM     18  H   UNL     1     -18.001 -10.001  -2.859  0.00  0.00    +0.000 HD
ENDBRANCH   5  15
BRANCH   1  19
ATOM     19  C   UNL     1     -16.876 -11.183   3.211  0.00  0.00    +0.000 C 
BRANCH  19  20
ATOM     20  C   UNL     1     -16.098 -12.474   3.465  0.00  0.00    +0.000 C 
ATOM     21  H   UNL     1     -15.405 -12.697   2.647  0.00  0.00    +0.000 HD
ATOM     22  H   UNL     1     -16.784 -13.323   3.567  0.00  0.00    +0.000 HD
ATOM     23  H   UNL     1     -15.541 -12.439   4.406  0.00  0.00    +0.000 HD
ENDBRANCH  19  20
BRANCH  19  24
ATOM     24  C   UNL     1     -18.249 -11.244   3.880  0.00  0.00    +0.000 C 
ATOM     25  H   UNL     1     -18.855 -10.356   3.671  0.00  0.00    +0.000 HD
ATOM     26  H   UNL     1     -18.804 -12.142   3.591  0.00  0.00    +0.000 HD
ATOM     27  H   UNL     1     -18.142 -11.259   4.972  0.00  0.00    +0.000 HD
ENDBRANCH  19  24
BRANCH  19  28
ATOM     28  O   UNL     1     -16.159 -10.098   3.802  0.00  0.00    +0.000 OA
ATOM     29  H   UNL     1     -15.509 -10.469   4.423  0.00  0.00    +0.000 HD
ENDBRANCH  19  28
ENDBRANCH   1  19
TORSDOF 5
ENDMDL
MODEL 10
REMARK VINA RESULT:    -4.285     15.485     16.878
REMARK INTER + INTRA:          -5.210
REMARK INTER:                  -5.034
REMARK INTRA:                  -0.175
REMARK UNBOUND:                -0.173
REMARK  Name = 17100
REMARK  5 active torsions:
REMARK  status: ('A' for Active; 'I' for Inactive)
REMARK    1  A    between atoms: O_1  and  C_3
REMARK    2  A    between atoms: C_2  and  C_3
REMARK    3  A    between atoms: C_3  and  C_9
REMARK    4  A    between atoms: C_3  and  C_10
REMARK    5  A    between atoms: C_7  and  C_11
REMARK                            x       y       z     vdW  Elec       q    Type
REMARK                         _______ _______ _______ _____ _____    ______ ____
ROOT
ATOM      1  C   UNL     1       4.086  13.290 -12.931  0.00  0.00    +0.000 C 
ATOM      2  C   UNL     1       3.783  12.188 -11.910  0.00  0.00    +0.000 C 
ATOM      3  C   UNL     1       5.208  14.201 -12.411  0.00  0.00    +0.000 C 
ATOM      4  C   UNL     1       3.360  12.783 -10.562  0.00  0.00    +0.000 C 
ATOM      5  C   UNL     1       4.202  13.956 -10.126  0.00  0.00    +0.000 C 
ATOM      6  C   UNL     1       5.044  14.579 -10.968  0.00  0.00    +0.000 C 
ATOM      7  H   UNL     1       3.176  13.897 -13.045  0.00  0.00    +0.000 HD
ATOM      8  H   UNL     1       4.666  11.554 -11.759  0.00  0.00    +0.000 HD
ATOM      9  H   UNL     1       2.969  11.533 -12.237  0.00  0.00    +0.000 HD
ATOM     10  H   UNL     1       5.223  15.131 -12.992  0.00  0.00    +0.000 HD
ATOM     11  H   UNL     1       6.196  13.737 -12.519  0.00  0.00    +0.000 HD
ATOM     12  H   UNL     1       3.404  11.990  -9.806  0.00  0.00    +0.000 HD
ATOM     13  H   UNL     1       2.314  13.111 -10.623  0.00  0.00    +0.000 HD
ATOM     14  H   UNL     1       5.650  15.408 -10.611  0.00  0.00    +0.000 HD
ENDROOT
BRANCH   5  15
ATOM     15  C   UNL     1       4.042  14.388  -8.698  0.00  0.00    +0.000 C 
ATOM     16  H   UNL     1       3.583  15.381  -8.651  0.00  0.00    +0.000 HD
ATOM     17  H   UNL     1       5.002  14.439  -8.172  0.00  0.00    +0.000 HD
ATOM     18  H   UNL     1       3.403  13.683  -8.156  0.00  0.00    +0.000 HD
ENDBRANCH   5  15
BRANCH   1  19
ATOM     19  C   UNL     1       4.455  12.697 -14.288  0.00  0.00    +0.000 C 
BRANCH  19  20
ATOM     20  C   UNL     1       5.961  12.790 -14.534  0.00  0.00    +0.000 C 
ATOM     21  H   UNL     1       6.531  12.660 -13.608  0.00  0.00    +0.000 HD
ATOM     22  H   UNL     1       6.223  13.766 -14.958  0.00  0.00    +0.000 HD
ATOM     23  H   UNL     1       6.302  12.054 -15.270  0.00  0.00    +0.000 HD
ENDBRANCH  19  20
BRANCH  19  24
ATOM     24  C   UNL     1       3.685  13.396 -15.408  0.00  0.00    +0.000 C 
ATOM     25  H   UNL     1       2.621  13.136 -15.409  0.00  0.00    +0.000 HD
ATOM     26  H   UNL     1       3.796  14.484 -15.363  0.00  0.00    +0.000 HD
ATOM     27  H   UNL     1       4.054  13.067 -16.388  0.00  0.00    +0.000 HD
ENDBRANCH  19  24
BRANCH  19  28
ATOM     28  O   UNL     1       4.076  11.320 -14.302  0.00  0.00    +0.000 OA
ATOM     29  H   UNL     1       4.484  10.888 -13.532  0.00  0.00    +0.000 HD
ENDBRANCH  19  28
ENDBRANCH   1  19
TORSDOF 5
ENDMDL
