MODEL 1
REMARK VINA RESULT:    -5.174      0.000      0.000
REMARK INTER + INTRA:          -7.439
REMARK INTER:                  -6.950
REMARK INTRA:                  -0.489
REMARK UNBOUND:                -0.298
REMARK  Name = 75427
REMARK  8 active torsions:
REMARK  status: ('A' for Active; 'I' for Inactive)
REMARK    1  A    between atoms: C_2  and  C_3
REMARK    2  A    between atoms: C_2  and  C_5
REMARK    3  A    between atoms: C_2  and  C_6
REMARK    4  A    between atoms: C_3  and  C_4
REMARK    5  A    between atoms: C_4  and  C_7
REMARK    6  A    between atoms: C_5  and  C_9
REMARK    7  A    between atoms: C_8  and  C_10
REMARK    8  A    between atoms: C_8  and  C_11
REMARK                            x       y       z     vdW  Elec       q    Type
REMARK                         _______ _______ _______ _____ _____    ______ ____
ROOT
ATOM      1  C   UNL     1       5.875   9.235   0.977  0.00  0.00    +0.000 C 
ATOM      2  H   UNL     1       6.326   9.361  -0.016  0.00  0.00    +0.000 HD
ATOM      3  H   UNL     1       6.043  10.178   1.515  0.00  0.00    +0.000 HD
ENDROOT
BRANCH   1   4
ATOM      4  C   UNL     1       6.589   8.094   1.709  0.00  0.00    +0.000 C 
ATOM      5  H   UNL     1       5.916   7.262   1.928  0.00  0.00    +0.000 HD
ATOM      6  H   UNL     1       7.370   7.676   1.061  0.00  0.00    +0.000 HD
BRANCH   4   7
ATOM      7  C   UNL     1       7.234   8.583   2.975  0.00  0.00    +0.000 C 
ATOM      8  C   UNL     1       6.967   8.196   4.237  0.00  0.00    +0.000 C 
ATOM      9  H   UNL     1       8.000   9.345   2.831  0.00  0.00    +0.000 HD
BRANCH   8  10
ATOM     10  C   UNL     1       7.651   8.726   5.465  0.00  0.00    +0.000 C 
ATOM     11  H   UNL     1       7.876   7.925   6.178  0.00  0.00    +0.000 HD
ATOM     12  H   UNL     1       8.595   9.212   5.198  0.00  0.00    +0.000 HD
ATOM     13  H   UNL     1       7.011   9.455   5.973  0.00  0.00    +0.000 HD
ENDBRANCH   8  10
BRANCH   8  14
ATOM     14  C   UNL     1       5.904   7.167   4.511  0.00  0.00    +0.000 C 
ATOM     15  H   UNL     1       6.297   6.164   4.306  0.00  0.00    +0.000 HD
ATOM     16  H   UNL     1       5.043   7.334   3.855  0.00  0.00    +0.000 HD
ATOM     17  H   UNL     1       5.543   7.148   5.541  0.00  0.00    +0.000 HD
ENDBRANCH   8  14
ENDBRANCH   4   7
ENDBRANCH   1   4
BRANCH   1  18
ATOM     18  C   UNL     1       4.357   9.010   0.812  0.00  0.00    +0.000 C 
ATOM     19  H   UNL     1       4.190   8.026   0.356  0.00  0.00    +0.000 HD
BRANCH  18  20
ATOM     20  C   UNL     1       3.634   9.031   2.165  0.00  0.00    +0.000 C 
ATOM     21  H   UNL     1       3.042   8.124   2.317  0.00  0.00    +0.000 HD
ATOM     22  H   UNL     1       4.341   9.078   2.997  0.00  0.00    +0.000 HD
ATOM     23  H   UNL     1       2.959   9.890   2.239  0.00  0.00    +0.000 HD
ENDBRANCH  18  20
BRANCH  18  24
ATOM     24  C   UNL     1       3.781  10.087  -0.124  0.00  0.00    +0.000 C 
ATOM     25  H   UNL     1       2.793   9.780  -0.488  0.00  0.00    +0.000 HD
ATOM     26  H   UNL     1       4.426  10.216  -1.001  0.00  0.00    +0.000 HD
BRANCH  24  28
ATOM     27  O   UNL     1       4.444  12.338   0.521  0.00  0.00    +0.000 OA
ATOM     28  C   UNL     1       3.607  11.442   0.527  0.00  0.00    +0.000 C 
ATOM     29  H   UNL     1       2.636  11.593   1.030  0.00  0.00    +0.000 HD
ENDBRANCH  24  28
ENDBRANCH  18  24
ENDBRANCH   1  18
TORSDOF 8
ENDMDL
MODEL 2
REMARK VINA RESULT:    -4.942      1.538      2.104
REMARK INTER + INTRA:          -7.118
REMARK INTER:                  -6.689
REMARK INTRA:                  -0.429
REMARK UNBOUND:                -0.298
REMARK  Name = 75427
REMARK  8 active torsions:
REMARK  status: ('A' for Active; 'I' for Inactive)
REMARK    1  A    between atoms: C_2  and  C_3
REMARK    2  A    between atoms: C_2  and  C_5
REMARK    3  A    between atoms: C_2  and  C_6
REMARK    4  A    between atoms: C_3  and  C_4
REMARK    5  A    between atoms: C_4  and  C_7
REMARK    6  A    between atoms: C_5  and  C_9
REMARK    7  A    between atoms: C_8  and  C_10
REMARK    8  A    between atoms: C_8  and  C_11
REMARK                            x       y       z     vdW  Elec       q    Type
REMARK                         _______ _______ _______ _____ _____    ______ ____
ROOT
ATOM      1  C   UNL     1       5.592   9.181   0.243  0.00  0.00    +0.000 C 
ATOM      2  H   UNL     1       4.710   9.143   0.896  0.00  0.00    +0.000 HD
ATOM      3  H   UNL     1       5.263   8.820  -0.742  0.00  0.00    +0.000 HD
ENDROOT
BRANCH   1   4
ATOM      4  C   UNL     1       6.667   8.242   0.800  0.00  0.00    +0.000 C 
ATOM      5  H   UNL     1       6.345   7.198   0.796  0.00  0.00    +0.000 HD
ATOM      6  H   UNL     1       7.554   8.278   0.154  0.00  0.00    +0.000 HD
BRANCH   4   7
ATOM      7  C   UNL     1       7.076   8.650   2.188  0.00  0.00    +0.000 C 
ATOM      8  C   UNL     1       6.747   8.055   3.350  0.00  0.00    +0.000 C 
ATOM      9  H   UNL     1       7.705   9.538   2.234  0.00  0.00    +0.000 HD
BRANCH   8  10
ATOM     10  C   UNL     1       7.191   8.514   4.710  0.00  0.00    +0.000 C 
ATOM     11  H   UNL     1       8.169   8.099   4.976  0.00  0.00    +0.000 HD
ATOM     12  H   UNL     1       7.270   9.605   4.739  0.00  0.00    +0.000 HD
ATOM     13  H   UNL     1       6.474   8.193   5.473  0.00  0.00    +0.000 HD
ENDBRANCH   8  10
BRANCH   8  14
ATOM     14  C   UNL     1       5.860   6.839   3.361  0.00  0.00    +0.000 C 
ATOM     15  H   UNL     1       5.991   6.276   2.430  0.00  0.00    +0.000 HD
ATOM     16  H   UNL     1       4.811   7.143   3.429  0.00  0.00    +0.000 HD
ATOM     17  H   UNL     1       6.060   6.137   4.173  0.00  0.00    +0.000 HD
ENDBRANCH   8  14
ENDBRANCH   4   7
ENDBRANCH   1   4
BRANCH   1  18
ATOM     18  C   UNL     1       6.057  10.647   0.114  0.00  0.00    +0.000 C 
ATOM     19  H   UNL     1       6.696  10.894   0.972  0.00  0.00    +0.000 HD
BRANCH  18  20
ATOM     20  C   UNL     1       6.877  10.869  -1.163  0.00  0.00    +0.000 C 
ATOM     21  H   UNL     1       6.352  11.520  -1.868  0.00  0.00    +0.000 HD
ATOM     22  H   UNL     1       7.831  11.358  -0.948  0.00  0.00    +0.000 HD
ATOM     23  H   UNL     1       7.083   9.920  -1.670  0.00  0.00    +0.000 HD
ENDBRANCH  18  20
BRANCH  18  24
ATOM     24  C   UNL     1       4.831  11.575   0.136  0.00  0.00    +0.000 C 
ATOM     25  H   UNL     1       5.074  12.533  -0.338  0.00  0.00    +0.000 HD
ATOM     26  H   UNL     1       4.531  11.789   1.169  0.00  0.00    +0.000 HD
BRANCH  24  28
ATOM     27  O   UNL     1       3.345  11.243  -1.763  0.00  0.00    +0.000 OA
ATOM     28  C   UNL     1       3.624  11.020  -0.590  0.00  0.00    +0.000 C 
ATOM     29  H   UNL     1       2.977  10.366   0.019  0.00  0.00    +0.000 HD
ENDBRANCH  24  28
ENDBRANCH  18  24
ENDBRANCH   1  18
TORSDOF 8
ENDMDL
MODEL 3
REMARK VINA RESULT:    -4.645     28.350     29.606
REMARK INTER + INTRA:          -6.708
REMARK INTER:                  -6.167
REMARK INTRA:                  -0.541
REMARK UNBOUND:                -0.298
REMARK  Name = 75427
REMARK  8 active torsions:
REMARK  status: ('A' for Active; 'I' for Inactive)
REMARK    1  A    between atoms: C_2  and  C_3
REMARK    2  A    between atoms: C_2  and  C_5
REMARK    3  A    between atoms: C_2  and  C_6
REMARK    4  A    between atoms: C_3  and  C_4
REMARK    5  A    between atoms: C_4  and  C_7
REMARK    6  A    between atoms: C_5  and  C_9
REMARK    7  A    between atoms: C_8  and  C_10
REMARK    8  A    between atoms: C_8  and  C_11
REMARK                            x       y       z     vdW  Elec       q    Type
REMARK                         _______ _______ _______ _____ _____    ______ ____
ROOT
ATOM      1  C   UNL     1     -20.548  -0.860   5.860  0.00  0.00    +0.000 C 
ATOM      2  H   UNL     1     -19.556  -0.746   5.403  0.00  0.00    +0.000 HD
ATOM      3  H   UNL     1     -21.094   0.070   5.649  0.00  0.00    +0.000 HD
ENDROOT
BRANCH   1   4
ATOM      4  C   UNL     1     -20.384  -1.025   7.375  0.00  0.00    +0.000 C 
ATOM      5  H   UNL     1     -20.266  -2.072   7.664  0.00  0.00    +0.000 HD
ATOM      6  H   UNL     1     -19.462  -0.525   7.699  0.00  0.00    +0.000 HD
BRANCH   4   7
ATOM      7  C   UNL     1     -21.540  -0.414   8.114  0.00  0.00    +0.000 C 
ATOM      8  C   UNL     1     -22.524  -1.052   8.776  0.00  0.00    +0.000 C 
ATOM      9  H   UNL     1     -21.570   0.676   8.092  0.00  0.00    +0.000 HD
BRANCH   8  10
ATOM     10  C   UNL     1     -23.656  -0.379   9.499  0.00  0.00    +0.000 C 
ATOM     11  H   UNL     1     -24.557  -0.328   8.877  0.00  0.00    +0.000 HD
ATOM     12  H   UNL     1     -23.909  -0.929  10.411  0.00  0.00    +0.000 HD
ATOM     13  H   UNL     1     -23.380   0.645   9.771  0.00  0.00    +0.000 HD
ENDBRANCH   8  10
BRANCH   8  14
ATOM     14  C   UNL     1     -22.559  -2.556   8.826  0.00  0.00    +0.000 C 
ATOM     15  H   UNL     1     -21.621  -2.935   9.247  0.00  0.00    +0.000 HD
ATOM     16  H   UNL     1     -22.664  -2.961   7.814  0.00  0.00    +0.000 HD
ATOM     17  H   UNL     1     -23.359  -2.973   9.440  0.00  0.00    +0.000 HD
ENDBRANCH   8  14
ENDBRANCH   4   7
ENDBRANCH   1   4
BRANCH   1  18
ATOM     18  C   UNL     1     -21.278  -2.040   5.185  0.00  0.00    +0.000 C 
ATOM     19  H   UNL     1     -22.344  -1.992   5.440  0.00  0.00    +0.000 HD
BRANCH  18  20
ATOM     20  C   UNL     1     -21.156  -1.980   3.657  0.00  0.00    +0.000 C 
ATOM     21  H   UNL     1     -21.860  -1.262   3.226  0.00  0.00    +0.000 HD
ATOM     22  H   UNL     1     -20.159  -1.654   3.347  0.00  0.00    +0.000 HD
ATOM     23  H   UNL     1     -21.354  -2.958   3.206  0.00  0.00    +0.000 HD
ENDBRANCH  18  20
BRANCH  18  24
ATOM     24  C   UNL     1     -20.708  -3.365   5.720  0.00  0.00    +0.000 C 
ATOM     25  H   UNL     1     -21.451  -3.870   6.348  0.00  0.00    +0.000 HD
ATOM     26  H   UNL     1     -19.827  -3.178   6.345  0.00  0.00    +0.000 HD
BRANCH  24  28
ATOM     27  O   UNL     1     -19.207  -4.875   4.541  0.00  0.00    +0.000 OA
ATOM     28  C   UNL     1     -20.308  -4.346   4.639  0.00  0.00    +0.000 C 
ATOM     29  H   UNL     1     -21.102  -4.577   3.907  0.00  0.00    +0.000 HD
ENDBRANCH  24  28
ENDBRANCH  18  24
ENDBRANCH   1  18
TORSDOF 8
ENDMDL
MODEL 4
REMARK VINA RESULT:    -4.622     14.290     16.210
REMARK INTER + INTRA:          -6.677
REMARK INTER:                  -5.994
REMARK INTRA:                  -0.683
REMARK UNBOUND:                -0.298
REMARK  Name = 75427
REMARK  8 active torsions:
REMARK  status: ('A' for Active; 'I' for Inactive)
REMARK    1  A    between atoms: C_2  and  C_3
REMARK    2  A    between atoms: C_2  and  C_5
REMARK    3  A    between atoms: C_2  and  C_6
REMARK    4  A    between atoms: C_3  and  C_4
REMARK    5  A    between atoms: C_4  and  C_7
REMARK    6  A    between atoms: C_5  and  C_9
REMARK    7  A    between atoms: C_8  and  C_10
REMARK    8  A    between atoms: C_8  and  C_11
REMARK                            x       y       z     vdW  Elec       q    Type
REMARK                         _______ _______ _______ _____ _____    ______ ____
ROOT
ATOM      1  C   UNL     1      -2.116   6.819 -11.269  0.00  0.00    +0.000 C 
ATOM      2  H   UNL     1      -1.175   7.249 -10.903  0.00  0.00    +0.000 HD
ATOM      3  H   UNL     1      -2.060   5.739 -11.071  0.00  0.00    +0.000 HD
ENDROOT
BRANCH   1   4
ATOM      4  C   UNL     1      -2.223   7.058 -12.778  0.00  0.00    +0.000 C 
ATOM      5  H   UNL     1      -2.461   6.142 -13.325  0.00  0.00    +0.000 HD
ATOM      6  H   UNL     1      -3.054   7.745 -12.981  0.00  0.00    +0.000 HD
BRANCH   4   7
ATOM      7  C   UNL     1      -0.961   7.669 -13.320  0.00  0.00    +0.000 C 
ATOM      8  C   UNL     1      -0.784   8.923 -13.776  0.00  0.00    +0.000 C 
ATOM      9  H   UNL     1      -0.104   6.996 -13.344  0.00  0.00    +0.000 HD
BRANCH   8  10
ATOM     10  C   UNL     1       0.509   9.474 -14.307  0.00  0.00    +0.000 C 
ATOM     11  H   UNL     1       1.158   9.827 -13.498  0.00  0.00    +0.000 HD
ATOM     12  H   UNL     1       1.054   8.705 -14.863  0.00  0.00    +0.000 HD
ATOM     13  H   UNL     1       0.317  10.321 -14.974  0.00  0.00    +0.000 HD
ENDBRANCH   8  10
BRANCH   8  14
ATOM     14  C   UNL     1      -1.931   9.897 -13.796  0.00  0.00    +0.000 C 
ATOM     15  H   UNL     1      -2.858   9.373 -14.056  0.00  0.00    +0.000 HD
ATOM     16  H   UNL     1      -1.754  10.668 -14.553  0.00  0.00    +0.000 HD
ATOM     17  H   UNL     1      -2.121  10.397 -12.845  0.00  0.00    +0.000 HD
ENDBRANCH   8  14
ENDBRANCH   4   7
ENDBRANCH   1   4
BRANCH   1  18
ATOM     18  C   UNL     1      -3.288   7.419 -10.463  0.00  0.00    +0.000 C 
ATOM     19  H   UNL     1      -4.232   7.157 -10.958  0.00  0.00    +0.000 HD
BRANCH  18  20
ATOM     20  C   UNL     1      -3.335   6.863  -9.035  0.00  0.00    +0.000 C 
ATOM     21  H   UNL     1      -2.781   5.923  -8.952  0.00  0.00    +0.000 HD
ATOM     22  H   UNL     1      -2.875   7.551  -8.321  0.00  0.00    +0.000 HD
ATOM     23  H   UNL     1      -4.366   6.675  -8.717  0.00  0.00    +0.000 HD
ENDBRANCH  18  20
BRANCH  18  24
ATOM     24  C   UNL     1      -3.158   8.952 -10.441  0.00  0.00    +0.000 C 
ATOM     25  H   UNL     1      -3.989   9.393  -9.877  0.00  0.00    +0.000 HD
ATOM     26  H   UNL     1      -3.206   9.355 -11.459  0.00  0.00    +0.000 HD
BRANCH  24  28
ATOM     27  O   UNL     1      -1.025  10.120 -10.374  0.00  0.00    +0.000 OA
ATOM     28  C   UNL     1      -1.881   9.454  -9.804  0.00  0.00    +0.000 C 
ATOM     29  H   UNL     1      -1.754   9.180  -8.741  0.00  0.00    +0.000 HD
ENDBRANCH  24  28
ENDBRANCH  18  24
ENDBRANCH   1  18
TORSDOF 8
ENDMDL
MODEL 5
REMARK VINA RESULT:    -4.555     27.466     28.834
REMARK INTER + INTRA:          -6.585
REMARK INTER:                  -6.045
REMARK INTRA:                  -0.540
REMARK UNBOUND:                -0.298
REMARK  Name = 75427
REMARK  8 active torsions:
REMARK  status: ('A' for Active; 'I' for Inactive)
REMARK    1  A    between atoms: C_2  and  C_3
REMARK    2  A    between atoms: C_2  and  C_5
REMARK    3  A    between atoms: C_2  and  C_6
REMARK    4  A    between atoms: C_3  and  C_4
REMARK    5  A    between atoms: C_4  and  C_7
REMARK    6  A    between atoms: C_5  and  C_9
REMARK    7  A    between atoms: C_8  and  C_10
REMARK    8  A    between atoms: C_8  and  C_11
REMARK                            x       y       z     vdW  Elec       q    Type
REMARK                         _______ _______ _______ _____ _____    ______ ____
ROOT
ATOM      1  C   UNL     1     -20.431  -3.278   5.716  0.00  0.00    +0.000 C 
ATOM      2  H   UNL     1     -19.382  -3.149   6.015  0.00  0.00    +0.000 HD
ATOM      3  H   UNL     1     -21.006  -3.390   6.645  0.00  0.00    +0.000 HD
ENDROOT
BRANCH   1   4
ATOM      4  C   UNL     1     -20.558  -4.556   4.879  0.00  0.00    +0.000 C 
ATOM      5  H   UNL     1     -20.849  -5.417   5.484  0.00  0.00    +0.000 HD
ATOM      6  H   UNL     1     -21.361  -4.430   4.141  0.00  0.00    +0.000 HD
BRANCH   4   7
ATOM      7  C   UNL     1     -19.281  -4.850   4.142  0.00  0.00    +0.000 C 
ATOM      8  C   UNL     1     -19.011  -4.627   2.843  0.00  0.00    +0.000 C 
ATOM      9  H   UNL     1     -18.500  -5.305   4.751  0.00  0.00    +0.000 HD
BRANCH   8  10
ATOM     10  C   UNL     1     -17.708  -4.945   2.165  0.00  0.00    +0.000 C 
ATOM     11  H   UNL     1     -17.457  -6.007   2.255  0.00  0.00    +0.000 HD
ATOM     12  H   UNL     1     -17.762  -4.702   1.099  0.00  0.00    +0.000 HD
ATOM     13  H   UNL     1     -16.893  -4.370   2.617  0.00  0.00    +0.000 HD
ENDBRANCH   8  10
BRANCH   8  14
ATOM     14  C   UNL     1     -20.053  -4.025   1.939  0.00  0.00    +0.000 C 
ATOM     15  H   UNL     1     -19.668  -3.101   1.493  0.00  0.00    +0.000 HD
ATOM     16  H   UNL     1     -20.949  -3.775   2.516  0.00  0.00    +0.000 HD
ATOM     17  H   UNL     1     -20.356  -4.662   1.106  0.00  0.00    +0.000 HD
ENDBRANCH   8  14
ENDBRANCH   4   7
ENDBRANCH   1   4
BRANCH   1  18
ATOM     18  C   UNL     1     -20.901  -2.007   4.979  0.00  0.00    +0.000 C 
ATOM     19  H   UNL     1     -20.379  -1.939   4.016  0.00  0.00    +0.000 HD
BRANCH  18  20
ATOM     20  C   UNL     1     -22.408  -2.044   4.696  0.00  0.00    +0.000 C 
ATOM     21  H   UNL     1     -22.987  -2.171   5.616  0.00  0.00    +0.000 HD
ATOM     22  H   UNL     1     -22.755  -1.110   4.245  0.00  0.00    +0.000 HD
ATOM     23  H   UNL     1     -22.664  -2.867   4.021  0.00  0.00    +0.000 HD
ENDBRANCH  18  20
BRANCH  18  24
ATOM     24  C   UNL     1     -20.541  -0.769   5.818  0.00  0.00    +0.000 C 
ATOM     25  H   UNL     1     -21.278   0.026   5.654  0.00  0.00    +0.000 HD
ATOM     26  H   UNL     1     -19.563  -0.374   5.516  0.00  0.00    +0.000 HD
BRANCH  24  28
ATOM     27  O   UNL     1     -21.256  -0.527   8.131  0.00  0.00    +0.000 OA
ATOM     28  C   UNL     1     -20.496  -1.025   7.308  0.00  0.00    +0.000 C 
ATOM     29  H   UNL     1     -19.706  -1.724   7.635  0.00  0.00    +0.000 HD
ENDBRANCH  24  28
ENDBRANCH  18  24
ENDBRANCH   1  18
TORSDOF 8
ENDMDL
MODEL 6
REMARK VINA RESULT:    -4.512      2.608      4.097
REMARK INTER + INTRA:          -6.524
REMARK INTER:                  -6.236
REMARK INTRA:                  -0.288
REMARK UNBOUND:                -0.298
REMARK  Name = 75427
REMARK  8 active torsions:
REMARK  status: ('A' for Active; 'I' for Inactive)
REMARK    1  A    between atoms: C_2  and  C_3
REMARK    2  A    between atoms: C_2  and  C_5
REMARK    3  A    between atoms: C_2  and  C_6
REMARK    4  A    between atoms: C_3  and  C_4
REMARK    5  A    between atoms: C_4  and  C_7
REMARK    6  A    between atoms: C_5  and  C_9
REMARK    7  A    between atoms: C_8  and  C_10
REMARK    8  A    between atoms: C_8  and  C_11
REMARK                            x       y       z     vdW  Elec       q    Type
REMARK                         _______ _______ _______ _____ _____    ______ ____
ROOT
ATOM      1  C   UNL     1       6.700   7.538   5.060  0.00  0.00    +0.000 C 
ATOM      2  H   UNL     1       5.795   7.767   5.638  0.00  0.00    +0.000 HD
ATOM      3  H   UNL     1       7.175   6.680   5.556  0.00  0.00    +0.000 HD
ENDROOT
BRANCH   1   4
ATOM      4  C   UNL     1       7.644   8.744   5.110  0.00  0.00    +0.000 C 
ATOM      5  H   UNL     1       8.695   8.445   5.111  0.00  0.00    +0.000 HD
ATOM      6  H   UNL     1       7.512   9.349   4.203  0.00  0.00    +0.000 HD
BRANCH   4   7
ATOM      7  C   UNL     1       7.353   9.610   6.303  0.00  0.00    +0.000 C 
ATOM      8  C   UNL     1       8.100  10.619   6.788  0.00  0.00    +0.000 C 
ATOM      9  H   UNL     1       6.428   9.369   6.826  0.00  0.00    +0.000 HD
BRANCH   8  10
ATOM     10  C   UNL     1       7.752  11.450   7.991  0.00  0.00    +0.000 C 
ATOM     11  H   UNL     1       7.213  10.864   8.743  0.00  0.00    +0.000 HD
ATOM     12  H   UNL     1       8.659  11.845   8.459  0.00  0.00    +0.000 HD
ATOM     13  H   UNL     1       7.113  12.291   7.701  0.00  0.00    +0.000 HD
ENDBRANCH   8  10
BRANCH   8  14
ATOM     14  C   UNL     1       9.403  10.990   6.131  0.00  0.00    +0.000 C 
ATOM     15  H   UNL     1       9.466  10.521   5.142  0.00  0.00    +0.000 HD
ATOM     16  H   UNL     1      10.242  10.626   6.733  0.00  0.00    +0.000 HD
ATOM     17  H   UNL     1       9.544  12.060   5.970  0.00  0.00    +0.000 HD
ENDBRANCH   8  14
ENDBRANCH   4   7
ENDBRANCH   1   4
BRANCH   1  18
ATOM     18  C   UNL     1       6.291   7.132   3.628  0.00  0.00    +0.000 C 
ATOM     19  H   UNL     1       6.923   6.297   3.300  0.00  0.00    +0.000 HD
BRANCH  18  20
ATOM     20  C   UNL     1       4.830   6.669   3.569  0.00  0.00    +0.000 C 
ATOM     21  H   UNL     1       4.425   6.746   2.555  0.00  0.00    +0.000 HD
ATOM     22  H   UNL     1       4.730   5.619   3.858  0.00  0.00    +0.000 HD
ATOM     23  H   UNL     1       4.197   7.270   4.231  0.00  0.00    +0.000 HD
ENDBRANCH  18  20
BRANCH  18  24
ATOM     24  C   UNL     1       6.519   8.319   2.677  0.00  0.00    +0.000 C 
ATOM     25  H   UNL     1       7.457   8.829   2.927  0.00  0.00    +0.000 HD
ATOM     26  H   UNL     1       5.711   9.054   2.781  0.00  0.00    +0.000 HD
BRANCH  24  28
ATOM     27  O   UNL     1       5.894   8.381   0.326  0.00  0.00    +0.000 OA
ATOM     28  C   UNL     1       6.606   7.932   1.217  0.00  0.00    +0.000 C 
ATOM     29  H   UNL     1       7.389   7.189   0.980  0.00  0.00    +0.000 HD
ENDBRANCH  24  28
ENDBRANCH  18  24
ENDBRANCH   1  18
TORSDOF 8
ENDMDL
MODEL 7
REMARK VINA RESULT:    -4.504      1.858      3.276
REMARK INTER + INTRA:          -6.514
REMARK INTER:                  -6.214
REMARK INTRA:                  -0.301
REMARK UNBOUND:                -0.298
REMARK  Name = 75427
REMARK  8 active torsions:
REMARK  status: ('A' for Active; 'I' for Inactive)
REMARK    1  A    between atoms: C_2  and  C_3
REMARK    2  A    between atoms: C_2  and  C_5
REMARK    3  A    between atoms: C_2  and  C_6
REMARK    4  A    between atoms: C_3  and  C_4
REMARK    5  A    between atoms: C_4  and  C_7
REMARK    6  A    between atoms: C_5  and  C_9
REMARK    7  A    between atoms: C_8  and  C_10
REMARK    8  A    between atoms: C_8  and  C_11
REMARK                            x       y       z     vdW  Elec       q    Type
REMARK                         _______ _______ _______ _____ _____    ______ ____
ROOT
ATOM      1  C   UNL     1       7.197   8.590   3.465  0.00  0.00    +0.000 C 
ATOM      2  H   UNL     1       8.154   8.059   3.552  0.00  0.00    +0.000 HD
ATOM      3  H   UNL     1       7.404   9.512   2.904  0.00  0.00    +0.000 HD
ENDROOT
BRANCH   1   4
ATOM      4  C   UNL     1       6.693   8.947   4.867  0.00  0.00    +0.000 C 
ATOM      5  H   UNL     1       6.446  10.007   4.958  0.00  0.00    +0.000 HD
ATOM      6  H   UNL     1       5.758   8.408   5.068  0.00  0.00    +0.000 HD
BRANCH   4   7
ATOM      7  C   UNL     1       7.697   8.560   5.918  0.00  0.00    +0.000 C 
ATOM      8  C   UNL     1       8.141   9.307   6.946  0.00  0.00    +0.000 C 
ATOM      9  H   UNL     1       8.105   7.555   5.810  0.00  0.00    +0.000 HD
BRANCH   8  10
ATOM     10  C   UNL     1       9.149   8.860   7.966  0.00  0.00    +0.000 C 
ATOM     11  H   UNL     1       8.995   7.814   8.253  0.00  0.00    +0.000 HD
ATOM     12  H   UNL     1      10.164   8.952   7.567  0.00  0.00    +0.000 HD
ATOM     13  H   UNL     1       9.070   9.469   8.872  0.00  0.00    +0.000 HD
ENDBRANCH   8  10
BRANCH   8  14
ATOM     14  C   UNL     1       7.639  10.713   7.140  0.00  0.00    +0.000 C 
ATOM     15  H   UNL     1       8.323  11.421   6.659  0.00  0.00    +0.000 HD
ATOM     16  H   UNL     1       7.601  10.951   8.208  0.00  0.00    +0.000 HD
ATOM     17  H   UNL     1       6.651  10.907   6.717  0.00  0.00    +0.000 HD
ENDBRANCH   8  14
ENDBRANCH   4   7
ENDBRANCH   1   4
BRANCH   1  18
ATOM     18  C   UNL     1       6.212   7.717   2.658  0.00  0.00    +0.000 C 
ATOM     19  H   UNL     1       6.781   7.094   1.956  0.00  0.00    +0.000 HD
BRANCH  18  20
ATOM     20  C   UNL     1       5.408   6.783   3.571  0.00  0.00    +0.000 C 
ATOM     21  H   UNL     1       5.683   5.735   3.417  0.00  0.00    +0.000 HD
ATOM     22  H   UNL     1       5.594   6.995   4.627  0.00  0.00    +0.000 HD
ATOM     23  H   UNL     1       4.333   6.879   3.386  0.00  0.00    +0.000 HD
ENDBRANCH  18  20
BRANCH  18  24
ATOM     24  C   UNL     1       5.269   8.625   1.851  0.00  0.00    +0.000 C 
ATOM     25  H   UNL     1       5.112   8.210   0.849  0.00  0.00    +0.000 HD
ATOM     26  H   UNL     1       5.712   9.621   1.725  0.00  0.00    +0.000 HD
BRANCH  24  28
ATOM     27  O   UNL     1       3.209   9.809   2.375  0.00  0.00    +0.000 OA
ATOM     28  C   UNL     1       3.901   8.802   2.472  0.00  0.00    +0.000 C 
ATOM     29  H   UNL     1       3.536   7.931   3.044  0.00  0.00    +0.000 HD
ENDBRANCH  24  28
ENDBRANCH  18  24
ENDBRANCH   1  18
TORSDOF 8
ENDMDL
MODEL 8
REMARK VINA RESULT:    -4.396      3.279      5.867
REMARK INTER + INTRA:          -6.365
REMARK INTER:                  -5.968
REMARK INTRA:                  -0.397
REMARK UNBOUND:                -0.298
REMARK  Name = 75427
REMARK  8 active torsions:
REMARK  status: ('A' for Active; 'I' for Inactive)
REMARK    1  A    between atoms: C_2  and  C_3
REMARK    2  A    between atoms: C_2  and  C_5
REMARK    3  A    between atoms: C_2  and  C_6
REMARK    4  A    between atoms: C_3  and  C_4
REMARK    5  A    between atoms: C_4  and  C_7
REMARK    6  A    between atoms: C_5  and  C_9
REMARK    7  A    between atoms: C_8  and  C_10
REMARK    8  A    between atoms: C_8  and  C_11
REMARK                            x       y       z     vdW  Elec       q    Type
REMARK                         _______ _______ _______ _____ _____    ______ ____
ROOT
ATOM      1  C   UNL     1       9.087  10.140   5.857  0.00  0.00    +0.000 C 
ATOM      2  H   UNL     1       9.475  11.147   5.658  0.00  0.00    +0.000 HD
ATOM      3  H   UNL     1       9.957   9.515   6.101  0.00  0.00    +0.000 HD
ENDROOT
BRANCH   1   4
ATOM      4  C   UNL     1       8.411   9.604   4.590  0.00  0.00    +0.000 C 
ATOM      5  H   UNL     1       7.992  10.406   3.977  0.00  0.00    +0.000 HD
ATOM      6  H   UNL     1       9.160   9.112   3.957  0.00  0.00    +0.000 HD
BRANCH   4   7
ATOM      7  C   UNL     1       7.343   8.602   4.928  0.00  0.00    +0.000 C 
ATOM      8  C   UNL     1       6.547   7.930   4.076  0.00  0.00    +0.000 C 
ATOM      9  H   UNL     1       7.211   8.420   5.994  0.00  0.00    +0.000 HD
BRANCH   8  10
ATOM     10  C   UNL     1       5.495   6.936   4.479  0.00  0.00    +0.000 C 
ATOM     11  H   UNL     1       5.146   7.112   5.502  0.00  0.00    +0.000 HD
ATOM     12  H   UNL     1       4.629   7.004   3.813  0.00  0.00    +0.000 HD
ATOM     13  H   UNL     1       5.895   5.917   4.433  0.00  0.00    +0.000 HD
ENDBRANCH   8  10
BRANCH   8  14
ATOM     14  C   UNL     1       6.658   8.151   2.591  0.00  0.00    +0.000 C 
ATOM     15  H   UNL     1       5.706   8.528   2.200  0.00  0.00    +0.000 HD
ATOM     16  H   UNL     1       6.881   7.205   2.087  0.00  0.00    +0.000 HD
ATOM     17  H   UNL     1       7.418   8.877   2.294  0.00  0.00    +0.000 HD
ENDBRANCH   8  14
ENDBRANCH   4   7
ENDBRANCH   1   4
BRANCH   1  18
ATOM     18  C   UNL     1       8.148  10.197   7.080  0.00  0.00    +0.000 C 
ATOM     19  H   UNL     1       7.174   9.774   6.803  0.00  0.00    +0.000 HD
BRANCH  18  20
ATOM     20  C   UNL     1       8.699   9.379   8.255  0.00  0.00    +0.000 C 
ATOM     21  H   UNL     1       9.227   8.485   7.908  0.00  0.00    +0.000 HD
ATOM     22  H   UNL     1       9.424   9.953   8.839  0.00  0.00    +0.000 HD
ATOM     23  H   UNL     1       7.895   9.057   8.924  0.00  0.00    +0.000 HD
ENDBRANCH  18  20
BRANCH  18  24
ATOM     24  C   UNL     1       7.941  11.664   7.496  0.00  0.00    +0.000 C 
ATOM     25  H   UNL     1       8.153  11.787   8.564  0.00  0.00    +0.000 HD
ATOM     26  H   UNL     1       6.899  11.964   7.334  0.00  0.00    +0.000 HD
BRANCH  24  28
ATOM     27  O   UNL     1       8.422  13.591   6.090  0.00  0.00    +0.000 OA
ATOM     28  C   UNL     1       8.825  12.645   6.757  0.00  0.00    +0.000 C 
ATOM     29  H   UNL     1       9.909  12.459   6.858  0.00  0.00    +0.000 HD
ENDBRANCH  24  28
ENDBRANCH  18  24
ENDBRANCH   1  18
TORSDOF 8
ENDMDL
MODEL 9
REMARK VINA RESULT:    -4.379     28.266     29.486
REMARK INTER + INTRA:          -6.341
REMARK INTER:                  -5.955
REMARK INTRA:                  -0.385
REMARK UNBOUND:                -0.298
REMARK  Name = 75427
REMARK  8 active torsions:
REMARK  status: ('A' for Active; 'I' for Inactive)
REMARK    1  A    between atoms: C_2  and  C_3
REMARK    2  A    between atoms: C_2  and  C_5
REMARK    3  A    between atoms: C_2  and  C_6
REMARK    4  A    between atoms: C_3  and  C_4
REMARK    5  A    between atoms: C_4  and  C_7
REMARK    6  A    between atoms: C_5  and  C_9
REMARK    7  A    between atoms: C_8  and  C_10
REMARK    8  A    between atoms: C_8  and  C_11
REMARK                            x       y       z     vdW  Elec       q    Type
REMARK                         _______ _______ _______ _____ _____    ______ ____
ROOT
ATOM      1  C   UNL     1     -21.565  -4.092   4.985  0.00  0.00    +0.000 C 
ATOM      2  H   UNL     1     -22.390  -3.371   4.913  0.00  0.00    +0.000 HD
ATOM      3  H   UNL     1     -21.978  -4.987   5.472  0.00  0.00    +0.000 HD
ENDROOT
BRANCH   1   4
ATOM      4  C   UNL     1     -20.457  -3.498   5.861  0.00  0.00    +0.000 C 
ATOM      5  H   UNL     1     -19.798  -4.268   6.269  0.00  0.00    +0.000 HD
ATOM      6  H   UNL     1     -19.813  -2.855   5.248  0.00  0.00    +0.000 HD
BRANCH   4   7
ATOM      7  C   UNL     1     -21.032  -2.669   6.974  0.00  0.00    +0.000 C 
ATOM      8  C   UNL     1     -21.024  -1.328   7.090  0.00  0.00    +0.000 C 
ATOM      9  H   UNL     1     -21.499  -3.243   7.775  0.00  0.00    +0.000 HD
BRANCH   8  10
ATOM     10  C   UNL     1     -21.620  -0.557   8.234  0.00  0.00    +0.000 C 
ATOM     11  H   UNL     1     -21.261  -0.927   9.200  0.00  0.00    +0.000 HD
ATOM     12  H   UNL     1     -21.354   0.503   8.161  0.00  0.00    +0.000 HD
ATOM     13  H   UNL     1     -22.712  -0.646   8.226  0.00  0.00    +0.000 HD
ENDBRANCH   8  10
BRANCH   8  14
ATOM     14  C   UNL     1     -20.374  -0.474   6.035  0.00  0.00    +0.000 C 
ATOM     15  H   UNL     1     -19.825  -1.109   5.330  0.00  0.00    +0.000 HD
ATOM     16  H   UNL     1     -19.660   0.214   6.498  0.00  0.00    +0.000 HD
ATOM     17  H   UNL     1     -21.069   0.116   5.435  0.00  0.00    +0.000 HD
ENDBRANCH   8  14
ENDBRANCH   4   7
ENDBRANCH   1   4
BRANCH   1  18
ATOM     18  C   UNL     1     -21.097  -4.461   3.562  0.00  0.00    +0.000 C 
ATOM     19  H   UNL     1     -21.895  -5.021   3.058  0.00  0.00    +0.000 HD
BRANCH  18  20
ATOM     20  C   UNL     1     -20.797  -3.212   2.724  0.00  0.00    +0.000 C 
ATOM     21  H   UNL     1     -20.503  -2.367   3.354  0.00  0.00    +0.000 HD
ATOM     22  H   UNL     1     -19.967  -3.382   2.034  0.00  0.00    +0.000 HD
ATOM     23  H   UNL     1     -21.673  -2.908   2.141  0.00  0.00    +0.000 HD
ENDBRANCH  18  20
BRANCH  18  24
ATOM     24  C   UNL     1     -19.853  -5.361   3.652  0.00  0.00    +0.000 C 
ATOM     25  H   UNL     1     -20.006  -6.143   4.405  0.00  0.00    +0.000 HD
ATOM     26  H   UNL     1     -18.979  -4.776   3.962  0.00  0.00    +0.000 HD
BRANCH  24  28
ATOM     27  O   UNL     1     -20.317  -6.490   1.546  0.00  0.00    +0.000 OA
ATOM     28  C   UNL     1     -19.503  -6.062   2.357  0.00  0.00    +0.000 C 
ATOM     29  H   UNL     1     -18.421  -6.170   2.165  0.00  0.00    +0.000 HD
ENDBRANCH  24  28
ENDBRANCH  18  24
ENDBRANCH   1  18
TORSDOF 8
ENDMDL
MODEL 10
REMARK VINA RESULT:    -4.314     28.100     29.476
REMARK INTER + INTRA:          -6.252
REMARK INTER:                  -5.953
REMARK INTRA:                  -0.298
REMARK UNBOUND:                -0.298
REMARK  Name = 75427
REMARK  8 active torsions:
REMARK  status: ('A' for Active; 'I' for Inactive)
REMARK    1  A    between atoms: C_2  and  C_3
REMARK    2  A    between atoms: C_2  and  C_5
REMARK    3  A    between atoms: C_2  and  C_6
REMARK    4  A    between atoms: C_3  and  C_4
REMARK    5  A    between atoms: C_4  and  C_7
REMARK    6  A    between atoms: C_5  and  C_9
REMARK    7  A    between atoms: C_8  and  C_10
REMARK    8  A    between atoms: C_8  and  C_11
REMARK                            x       y       z     vdW  Elec       q    Type
REMARK                         _______ _______ _______ _____ _____    ______ ____
ROOT
ATOM      1  C   UNL     1     -21.265  -2.388   5.692  0.00  0.00    +0.000 C 
ATOM      2  H   UNL     1     -22.167  -2.509   6.306  0.00  0.00    +0.000 HD
ATOM      3  H   UNL     1     -21.606  -2.057   4.701  0.00  0.00    +0.000 HD
ENDROOT
BRANCH   1   4
ATOM      4  C   UNL     1     -20.561  -3.744   5.564  0.00  0.00    +0.000 C 
ATOM      5  H   UNL     1     -19.473  -3.645   5.563  0.00  0.00    +0.000 HD
ATOM      6  H   UNL     1     -20.799  -4.363   6.438  0.00  0.00    +0.000 HD
BRANCH   4   7
ATOM      7  C   UNL     1     -21.013  -4.474   4.330  0.00  0.00    +0.000 C 
ATOM      8  C   UNL     1     -20.244  -5.049   3.387  0.00  0.00    +0.000 C 
ATOM      9  H   UNL     1     -22.094  -4.524   4.200  0.00  0.00    +0.000 HD
BRANCH   8  10
ATOM     10  C   UNL     1     -20.759  -5.767   2.172  0.00  0.00    +0.000 C 
ATOM     11  H   UNL     1     -20.156  -5.542   1.285  0.00  0.00    +0.000 HD
ATOM     12  H   UNL     1     -20.735  -6.850   2.328  0.00  0.00    +0.000 HD
ATOM     13  H   UNL     1     -21.790  -5.465   1.960  0.00  0.00    +0.000 HD
ENDBRANCH   8  10
BRANCH   8  14
ATOM     14  C   UNL     1     -18.743  -4.996   3.489  0.00  0.00    +0.000 C 
ATOM     15  H   UNL     1     -18.398  -5.699   4.256  0.00  0.00    +0.000 HD
ATOM     16  H   UNL     1     -18.424  -3.990   3.782  0.00  0.00    +0.000 HD
ATOM     17  H   UNL     1     -18.214  -5.262   2.572  0.00  0.00    +0.000 HD
ENDBRANCH   8  14
ENDBRANCH   4   7
ENDBRANCH   1   4
BRANCH   1  18
ATOM     18  C   UNL     1     -20.379  -1.289   6.315  0.00  0.00    +0.000 C 
ATOM     19  H   UNL     1     -19.350  -1.662   6.393  0.00  0.00    +0.000 HD
BRANCH  18  20
ATOM     20  C   UNL     1     -20.356  -0.024   5.448  0.00  0.00    +0.000 C 
ATOM     21  H   UNL     1     -21.005  -0.125   4.573  0.00  0.00    +0.000 HD
ATOM     22  H   UNL     1     -20.720   0.847   5.999  0.00  0.00    +0.000 HD
ATOM     23  H   UNL     1     -19.343   0.193   5.092  0.00  0.00    +0.000 HD
ENDBRANCH  18  20
BRANCH  18  24
ATOM     24  C   UNL     1     -20.888  -0.964   7.729  0.00  0.00    +0.000 C 
ATOM     25  H   UNL     1     -20.899   0.121   7.886  0.00  0.00    +0.000 HD
ATOM     26  H   UNL     1     -20.221  -1.396   8.485  0.00  0.00    +0.000 HD
BRANCH  24  28
ATOM     27  O   UNL     1     -23.269  -0.746   8.186  0.00  0.00    +0.000 OA
ATOM     28  C   UNL     1     -22.289  -1.462   8.010  0.00  0.00    +0.000 C 
ATOM     29  H   UNL     1     -22.392  -2.561   8.044  0.00  0.00    +0.000 HD
ENDBRANCH  24  28
ENDBRANCH  18  24
ENDBRANCH   1  18
TORSDOF 8
ENDMDL
