MODEL 1
REMARK VINA RESULT:    -4.813      0.000      0.000
REMARK INTER + INTRA:          -6.960
REMARK INTER:                  -6.280
REMARK INTRA:                  -0.680
REMARK UNBOUND:                -0.318
REMARK  Name = 443157
REMARK  8 active torsions:
REMARK  status: ('A' for Active; 'I' for Inactive)
REMARK    1  A    between atoms: C_2  and  C_3
REMARK    2  A    between atoms: C_2  and  C_5
REMARK    3  A    between atoms: C_2  and  C_6
REMARK    4  A    between atoms: C_3  and  C_4
REMARK    5  A    between atoms: C_4  and  C_7
REMARK    6  A    between atoms: C_5  and  C_9
REMARK    7  A    between atoms: C_8  and  C_10
REMARK    8  A    between atoms: C_8  and  C_11
REMARK                            x       y       z     vdW  Elec       q    Type
REMARK                         _______ _______ _______ _____ _____    ______ ____
ROOT
ATOM      1  C   UNL     1     -20.628  -1.085   5.556  0.00  0.00    +0.000 C 
ATOM      2  H   UNL     1     -19.750  -0.671   5.041  0.00  0.00    +0.000 HD
ATOM      3  H   UNL     1     -21.437  -0.354   5.423  0.00  0.00    +0.000 HD
ENDROOT
BRANCH   1   4
ATOM      4  C   UNL     1     -20.320  -1.230   7.049  0.00  0.00    +0.000 C 
ATOM      5  H   UNL     1     -20.185  -2.283   7.318  0.00  0.00    +0.000 HD
ATOM      6  H   UNL     1     -19.371  -0.739   7.294  0.00  0.00    +0.000 HD
BRANCH   4   7
ATOM      7  C   UNL     1     -21.381  -0.573   7.887  0.00  0.00    +0.000 C 
ATOM      8  C   UNL     1     -22.361  -1.173   8.590  0.00  0.00    +0.000 C 
ATOM      9  H   UNL     1     -21.339   0.515   7.906  0.00  0.00    +0.000 HD
BRANCH   8  10
ATOM     10  C   UNL     1     -23.396  -0.456   9.411  0.00  0.00    +0.000 C 
ATOM     11  H   UNL     1     -23.874   0.349   8.844  0.00  0.00    +0.000 HD
ATOM     12  H   UNL     1     -24.179  -1.151   9.731  0.00  0.00    +0.000 HD
ATOM     13  H   UNL     1     -22.936  -0.013  10.301  0.00  0.00    +0.000 HD
ENDBRANCH   8  10
BRANCH   8  14
ATOM     14  C   UNL     1     -22.497  -2.671   8.586  0.00  0.00    +0.000 C 
ATOM     15  H   UNL     1     -21.515  -3.133   8.440  0.00  0.00    +0.000 HD
ATOM     16  H   UNL     1     -23.146  -2.985   7.759  0.00  0.00    +0.000 HD
ATOM     17  H   UNL     1     -22.902  -3.095   9.507  0.00  0.00    +0.000 HD
ENDBRANCH   8  14
ENDBRANCH   4   7
ENDBRANCH   1   4
BRANCH   1  18
ATOM     18  C   UNL     1     -21.043  -2.409   4.879  0.00  0.00    +0.000 C 
ATOM     19  H   UNL     1     -20.630  -2.433   3.862  0.00  0.00    +0.000 HD
BRANCH  18  20
ATOM     20  C   UNL     1     -22.567  -2.536   4.773  0.00  0.00    +0.000 C 
ATOM     21  H   UNL     1     -23.071  -1.998   5.582  0.00  0.00    +0.000 HD
ATOM     22  H   UNL     1     -22.941  -2.108   3.837  0.00  0.00    +0.000 HD
ATOM     23  H   UNL     1     -22.881  -3.585   4.815  0.00  0.00    +0.000 HD
ENDBRANCH  18  20
BRANCH  18  24
ATOM     24  C   UNL     1     -20.457  -3.590   5.671  0.00  0.00    +0.000 C 
ATOM     25  H   UNL     1     -21.247  -4.104   6.232  0.00  0.00    +0.000 HD
ATOM     26  H   UNL     1     -19.722  -3.226   6.399  0.00  0.00    +0.000 HD
BRANCH  24  28
ATOM     27  O   UNL     1     -18.822  -5.325   5.188  0.00  0.00    +0.000 OA
ATOM     28  C   UNL     1     -19.752  -4.618   4.815  0.00  0.00    +0.000 C 
ATOM     29  H   UNL     1     -20.123  -4.691   3.778  0.00  0.00    +0.000 HD
ENDBRANCH  24  28
ENDBRANCH  18  24
ENDBRANCH   1  18
TORSDOF 8
ENDMDL
MODEL 2
REMARK VINA RESULT:    -4.609      2.095      3.689
REMARK INTER + INTRA:          -6.679
REMARK INTER:                  -6.363
REMARK INTRA:                  -0.316
REMARK UNBOUND:                -0.318
REMARK  Name = 443157
REMARK  8 active torsions:
REMARK  status: ('A' for Active; 'I' for Inactive)
REMARK    1  A    between atoms: C_2  and  C_3
REMARK    2  A    between atoms: C_2  and  C_5
REMARK    3  A    between atoms: C_2  and  C_6
REMARK    4  A    between atoms: C_3  and  C_4
REMARK    5  A    between atoms: C_4  and  C_7
REMARK    6  A    between atoms: C_5  and  C_9
REMARK    7  A    between atoms: C_8  and  C_10
REMARK    8  A    between atoms: C_8  and  C_11
REMARK                            x       y       z     vdW  Elec       q    Type
REMARK                         _______ _______ _______ _____ _____    ______ ____
ROOT
ATOM      1  C   UNL     1     -21.093  -4.446   4.136  0.00  0.00    +0.000 C 
ATOM      2  H   UNL     1     -21.938  -4.595   3.450  0.00  0.00    +0.000 HD
ATOM      3  H   UNL     1     -21.414  -4.834   5.111  0.00  0.00    +0.000 HD
ENDROOT
BRANCH   1   4
ATOM      4  C   UNL     1     -20.799  -2.948   4.262  0.00  0.00    +0.000 C 
ATOM      5  H   UNL     1     -19.835  -2.701   3.808  0.00  0.00    +0.000 HD
ATOM      6  H   UNL     1     -21.544  -2.364   3.709  0.00  0.00    +0.000 HD
BRANCH   4   7
ATOM      7  C   UNL     1     -20.871  -2.501   5.696  0.00  0.00    +0.000 C 
ATOM      8  C   UNL     1     -20.703  -1.254   6.177  0.00  0.00    +0.000 C 
ATOM      9  H   UNL     1     -21.073  -3.296   6.412  0.00  0.00    +0.000 HD
BRANCH   8  10
ATOM     10  C   UNL     1     -20.788  -0.872   7.628  0.00  0.00    +0.000 C 
ATOM     11  H   UNL     1     -20.924  -1.749   8.269  0.00  0.00    +0.000 HD
ATOM     12  H   UNL     1     -19.870  -0.366   7.944  0.00  0.00    +0.000 HD
ATOM     13  H   UNL     1     -21.635  -0.199   7.796  0.00  0.00    +0.000 HD
ENDBRANCH   8  10
BRANCH   8  14
ATOM     14  C   UNL     1     -20.392  -0.112   5.248  0.00  0.00    +0.000 C 
ATOM     15  H   UNL     1     -19.951   0.717   5.814  0.00  0.00    +0.000 HD
ATOM     16  H   UNL     1     -21.315   0.250   4.780  0.00  0.00    +0.000 HD
ATOM     17  H   UNL     1     -19.685  -0.351   4.452  0.00  0.00    +0.000 HD
ENDBRANCH   8  14
ENDBRANCH   4   7
ENDBRANCH   1   4
BRANCH   1  18
ATOM     18  C   UNL     1     -19.884  -5.273   3.649  0.00  0.00    +0.000 C 
ATOM     19  H   UNL     1     -20.238  -6.256   3.311  0.00  0.00    +0.000 HD
BRANCH  18  20
ATOM     20  C   UNL     1     -18.864  -5.499   4.771  0.00  0.00    +0.000 C 
ATOM     21  H   UNL     1     -18.868  -4.672   5.488  0.00  0.00    +0.000 HD
ATOM     22  H   UNL     1     -19.092  -6.405   5.343  0.00  0.00    +0.000 HD
ATOM     23  H   UNL     1     -17.849  -5.598   4.370  0.00  0.00    +0.000 HD
ENDBRANCH  18  20
BRANCH  18  24
ATOM     24  C   UNL     1     -19.225  -4.556   2.457  0.00  0.00    +0.000 C 
ATOM     25  H   UNL     1     -19.318  -3.469   2.567  0.00  0.00    +0.000 HD
ATOM     26  H   UNL     1     -19.729  -4.836   1.525  0.00  0.00    +0.000 HD
BRANCH  24  28
ATOM     27  O   UNL     1     -17.095  -4.603   1.284  0.00  0.00    +0.000 OA
ATOM     28  C   UNL     1     -17.759  -4.881   2.276  0.00  0.00    +0.000 C 
ATOM     29  H   UNL     1     -17.297  -5.425   3.118  0.00  0.00    +0.000 HD
ENDBRANCH  24  28
ENDBRANCH  18  24
ENDBRANCH   1  18
TORSDOF 8
ENDMDL
MODEL 3
REMARK VINA RESULT:    -4.594     25.908     27.487
REMARK INTER + INTRA:          -6.657
REMARK INTER:                  -6.222
REMARK INTRA:                  -0.435
REMARK UNBOUND:                -0.318
REMARK  Name = 443157
REMARK  8 active torsions:
REMARK  status: ('A' for Active; 'I' for Inactive)
REMARK    1  A    between atoms: C_2  and  C_3
REMARK    2  A    between atoms: C_2  and  C_5
REMARK    3  A    between atoms: C_2  and  C_6
REMARK    4  A    between atoms: C_3  and  C_4
REMARK    5  A    between atoms: C_4  and  C_7
REMARK    6  A    between atoms: C_5  and  C_9
REMARK    7  A    between atoms: C_8  and  C_10
REMARK    8  A    between atoms: C_8  and  C_11
REMARK                            x       y       z     vdW  Elec       q    Type
REMARK                         _______ _______ _______ _____ _____    ______ ____
ROOT
ATOM      1  C   UNL     1      -2.880   8.614  -9.007  0.00  0.00    +0.000 C 
ATOM      2  H   UNL     1      -2.174   8.511  -8.171  0.00  0.00    +0.000 HD
ATOM      3  H   UNL     1      -3.867   8.790  -8.559  0.00  0.00    +0.000 HD
ENDROOT
BRANCH   1   4
ATOM      4  C   UNL     1      -2.915   7.309  -9.807  0.00  0.00    +0.000 C 
ATOM      5  H   UNL     1      -2.425   7.434 -10.778  0.00  0.00    +0.000 HD
ATOM      6  H   UNL     1      -2.347   6.527  -9.289  0.00  0.00    +0.000 HD
BRANCH   4   7
ATOM      7  C   UNL     1      -4.322   6.802  -9.955  0.00  0.00    +0.000 C 
ATOM      8  C   UNL     1      -5.009   6.603 -11.096  0.00  0.00    +0.000 C 
ATOM      9  H   UNL     1      -4.830   6.584  -9.016  0.00  0.00    +0.000 HD
BRANCH   8  10
ATOM     10  C   UNL     1      -6.419   6.092 -11.177  0.00  0.00    +0.000 C 
ATOM     11  H   UNL     1      -6.455   5.068 -11.562  0.00  0.00    +0.000 HD
ATOM     12  H   UNL     1      -6.883   6.092 -10.185  0.00  0.00    +0.000 HD
ATOM     13  H   UNL     1      -7.017   6.722 -11.843  0.00  0.00    +0.000 HD
ENDBRANCH   8  10
BRANCH   8  14
ATOM     14  C   UNL     1      -4.380   6.910 -12.429  0.00  0.00    +0.000 C 
ATOM     15  H   UNL     1      -3.917   6.005 -12.838  0.00  0.00    +0.000 HD
ATOM     16  H   UNL     1      -3.597   7.667 -12.306  0.00  0.00    +0.000 HD
ATOM     17  H   UNL     1      -5.077   7.269 -13.190  0.00  0.00    +0.000 HD
ENDBRANCH   8  14
ENDBRANCH   4   7
ENDBRANCH   1   4
BRANCH   1  18
ATOM     18  C   UNL     1      -2.496   9.847  -9.853  0.00  0.00    +0.000 C 
ATOM     19  H   UNL     1      -2.588  10.748  -9.232  0.00  0.00    +0.000 HD
BRANCH  18  20
ATOM     20  C   UNL     1      -3.420  10.012 -11.065  0.00  0.00    +0.000 C 
ATOM     21  H   UNL     1      -2.890  10.451 -11.916  0.00  0.00    +0.000 HD
ATOM     22  H   UNL     1      -3.808   9.046 -11.407  0.00  0.00    +0.000 HD
ATOM     23  H   UNL     1      -4.275  10.655 -10.827  0.00  0.00    +0.000 HD
ENDBRANCH  18  20
BRANCH  18  24
ATOM     24  C   UNL     1      -1.031   9.715 -10.306  0.00  0.00    +0.000 C 
ATOM     25  H   UNL     1      -0.588   8.797  -9.903  0.00  0.00    +0.000 HD
ATOM     26  H   UNL     1      -0.443  10.558  -9.926  0.00  0.00    +0.000 HD
BRANCH  24  28
ATOM     27  O   UNL     1      -0.063   8.978 -12.412  0.00  0.00    +0.000 OA
ATOM     28  C   UNL     1      -0.849   9.698 -11.807  0.00  0.00    +0.000 C 
ATOM     29  H   UNL     1      -1.480  10.417 -12.360  0.00  0.00    +0.000 HD
ENDBRANCH  24  28
ENDBRANCH  18  24
ENDBRANCH   1  18
TORSDOF 8
ENDMDL
MODEL 4
REMARK VINA RESULT:    -4.558      2.690      5.812
REMARK INTER + INTRA:          -6.608
REMARK INTER:                  -6.199
REMARK INTRA:                  -0.409
REMARK UNBOUND:                -0.318
REMARK  Name = 443157
REMARK  8 active torsions:
REMARK  status: ('A' for Active; 'I' for Inactive)
REMARK    1  A    between atoms: C_2  and  C_3
REMARK    2  A    between atoms: C_2  and  C_5
REMARK    3  A    between atoms: C_2  and  C_6
REMARK    4  A    between atoms: C_3  and  C_4
REMARK    5  A    between atoms: C_4  and  C_7
REMARK    6  A    between atoms: C_5  and  C_9
REMARK    7  A    between atoms: C_8  and  C_10
REMARK    8  A    between atoms: C_8  and  C_11
REMARK                            x       y       z     vdW  Elec       q    Type
REMARK                         _______ _______ _______ _____ _____    ______ ____
ROOT
ATOM      1  C   UNL     1     -20.419  -3.476   5.541  0.00  0.00    +0.000 C 
ATOM      2  H   UNL     1     -19.352  -3.261   5.689  0.00  0.00    +0.000 HD
ATOM      3  H   UNL     1     -20.765  -3.973   6.456  0.00  0.00    +0.000 HD
ENDROOT
BRANCH   1   4
ATOM      4  C   UNL     1     -20.585  -4.432   4.355  0.00  0.00    +0.000 C 
ATOM      5  H   UNL     1     -21.166  -5.314   4.645  0.00  0.00    +0.000 HD
ATOM      6  H   UNL     1     -21.158  -3.952   3.554  0.00  0.00    +0.000 HD
BRANCH   4   7
ATOM      7  C   UNL     1     -19.252  -4.810   3.774  0.00  0.00    +0.000 C 
ATOM      8  C   UNL     1     -18.834  -4.648   2.504  0.00  0.00    +0.000 C 
ATOM      9  H   UNL     1     -18.562  -5.275   4.477  0.00  0.00    +0.000 HD
BRANCH   8  10
ATOM     10  C   UNL     1     -17.482  -5.048   1.983  0.00  0.00    +0.000 C 
ATOM     11  H   UNL     1     -17.564  -5.732   1.132  0.00  0.00    +0.000 HD
ATOM     12  H   UNL     1     -16.924  -4.167   1.651  0.00  0.00    +0.000 HD
ATOM     13  H   UNL     1     -16.907  -5.554   2.765  0.00  0.00    +0.000 HD
ENDBRANCH   8  10
BRANCH   8  14
ATOM     14  C   UNL     1     -19.744  -4.039   1.471  0.00  0.00    +0.000 C 
ATOM     15  H   UNL     1     -19.898  -2.977   1.693  0.00  0.00    +0.000 HD
ATOM     16  H   UNL     1     -20.720  -4.536   1.496  0.00  0.00    +0.000 HD
ATOM     17  H   UNL     1     -19.369  -4.088   0.447  0.00  0.00    +0.000 HD
ENDBRANCH   8  14
ENDBRANCH   4   7
ENDBRANCH   1   4
BRANCH   1  18
ATOM     18  C   UNL     1     -21.192  -2.149   5.377  0.00  0.00    +0.000 C 
ATOM     19  H   UNL     1     -22.236  -2.306   5.676  0.00  0.00    +0.000 HD
BRANCH  18  20
ATOM     20  C   UNL     1     -21.184  -1.667   3.921  0.00  0.00    +0.000 C 
ATOM     21  H   UNL     1     -21.953  -2.172   3.329  0.00  0.00    +0.000 HD
ATOM     22  H   UNL     1     -21.397  -0.594   3.854  0.00  0.00    +0.000 HD
ATOM     23  H   UNL     1     -20.213  -1.849   3.448  0.00  0.00    +0.000 HD
ENDBRANCH  18  20
BRANCH  18  24
ATOM     24  C   UNL     1     -20.574  -1.085   6.300  0.00  0.00    +0.000 C 
ATOM     25  H   UNL     1     -20.798  -0.078   5.926  0.00  0.00    +0.000 HD
ATOM     26  H   UNL     1     -19.483  -1.192   6.321  0.00  0.00    +0.000 HD
BRANCH  24  28
ATOM     27  O   UNL     1     -21.454  -0.213   8.394  0.00  0.00    +0.000 OA
ATOM     28  C   UNL     1     -21.047  -1.163   7.735  0.00  0.00    +0.000 C 
ATOM     29  H   UNL     1     -20.988  -2.168   8.189  0.00  0.00    +0.000 HD
ENDBRANCH  24  28
ENDBRANCH  18  24
ENDBRANCH   1  18
TORSDOF 8
ENDMDL
MODEL 5
REMARK VINA RESULT:    -4.543     26.709     28.422
REMARK INTER + INTRA:          -6.587
REMARK INTER:                  -6.410
REMARK INTRA:                  -0.178
REMARK UNBOUND:                -0.318
REMARK  Name = 443157
REMARK  8 active torsions:
REMARK  status: ('A' for Active; 'I' for Inactive)
REMARK    1  A    between atoms: C_2  and  C_3
REMARK    2  A    between atoms: C_2  and  C_5
REMARK    3  A    between atoms: C_2  and  C_6
REMARK    4  A    between atoms: C_3  and  C_4
REMARK    5  A    between atoms: C_4  and  C_7
REMARK    6  A    between atoms: C_5  and  C_9
REMARK    7  A    between atoms: C_8  and  C_10
REMARK    8  A    between atoms: C_8  and  C_11
REMARK                            x       y       z     vdW  Elec       q    Type
REMARK                         _______ _______ _______ _____ _____    ______ ____
ROOT
ATOM      1  C   UNL     1      -3.196   7.082 -10.868  0.00  0.00    +0.000 C 
ATOM      2  H   UNL     1      -3.979   6.396 -11.219  0.00  0.00    +0.000 HD
ATOM      3  H   UNL     1      -3.489   8.085 -11.204  0.00  0.00    +0.000 HD
ENDROOT
BRANCH   1   4
ATOM      4  C   UNL     1      -1.861   6.703 -11.516  0.00  0.00    +0.000 C 
ATOM      5  H   UNL     1      -1.026   7.187 -10.999  0.00  0.00    +0.000 HD
ATOM      6  H   UNL     1      -1.682   5.626 -11.422  0.00  0.00    +0.000 HD
BRANCH   4   7
ATOM      7  C   UNL     1      -1.864   7.019 -12.986  0.00  0.00    +0.000 C 
ATOM      8  C   UNL     1      -1.132   7.949 -13.628  0.00  0.00    +0.000 C 
ATOM      9  H   UNL     1      -2.553   6.421 -13.580  0.00  0.00    +0.000 HD
BRANCH   8  10
ATOM     10  C   UNL     1      -1.181   8.217 -15.105  0.00  0.00    +0.000 C 
ATOM     11  H   UNL     1      -1.879   9.025 -15.346  0.00  0.00    +0.000 HD
ATOM     12  H   UNL     1      -0.193   8.508 -15.474  0.00  0.00    +0.000 HD
ATOM     13  H   UNL     1      -1.506   7.321 -15.644  0.00  0.00    +0.000 HD
ENDBRANCH   8  10
BRANCH   8  14
ATOM     14  C   UNL     1      -0.180   8.832 -12.866  0.00  0.00    +0.000 C 
ATOM     15  H   UNL     1      -0.503   8.912 -11.822  0.00  0.00    +0.000 HD
ATOM     16  H   UNL     1      -0.179   9.840 -13.298  0.00  0.00    +0.000 HD
ATOM     17  H   UNL     1       0.852   8.477 -12.843  0.00  0.00    +0.000 HD
ENDBRANCH   8  14
ENDBRANCH   4   7
ENDBRANCH   1   4
BRANCH   1  18
ATOM     18  C   UNL     1      -3.159   7.070  -9.324  0.00  0.00    +0.000 C 
ATOM     19  H   UNL     1      -2.263   6.527  -8.994  0.00  0.00    +0.000 HD
BRANCH  18  20
ATOM     20  C   UNL     1      -4.385   6.362  -8.734  0.00  0.00    +0.000 C 
ATOM     21  H   UNL     1      -4.383   6.404  -7.641  0.00  0.00    +0.000 HD
ATOM     22  H   UNL     1      -5.317   6.837  -9.060  0.00  0.00    +0.000 HD
ATOM     23  H   UNL     1      -4.418   5.310  -9.036  0.00  0.00    +0.000 HD
ENDBRANCH  18  20
BRANCH  18  24
ATOM     24  C   UNL     1      -3.071   8.516  -8.807  0.00  0.00    +0.000 C 
ATOM     25  H   UNL     1      -2.918   8.525  -7.721  0.00  0.00    +0.000 HD
ATOM     26  H   UNL     1      -4.009   9.046  -9.010  0.00  0.00    +0.000 HD
BRANCH  24  28
ATOM     27  O   UNL     1      -2.128  10.199 -10.289  0.00  0.00    +0.000 OA
ATOM     28  C   UNL     1      -1.965   9.331  -9.439  0.00  0.00    +0.000 C 
ATOM     29  H   UNL     1      -0.947   9.080  -9.091  0.00  0.00    +0.000 HD
ENDBRANCH  24  28
ENDBRANCH  18  24
ENDBRANCH   1  18
TORSDOF 8
ENDMDL
MODEL 6
REMARK VINA RESULT:    -4.469     27.794     29.215
REMARK INTER + INTRA:          -6.485
REMARK INTER:                  -6.196
REMARK INTRA:                  -0.289
REMARK UNBOUND:                -0.318
REMARK  Name = 443157
REMARK  8 active torsions:
REMARK  status: ('A' for Active; 'I' for Inactive)
REMARK    1  A    between atoms: C_2  and  C_3
REMARK    2  A    between atoms: C_2  and  C_5
REMARK    3  A    between atoms: C_2  and  C_6
REMARK    4  A    between atoms: C_3  and  C_4
REMARK    5  A    between atoms: C_4  and  C_7
REMARK    6  A    between atoms: C_5  and  C_9
REMARK    7  A    between atoms: C_8  and  C_10
REMARK    8  A    between atoms: C_8  and  C_11
REMARK                            x       y       z     vdW  Elec       q    Type
REMARK                         _______ _______ _______ _____ _____    ______ ____
ROOT
ATOM      1  C   UNL     1      -1.904   7.026 -13.059  0.00  0.00    +0.000 C 
ATOM      2  H   UNL     1      -2.966   6.761 -13.159  0.00  0.00    +0.000 HD
ATOM      3  H   UNL     1      -1.335   6.179 -13.464  0.00  0.00    +0.000 HD
ENDROOT
BRANCH   1   4
ATOM      4  C   UNL     1      -1.561   7.200 -11.576  0.00  0.00    +0.000 C 
ATOM      5  H   UNL     1      -0.576   6.779 -11.353  0.00  0.00    +0.000 HD
ATOM      6  H   UNL     1      -1.492   8.264 -11.322  0.00  0.00    +0.000 HD
BRANCH   4   7
ATOM      7  C   UNL     1      -2.631   6.610 -10.700  0.00  0.00    +0.000 C 
ATOM      8  C   UNL     1      -3.204   7.166  -9.615  0.00  0.00    +0.000 C 
ATOM      9  H   UNL     1      -2.960   5.613 -10.990  0.00  0.00    +0.000 HD
BRANCH   8  10
ATOM     10  C   UNL     1      -4.273   6.522  -8.779  0.00  0.00    +0.000 C 
ATOM     11  H   UNL     1      -5.198   6.380  -9.348  0.00  0.00    +0.000 HD
ATOM     12  H   UNL     1      -3.943   5.540  -8.427  0.00  0.00    +0.000 HD
ATOM     13  H   UNL     1      -4.506   7.146  -7.911  0.00  0.00    +0.000 HD
ENDBRANCH   8  10
BRANCH   8  14
ATOM     14  C   UNL     1      -2.778   8.530  -9.141  0.00  0.00    +0.000 C 
ATOM     15  H   UNL     1      -2.366   8.458  -8.129  0.00  0.00    +0.000 HD
ATOM     16  H   UNL     1      -3.645   9.200  -9.108  0.00  0.00    +0.000 HD
ATOM     17  H   UNL     1      -2.011   9.007  -9.754  0.00  0.00    +0.000 HD
ENDBRANCH   8  14
ENDBRANCH   4   7
ENDBRANCH   1   4
BRANCH   1  18
ATOM     18  C   UNL     1      -1.605   8.276 -13.914  0.00  0.00    +0.000 C 
ATOM     19  H   UNL     1      -2.371   9.037 -13.712  0.00  0.00    +0.000 HD
BRANCH  18  20
ATOM     20  C   UNL     1      -1.639   7.958 -15.413  0.00  0.00    +0.000 C 
ATOM     21  H   UNL     1      -2.213   7.048 -15.616  0.00  0.00    +0.000 HD
ATOM     22  H   UNL     1      -2.119   8.761 -15.983  0.00  0.00    +0.000 HD
ATOM     23  H   UNL     1      -0.628   7.819 -15.812  0.00  0.00    +0.000 HD
ENDBRANCH  18  20
BRANCH  18  24
ATOM     24  C   UNL     1      -0.233   8.847 -13.515  0.00  0.00    +0.000 C 
ATOM     25  H   UNL     1       0.333   8.109 -12.934  0.00  0.00    +0.000 HD
ATOM     26  H   UNL     1      -0.364   9.733 -12.882  0.00  0.00    +0.000 HD
BRANCH  24  28
ATOM     27  O   UNL     1       1.050  10.406 -14.872  0.00  0.00    +0.000 OA
ATOM     28  C   UNL     1       0.623   9.272 -14.687  0.00  0.00    +0.000 C 
ATOM     29  H   UNL     1       0.841   8.472 -15.416  0.00  0.00    +0.000 HD
ENDBRANCH  24  28
ENDBRANCH  18  24
ENDBRANCH   1  18
TORSDOF 8
ENDMDL
MODEL 7
REMARK VINA RESULT:    -4.345      2.419      4.230
REMARK INTER + INTRA:          -6.314
REMARK INTER:                  -5.811
REMARK INTRA:                  -0.504
REMARK UNBOUND:                -0.318
REMARK  Name = 443157
REMARK  8 active torsions:
REMARK  status: ('A' for Active; 'I' for Inactive)
REMARK    1  A    between atoms: C_2  and  C_3
REMARK    2  A    between atoms: C_2  and  C_5
REMARK    3  A    between atoms: C_2  and  C_6
REMARK    4  A    between atoms: C_3  and  C_4
REMARK    5  A    between atoms: C_4  and  C_7
REMARK    6  A    between atoms: C_5  and  C_9
REMARK    7  A    between atoms: C_8  and  C_10
REMARK    8  A    between atoms: C_8  and  C_11
REMARK                            x       y       z     vdW  Elec       q    Type
REMARK                         _______ _______ _______ _____ _____    ______ ____
ROOT
ATOM      1  C   UNL     1     -19.309  -4.989   4.446  0.00  0.00    +0.000 C 
ATOM      2  H   UNL     1     -19.179  -5.930   4.997  0.00  0.00    +0.000 HD
ATOM      3  H   UNL     1     -18.510  -4.318   4.787  0.00  0.00    +0.000 HD
ENDROOT
BRANCH   1   4
ATOM      4  C   UNL     1     -20.667  -4.376   4.802  0.00  0.00    +0.000 C 
ATOM      5  H   UNL     1     -21.182  -4.022   3.902  0.00  0.00    +0.000 HD
ATOM      6  H   UNL     1     -21.327  -5.134   5.240  0.00  0.00    +0.000 HD
BRANCH   4   7
ATOM      7  C   UNL     1     -20.518  -3.283   5.823  0.00  0.00    +0.000 C 
ATOM      8  C   UNL     1     -20.702  -1.961   5.645  0.00  0.00    +0.000 C 
ATOM      9  H   UNL     1     -20.215  -3.622   6.813  0.00  0.00    +0.000 HD
BRANCH   8  10
ATOM     10  C   UNL     1     -20.536  -0.916   6.712  0.00  0.00    +0.000 C 
ATOM     11  H   UNL     1     -20.273  -1.363   7.676  0.00  0.00    +0.000 HD
ATOM     12  H   UNL     1     -19.740  -0.215   6.440  0.00  0.00    +0.000 HD
ATOM     13  H   UNL     1     -21.467  -0.355   6.845  0.00  0.00    +0.000 HD
ENDBRANCH   8  10
BRANCH   8  14
ATOM     14  C   UNL     1     -21.092  -1.418   4.297  0.00  0.00    +0.000 C 
ATOM     15  H   UNL     1     -20.830  -0.357   4.234  0.00  0.00    +0.000 HD
ATOM     16  H   UNL     1     -22.175  -1.509   4.158  0.00  0.00    +0.000 HD
ATOM     17  H   UNL     1     -20.604  -1.907   3.451  0.00  0.00    +0.000 HD
ENDBRANCH   8  14
ENDBRANCH   4   7
ENDBRANCH   1   4
BRANCH   1  18
ATOM     18  C   UNL     1     -19.125  -5.249   2.936  0.00  0.00    +0.000 C 
ATOM     19  H   UNL     1     -19.333  -6.307   2.729  0.00  0.00    +0.000 HD
BRANCH  18  20
ATOM     20  C   UNL     1     -17.691  -4.952   2.482  0.00  0.00    +0.000 C 
ATOM     21  H   UNL     1     -17.348  -5.680   1.740  0.00  0.00    +0.000 HD
ATOM     22  H   UNL     1     -17.617  -3.968   2.006  0.00  0.00    +0.000 HD
ATOM     23  H   UNL     1     -16.995  -4.972   3.327  0.00  0.00    +0.000 HD
ENDBRANCH  18  20
BRANCH  18  24
ATOM     24  C   UNL     1     -20.129  -4.391   2.146  0.00  0.00    +0.000 C 
ATOM     25  H   UNL     1     -19.604  -3.612   1.580  0.00  0.00    +0.000 HD
ATOM     26  H   UNL     1     -20.817  -3.888   2.836  0.00  0.00    +0.000 HD
BRANCH  24  28
ATOM     27  O   UNL     1     -20.948  -6.393   1.034  0.00  0.00    +0.000 OA
ATOM     28  C   UNL     1     -20.982  -5.176   1.175  0.00  0.00    +0.000 C 
ATOM     29  H   UNL     1     -21.659  -4.565   0.553  0.00  0.00    +0.000 HD
ENDBRANCH  24  28
ENDBRANCH  18  24
ENDBRANCH   1  18
TORSDOF 8
ENDMDL
MODEL 8
REMARK VINA RESULT:    -4.314     27.382     28.905
REMARK INTER + INTRA:          -6.271
REMARK INTER:                  -5.836
REMARK INTRA:                  -0.435
REMARK UNBOUND:                -0.318
REMARK  Name = 443157
REMARK  8 active torsions:
REMARK  status: ('A' for Active; 'I' for Inactive)
REMARK    1  A    between atoms: C_2  and  C_3
REMARK    2  A    between atoms: C_2  and  C_5
REMARK    3  A    between atoms: C_2  and  C_6
REMARK    4  A    between atoms: C_3  and  C_4
REMARK    5  A    between atoms: C_4  and  C_7
REMARK    6  A    between atoms: C_5  and  C_9
REMARK    7  A    between atoms: C_8  and  C_10
REMARK    8  A    between atoms: C_8  and  C_11
REMARK                            x       y       z     vdW  Elec       q    Type
REMARK                         _______ _______ _______ _____ _____    ______ ____
ROOT
ATOM      1  C   UNL     1      -0.579   7.990 -12.497  0.00  0.00    +0.000 C 
ATOM      2  H   UNL     1       0.400   7.506 -12.619  0.00  0.00    +0.000 HD
ATOM      3  H   UNL     1      -0.512   8.599 -11.586  0.00  0.00    +0.000 HD
ENDROOT
BRANCH   1   4
ATOM      4  C   UNL     1      -1.656   6.918 -12.308  0.00  0.00    +0.000 C 
ATOM      5  H   UNL     1      -2.494   7.082 -12.993  0.00  0.00    +0.000 HD
ATOM      6  H   UNL     1      -1.259   5.927 -12.560  0.00  0.00    +0.000 HD
BRANCH   4   7
ATOM      7  C   UNL     1      -2.112   6.854 -10.877  0.00  0.00    +0.000 C 
ATOM      8  C   UNL     1      -3.377   6.807 -10.418  0.00  0.00    +0.000 C 
ATOM      9  H   UNL     1      -1.308   6.857 -10.142  0.00  0.00    +0.000 HD
BRANCH   8  10
ATOM     10  C   UNL     1      -3.768   6.744  -8.969  0.00  0.00    +0.000 C 
ATOM     11  H   UNL     1      -3.736   7.732  -8.500  0.00  0.00    +0.000 HD
ATOM     12  H   UNL     1      -4.786   6.356  -8.864  0.00  0.00    +0.000 HD
ATOM     13  H   UNL     1      -3.085   6.089  -8.418  0.00  0.00    +0.000 HD
ENDBRANCH   8  10
BRANCH   8  14
ATOM     14  C   UNL     1      -4.538   6.828 -11.376  0.00  0.00    +0.000 C 
ATOM     15  H   UNL     1      -4.410   6.046 -12.132  0.00  0.00    +0.000 HD
ATOM     16  H   UNL     1      -4.578   7.795 -11.892  0.00  0.00    +0.000 HD
ATOM     17  H   UNL     1      -5.513   6.655 -10.916  0.00  0.00    +0.000 HD
ENDBRANCH   8  14
ENDBRANCH   4   7
ENDBRANCH   1   4
BRANCH   1  18
ATOM     18  C   UNL     1      -0.842   8.925 -13.697  0.00  0.00    +0.000 C 
ATOM     19  H   UNL     1      -1.530   8.427 -14.393  0.00  0.00    +0.000 HD
BRANCH  18  20
ATOM     20  C   UNL     1       0.450   9.246 -14.458  0.00  0.00    +0.000 C 
ATOM     21  H   UNL     1       0.342   9.050 -15.529  0.00  0.00    +0.000 HD
ATOM     22  H   UNL     1       0.720  10.303 -14.362  0.00  0.00    +0.000 HD
ATOM     23  H   UNL     1       1.289   8.648 -14.085  0.00  0.00    +0.000 HD
ENDBRANCH  18  20
BRANCH  18  24
ATOM     24  C   UNL     1      -1.508  10.219 -13.197  0.00  0.00    +0.000 C 
ATOM     25  H   UNL     1      -1.031  11.095 -13.654  0.00  0.00    +0.000 HD
ATOM     26  H   UNL     1      -1.386  10.309 -12.111  0.00  0.00    +0.000 HD
BRANCH  24  28
ATOM     27  O   UNL     1      -3.874   9.973 -12.691  0.00  0.00    +0.000 OA
ATOM     28  C   UNL     1      -2.991  10.298 -13.477  0.00  0.00    +0.000 C 
ATOM     29  H   UNL     1      -3.254  10.665 -14.485  0.00  0.00    +0.000 HD
ENDBRANCH  24  28
ENDBRANCH  18  24
ENDBRANCH   1  18
TORSDOF 8
ENDMDL
MODEL 9
REMARK VINA RESULT:    -4.288     18.006     19.319
REMARK INTER + INTRA:          -6.235
REMARK INTER:                  -5.889
REMARK INTRA:                  -0.347
REMARK UNBOUND:                -0.318
REMARK  Name = 443157
REMARK  8 active torsions:
REMARK  status: ('A' for Active; 'I' for Inactive)
REMARK    1  A    between atoms: C_2  and  C_3
REMARK    2  A    between atoms: C_2  and  C_5
REMARK    3  A    between atoms: C_2  and  C_6
REMARK    4  A    between atoms: C_3  and  C_4
REMARK    5  A    between atoms: C_4  and  C_7
REMARK    6  A    between atoms: C_5  and  C_9
REMARK    7  A    between atoms: C_8  and  C_10
REMARK    8  A    between atoms: C_8  and  C_11
REMARK                            x       y       z     vdW  Elec       q    Type
REMARK                         _______ _______ _______ _____ _____    ______ ____
ROOT
ATOM      1  C   UNL     1      -7.614  11.527   4.747  0.00  0.00    +0.000 C 
ATOM      2  H   UNL     1      -7.838  11.136   3.746  0.00  0.00    +0.000 HD
ATOM      3  H   UNL     1      -6.706  11.011   5.085  0.00  0.00    +0.000 HD
ENDROOT
BRANCH   1   4
ATOM      4  C   UNL     1      -8.768  11.188   5.696  0.00  0.00    +0.000 C 
ATOM      5  H   UNL     1      -9.357  12.081   5.926  0.00  0.00    +0.000 HD
ATOM      6  H   UNL     1      -9.465  10.490   5.216  0.00  0.00    +0.000 HD
BRANCH   4   7
ATOM      7  C   UNL     1      -8.265  10.515   6.942  0.00  0.00    +0.000 C 
ATOM      8  C   UNL     1      -8.951   9.709   7.775  0.00  0.00    +0.000 C 
ATOM      9  H   UNL     1      -7.224  10.725   7.186  0.00  0.00    +0.000 HD
BRANCH   8  10
ATOM     10  C   UNL     1      -8.387   9.065   9.010  0.00  0.00    +0.000 C 
ATOM     11  H   UNL     1      -8.904   9.405   9.914  0.00  0.00    +0.000 HD
ATOM     12  H   UNL     1      -8.492   7.977   8.955  0.00  0.00    +0.000 HD
ATOM     13  H   UNL     1      -7.326   9.311   9.118  0.00  0.00    +0.000 HD
ENDBRANCH   8  10
BRANCH   8  14
ATOM     14  C   UNL     1     -10.401   9.399   7.517  0.00  0.00    +0.000 C 
ATOM     15  H   UNL     1     -10.970  10.331   7.433  0.00  0.00    +0.000 HD
ATOM     16  H   UNL     1     -10.814   8.823   8.353  0.00  0.00    +0.000 HD
ATOM     17  H   UNL     1     -10.590   8.839   6.599  0.00  0.00    +0.000 HD
ENDBRANCH   8  14
ENDBRANCH   4   7
ENDBRANCH   1   4
BRANCH   1  18
ATOM     18  C   UNL     1      -7.316  13.039   4.653  0.00  0.00    +0.000 C 
ATOM     19  H   UNL     1      -6.877  13.254   3.670  0.00  0.00    +0.000 HD
BRANCH  18  20
ATOM     20  C   UNL     1      -6.315  13.486   5.725  0.00  0.00    +0.000 C 
ATOM     21  H   UNL     1      -5.479  12.786   5.809  0.00  0.00    +0.000 HD
ATOM     22  H   UNL     1      -5.879  14.462   5.483  0.00  0.00    +0.000 HD
ATOM     23  H   UNL     1      -6.795  13.564   6.707  0.00  0.00    +0.000 HD
ENDBRANCH  18  20
BRANCH  18  24
ATOM     24  C   UNL     1      -8.632  13.825   4.782  0.00  0.00    +0.000 C 
ATOM     25  H   UNL     1      -8.443  14.820   5.204  0.00  0.00    +0.000 HD
ATOM     26  H   UNL     1      -9.315  13.304   5.464  0.00  0.00    +0.000 HD
BRANCH  24  28
ATOM     27  O   UNL     1     -10.542  13.693   3.282  0.00  0.00    +0.000 OA
ATOM     28  C   UNL     1      -9.373  14.006   3.477  0.00  0.00    +0.000 C 
ATOM     29  H   UNL     1      -8.773  14.442   2.659  0.00  0.00    +0.000 HD
ENDBRANCH  24  28
ENDBRANCH  18  24
ENDBRANCH   1  18
TORSDOF 8
ENDMDL
MODEL 10
REMARK VINA RESULT:    -4.219     18.326     19.582
REMARK INTER + INTRA:          -6.141
REMARK INTER:                  -5.823
REMARK INTRA:                  -0.318
REMARK UNBOUND:                -0.318
REMARK  Name = 443157
REMARK  8 active torsions:
REMARK  status: ('A' for Active; 'I' for Inactive)
REMARK    1  A    between atoms: C_2  and  C_3
REMARK    2  A    between atoms: C_2  and  C_5
REMARK    3  A    between atoms: C_2  and  C_6
REMARK    4  A    between atoms: C_3  and  C_4
REMARK    5  A    between atoms: C_4  and  C_7
REMARK    6  A    between atoms: C_5  and  C_9
REMARK    7  A    between atoms: C_8  and  C_10
REMARK    8  A    between atoms: C_8  and  C_11
REMARK                            x       y       z     vdW  Elec       q    Type
REMARK                         _______ _______ _______ _____ _____    ______ ____
ROOT
ATOM      1  C   UNL     1      -7.980  11.934   6.689  0.00  0.00    +0.000 C 
ATOM      2  H   UNL     1      -7.061  11.770   7.269  0.00  0.00    +0.000 HD
ATOM      3  H   UNL     1      -8.525  12.741   7.194  0.00  0.00    +0.000 HD
ENDROOT
BRANCH   1   4
ATOM      4  C   UNL     1      -8.830  10.660   6.712  0.00  0.00    +0.000 C 
ATOM      5  H   UNL     1      -9.885  10.899   6.879  0.00  0.00    +0.000 HD
ATOM      6  H   UNL     1      -8.792  10.156   5.739  0.00  0.00    +0.000 HD
BRANCH   4   7
ATOM      7  C   UNL     1      -8.313   9.682   7.731  0.00  0.00    +0.000 C 
ATOM      8  C   UNL     1      -8.763   9.487   8.985  0.00  0.00    +0.000 C 
ATOM      9  H   UNL     1      -7.470   9.079   7.397  0.00  0.00    +0.000 HD
BRANCH   8  10
ATOM     10  C   UNL     1      -8.201   8.489   9.957  0.00  0.00    +0.000 C 
ATOM     11  H   UNL     1      -7.172   8.215   9.704  0.00  0.00    +0.000 HD
ATOM     12  H   UNL     1      -8.196   8.903  10.970  0.00  0.00    +0.000 HD
ATOM     13  H   UNL     1      -8.802   7.574   9.955  0.00  0.00    +0.000 HD
ENDBRANCH   8  10
BRANCH   8  14
ATOM     14  C   UNL     1      -9.907  10.305   9.522  0.00  0.00    +0.000 C 
ATOM     15  H   UNL     1      -9.862  10.331  10.616  0.00  0.00    +0.000 HD
ATOM     16  H   UNL     1     -10.860   9.849   9.232  0.00  0.00    +0.000 HD
ATOM     17  H   UNL     1      -9.919  11.345   9.189  0.00  0.00    +0.000 HD
ENDBRANCH   8  14
ENDBRANCH   4   7
ENDBRANCH   1   4
BRANCH   1  18
ATOM     18  C   UNL     1      -7.610  12.404   5.265  0.00  0.00    +0.000 C 
ATOM     19  H   UNL     1      -8.450  12.974   4.849  0.00  0.00    +0.000 HD
BRANCH  18  20
ATOM     20  C   UNL     1      -7.335  11.218   4.332  0.00  0.00    +0.000 C 
ATOM     21  H   UNL     1      -8.029  10.393   4.519  0.00  0.00    +0.000 HD
ATOM     22  H   UNL     1      -7.463  11.498   3.281  0.00  0.00    +0.000 HD
ATOM     23  H   UNL     1      -6.314  10.842   4.460  0.00  0.00    +0.000 HD
ENDBRANCH  18  20
BRANCH  18  24
ATOM     24  C   UNL     1      -6.382  13.328   5.339  0.00  0.00    +0.000 C 
ATOM     25  H   UNL     1      -5.660  13.067   4.555  0.00  0.00    +0.000 HD
ATOM     26  H   UNL     1      -5.876  13.205   6.304  0.00  0.00    +0.000 HD
BRANCH  24  28
ATOM     27  O   UNL     1      -7.710  15.249   4.659  0.00  0.00    +0.000 OA
ATOM     28  C   UNL     1      -6.707  14.798   5.201  0.00  0.00    +0.000 C 
ATOM     29  H   UNL     1      -5.947  15.483   5.618  0.00  0.00    +0.000 HD
ENDBRANCH  24  28
ENDBRANCH  18  24
ENDBRANCH   1  18
TORSDOF 8
ENDMDL
