MODEL 1
REMARK VINA RESULT:    -3.180      0.000      0.000
REMARK INTER + INTRA:          -3.753
REMARK INTER:                  -3.721
REMARK INTRA:                  -0.032
REMARK UNBOUND:                -0.015
REMARK  Name = 263
REMARK  4 active torsions:
REMARK  status: ('A' for Active; 'I' for Inactive)
REMARK    1  A    between atoms: O_1  and  C_4
REMARK    2  A    between atoms: C_2  and  C_3
REMARK    3  A    between atoms: C_2  and  C_4
REMARK    4  A    between atoms: C_3  and  C_5
REMARK                            x       y       z     vdW  Elec       q    Type
REMARK                         _______ _______ _______ _____ _____    ______ ____
ROOT
ATOM      1  C   UNL     1      -2.625   8.996  -8.936  0.00  0.00    +0.000 C 
ATOM      2  H   UNL     1      -3.411   9.692  -8.614  0.00  0.00    +0.000 HD
ATOM      3  H   UNL     1      -1.856   9.029  -8.154  0.00  0.00    +0.000 HD
ENDROOT
BRANCH   1   4
ATOM      4  C   UNL     1      -3.190   7.583  -9.055  0.00  0.00    +0.000 C 
ATOM      5  H   UNL     1      -4.285   7.614  -9.007  0.00  0.00    +0.000 HD
ATOM      6  H   UNL     1      -2.846   6.972  -8.212  0.00  0.00    +0.000 HD
BRANCH   4   7
ATOM      7  C   UNL     1      -2.770   6.922 -10.357  0.00  0.00    +0.000 C 
ATOM      8  H   UNL     1      -1.682   6.823 -10.415  0.00  0.00    +0.000 HD
ATOM      9  H   UNL     1      -3.212   5.924 -10.451  0.00  0.00    +0.000 HD
ATOM     10  H   UNL     1      -3.102   7.521 -11.211  0.00  0.00    +0.000 HD
ENDBRANCH   4   7
ENDBRANCH   1   4
BRANCH   1  11
ATOM     11  C   UNL     1      -2.031   9.476 -10.252  0.00  0.00    +0.000 C 
ATOM     12  H   UNL     1      -1.859   8.645 -10.943  0.00  0.00    +0.000 HD
ATOM     13  H   UNL     1      -2.689  10.202 -10.739  0.00  0.00    +0.000 HD
BRANCH  11  14
ATOM     14  O   UNL     1      -0.787  10.112  -9.989  0.00  0.00    +0.000 OA
ATOM     15  H   UNL     1      -0.545   9.912  -9.069  0.00  0.00    +0.000 HD
ENDBRANCH  11  14
ENDBRANCH   1  11
TORSDOF 4
ENDMDL
MODEL 2
REMARK VINA RESULT:    -3.080      8.301      9.041
REMARK INTER + INTRA:          -3.635
REMARK INTER:                  -3.633
REMARK INTRA:                  -0.003
REMARK UNBOUND:                -0.015
REMARK  Name = 263
REMARK  4 active torsions:
REMARK  status: ('A' for Active; 'I' for Inactive)
REMARK    1  A    between atoms: O_1  and  C_4
REMARK    2  A    between atoms: C_2  and  C_3
REMARK    3  A    between atoms: C_2  and  C_4
REMARK    4  A    between atoms: C_3  and  C_5
REMARK                            x       y       z     vdW  Elec       q    Type
REMARK                         _______ _______ _______ _____ _____    ______ ____
ROOT
ATOM      1  C   UNL     1      -8.264   4.283  -4.662  0.00  0.00    +0.000 C 
ATOM      2  H   UNL     1      -8.602   4.103  -3.633  0.00  0.00    +0.000 HD
ATOM      3  H   UNL     1      -7.198   4.023  -4.678  0.00  0.00    +0.000 HD
ENDROOT
BRANCH   1   4
ATOM      4  C   UNL     1      -9.035   3.393  -5.634  0.00  0.00    +0.000 C 
ATOM      5  H   UNL     1      -8.576   2.398  -5.670  0.00  0.00    +0.000 HD
ATOM      6  H   UNL     1      -8.981   3.813  -6.645  0.00  0.00    +0.000 HD
BRANCH   4   7
ATOM      7  C   UNL     1     -10.492   3.252  -5.225  0.00  0.00    +0.000 C 
ATOM      8  H   UNL     1     -10.847   4.154  -4.717  0.00  0.00    +0.000 HD
ATOM      9  H   UNL     1     -11.129   3.076  -6.099  0.00  0.00    +0.000 HD
ATOM     10  H   UNL     1     -10.614   2.407  -4.541  0.00  0.00    +0.000 HD
ENDBRANCH   4   7
ENDBRANCH   1   4
BRANCH   1  11
ATOM     11  C   UNL     1      -8.430   5.758  -4.998  0.00  0.00    +0.000 C 
ATOM     12  H   UNL     1      -8.245   5.953  -6.059  0.00  0.00    +0.000 HD
ATOM     13  H   UNL     1      -9.439   6.106  -4.753  0.00  0.00    +0.000 HD
BRANCH  11  14
ATOM     14  O   UNL     1      -7.503   6.511  -4.229  0.00  0.00    +0.000 OA
ATOM     15  H   UNL     1      -6.922   6.983  -4.850  0.00  0.00    +0.000 HD
ENDBRANCH  11  14
ENDBRANCH   1  11
TORSDOF 4
ENDMDL
MODEL 3
REMARK VINA RESULT:    -2.970     26.884     27.685
REMARK INTER + INTRA:          -3.506
REMARK INTER:                  -3.470
REMARK INTRA:                  -0.036
REMARK UNBOUND:                -0.015
REMARK  Name = 263
REMARK  4 active torsions:
REMARK  status: ('A' for Active; 'I' for Inactive)
REMARK    1  A    between atoms: O_1  and  C_4
REMARK    2  A    between atoms: C_2  and  C_3
REMARK    3  A    between atoms: C_2  and  C_4
REMARK    4  A    between atoms: C_3  and  C_5
REMARK                            x       y       z     vdW  Elec       q    Type
REMARK                         _______ _______ _______ _____ _____    ______ ____
ROOT
ATOM      1  C   UNL     1     -21.628  -1.834   7.581  0.00  0.00    +0.000 C 
ATOM      2  H   UNL     1     -22.281  -1.905   6.702  0.00  0.00    +0.000 HD
ATOM      3  H   UNL     1     -21.271  -2.854   7.773  0.00  0.00    +0.000 HD
ENDROOT
BRANCH   1   4
ATOM      4  C   UNL     1     -20.446  -0.913   7.288  0.00  0.00    +0.000 C 
ATOM      5  H   UNL     1     -19.505  -1.451   7.454  0.00  0.00    +0.000 HD
ATOM      6  H   UNL     1     -20.459  -0.060   7.976  0.00  0.00    +0.000 HD
BRANCH   4   7
ATOM      7  C   UNL     1     -20.479  -0.403   5.856  0.00  0.00    +0.000 C 
ATOM      8  H   UNL     1     -20.876  -1.164   5.177  0.00  0.00    +0.000 HD
ATOM      9  H   UNL     1     -21.105   0.492   5.774  0.00  0.00    +0.000 HD
ATOM     10  H   UNL     1     -19.469  -0.143   5.523  0.00  0.00    +0.000 HD
ENDBRANCH   4   7
ENDBRANCH   1   4
BRANCH   1  11
ATOM     11  C   UNL     1     -22.436  -1.348   8.775  0.00  0.00    +0.000 C 
ATOM     12  H   UNL     1     -23.512  -1.428   8.594  0.00  0.00    +0.000 HD
ATOM     13  H   UNL     1     -22.192  -1.922   9.675  0.00  0.00    +0.000 HD
BRANCH  11  14
ATOM     14  O   UNL     1     -22.118   0.016   9.020  0.00  0.00    +0.000 OA
ATOM     15  H   UNL     1     -21.247   0.190   8.624  0.00  0.00    +0.000 HD
ENDBRANCH  11  14
ENDBRANCH   1  11
TORSDOF 4
ENDMDL
MODEL 4
REMARK VINA RESULT:    -2.935     25.980     26.668
REMARK INTER + INTRA:          -3.464
REMARK INTER:                  -3.431
REMARK INTRA:                  -0.033
REMARK UNBOUND:                -0.015
REMARK  Name = 263
REMARK  4 active torsions:
REMARK  status: ('A' for Active; 'I' for Inactive)
REMARK    1  A    between atoms: O_1  and  C_4
REMARK    2  A    between atoms: C_2  and  C_3
REMARK    3  A    between atoms: C_2  and  C_4
REMARK    4  A    between atoms: C_3  and  C_5
REMARK                            x       y       z     vdW  Elec       q    Type
REMARK                         _______ _______ _______ _____ _____    ______ ____
ROOT
ATOM      1  C   UNL     1     -19.716  -4.370   4.115  0.00  0.00    +0.000 C 
ATOM      2  H   UNL     1     -19.474  -4.057   3.091  0.00  0.00    +0.000 HD
ATOM      3  H   UNL     1     -19.358  -3.564   4.768  0.00  0.00    +0.000 HD
ENDROOT
BRANCH   1   4
ATOM      4  C   UNL     1     -21.225  -4.539   4.271  0.00  0.00    +0.000 C 
ATOM      5  H   UNL     1     -21.468  -5.598   4.418  0.00  0.00    +0.000 HD
ATOM      6  H   UNL     1     -21.733  -4.213   3.356  0.00  0.00    +0.000 HD
BRANCH   4   7
ATOM      7  C   UNL     1     -21.756  -3.740   5.450  0.00  0.00    +0.000 C 
ATOM      8  H   UNL     1     -22.430  -4.346   6.064  0.00  0.00    +0.000 HD
ATOM      9  H   UNL     1     -20.937  -3.387   6.086  0.00  0.00    +0.000 HD
ATOM     10  H   UNL     1     -22.312  -2.866   5.097  0.00  0.00    +0.000 HD
ENDBRANCH   4   7
ENDBRANCH   1   4
BRANCH   1  11
ATOM     11  C   UNL     1     -18.971  -5.655   4.442  0.00  0.00    +0.000 C 
ATOM     12  H   UNL     1     -19.616  -6.533   4.339  0.00  0.00    +0.000 HD
ATOM     13  H   UNL     1     -18.103  -5.785   3.786  0.00  0.00    +0.000 HD
BRANCH  11  14
ATOM     14  O   UNL     1     -18.506  -5.588   5.783  0.00  0.00    +0.000 OA
ATOM     15  H   UNL     1     -17.586  -5.901   5.791  0.00  0.00    +0.000 HD
ENDBRANCH  11  14
ENDBRANCH   1  11
TORSDOF 4
ENDMDL
MODEL 5
REMARK VINA RESULT:    -2.914      7.777      8.453
REMARK INTER + INTRA:          -3.440
REMARK INTER:                  -3.435
REMARK INTRA:                  -0.005
REMARK UNBOUND:                -0.015
REMARK  Name = 263
REMARK  4 active torsions:
REMARK  status: ('A' for Active; 'I' for Inactive)
REMARK    1  A    between atoms: O_1  and  C_4
REMARK    2  A    between atoms: C_2  and  C_3
REMARK    3  A    between atoms: C_2  and  C_4
REMARK    4  A    between atoms: C_3  and  C_5
REMARK                            x       y       z     vdW  Elec       q    Type
REMARK                         _______ _______ _______ _____ _____    ______ ____
ROOT
ATOM      1  C   UNL     1      -9.846   7.026  -5.654  0.00  0.00    +0.000 C 
ATOM      2  H   UNL     1     -10.149   6.570  -4.702  0.00  0.00    +0.000 HD
ATOM      3  H   UNL     1     -10.401   6.489  -6.433  0.00  0.00    +0.000 HD
ENDROOT
BRANCH   1   4
ATOM      4  C   UNL     1     -10.217   8.506  -5.672  0.00  0.00    +0.000 C 
ATOM      5  H   UNL     1      -9.448   9.089  -5.151  0.00  0.00    +0.000 HD
ATOM      6  H   UNL     1     -11.160   8.660  -5.136  0.00  0.00    +0.000 HD
BRANCH   4   7
ATOM      7  C   UNL     1     -10.356   9.028  -7.093  0.00  0.00    +0.000 C 
ATOM      8  H   UNL     1      -9.699   9.887  -7.262  0.00  0.00    +0.000 HD
ATOM      9  H   UNL     1     -10.103   8.251  -7.823  0.00  0.00    +0.000 HD
ATOM     10  H   UNL     1     -11.386   9.347  -7.281  0.00  0.00    +0.000 HD
ENDBRANCH   4   7
ENDBRANCH   1   4
BRANCH   1  11
ATOM     11  C   UNL     1      -8.353   6.817  -5.862  0.00  0.00    +0.000 C 
ATOM     12  H   UNL     1      -8.152   5.959  -6.510  0.00  0.00    +0.000 HD
ATOM     13  H   UNL     1      -7.891   7.704  -6.308  0.00  0.00    +0.000 HD
BRANCH  11  14
ATOM     14  O   UNL     1      -7.741   6.586  -4.600  0.00  0.00    +0.000 OA
ATOM     15  H   UNL     1      -6.908   6.112  -4.761  0.00  0.00    +0.000 HD
ENDBRANCH  11  14
ENDBRANCH   1  11
TORSDOF 4
ENDMDL
MODEL 6
REMARK VINA RESULT:    -2.815     32.275     32.864
REMARK INTER + INTRA:          -3.324
REMARK INTER:                  -3.291
REMARK INTRA:                  -0.032
REMARK UNBOUND:                -0.015
REMARK  Name = 263
REMARK  4 active torsions:
REMARK  status: ('A' for Active; 'I' for Inactive)
REMARK    1  A    between atoms: O_1  and  C_4
REMARK    2  A    between atoms: C_2  and  C_3
REMARK    3  A    between atoms: C_2  and  C_4
REMARK    4  A    between atoms: C_3  and  C_5
REMARK                            x       y       z     vdW  Elec       q    Type
REMARK                         _______ _______ _______ _____ _____    ______ ____
ROOT
ATOM      1  C   UNL     1      -8.621 -11.197  14.849  0.00  0.00    +0.000 C 
ATOM      2  H   UNL     1      -8.974 -12.114  14.360  0.00  0.00    +0.000 HD
ATOM      3  H   UNL     1      -8.226 -10.562  14.047  0.00  0.00    +0.000 HD
ENDROOT
BRANCH   1   4
ATOM      4  C   UNL     1      -9.779 -10.493  15.551  0.00  0.00    +0.000 C 
ATOM      5  H   UNL     1     -10.480 -10.097  14.806  0.00  0.00    +0.000 HD
ATOM      6  H   UNL     1      -9.402  -9.641  16.128  0.00  0.00    +0.000 HD
BRANCH   4   7
ATOM      7  C   UNL     1     -10.525 -11.437  16.480  0.00  0.00    +0.000 C 
ATOM      8  H   UNL     1     -11.293 -10.904  17.048  0.00  0.00    +0.000 HD
ATOM      9  H   UNL     1     -11.010 -12.241  15.915  0.00  0.00    +0.000 HD
ATOM     10  H   UNL     1      -9.832 -11.895  17.193  0.00  0.00    +0.000 HD
ENDBRANCH   4   7
ENDBRANCH   1   4
BRANCH   1  11
ATOM     11  C   UNL     1      -7.501 -11.540  15.820  0.00  0.00    +0.000 C 
ATOM     12  H   UNL     1      -7.871 -12.110  16.678  0.00  0.00    +0.000 HD
ATOM     13  H   UNL     1      -6.718 -12.126  15.327  0.00  0.00    +0.000 HD
BRANCH  11  14
ATOM     14  O   UNL     1      -6.918 -10.334  16.295  0.00  0.00    +0.000 OA
ATOM     15  H   UNL     1      -6.068 -10.219  15.838  0.00  0.00    +0.000 HD
ENDBRANCH  11  14
ENDBRANCH   1  11
TORSDOF 4
ENDMDL
MODEL 7
REMARK VINA RESULT:    -2.622      2.133      2.810
REMARK INTER + INTRA:          -3.097
REMARK INTER:                  -3.066
REMARK INTRA:                  -0.031
REMARK UNBOUND:                -0.015
REMARK  Name = 263
REMARK  4 active torsions:
REMARK  status: ('A' for Active; 'I' for Inactive)
REMARK    1  A    between atoms: O_1  and  C_4
REMARK    2  A    between atoms: C_2  and  C_3
REMARK    3  A    between atoms: C_2  and  C_4
REMARK    4  A    between atoms: C_3  and  C_5
REMARK                            x       y       z     vdW  Elec       q    Type
REMARK                         _______ _______ _______ _____ _____    ______ ____
ROOT
ATOM      1  C   UNL     1      -3.066   9.927 -10.053  0.00  0.00    +0.000 C 
ATOM      2  H   UNL     1      -3.158  10.995  -9.817  0.00  0.00    +0.000 HD
ATOM      3  H   UNL     1      -4.092   9.540 -10.100  0.00  0.00    +0.000 HD
ENDROOT
BRANCH   1   4
ATOM      4  C   UNL     1      -2.375   9.742 -11.401  0.00  0.00    +0.000 C 
ATOM      5  H   UNL     1      -2.829  10.407 -12.146  0.00  0.00    +0.000 HD
ATOM      6  H   UNL     1      -2.517   8.714 -11.754  0.00  0.00    +0.000 HD
BRANCH   4   7
ATOM      7  C   UNL     1      -0.888  10.041 -11.312  0.00  0.00    +0.000 C 
ATOM      8  H   UNL     1      -0.578  10.189 -10.273  0.00  0.00    +0.000 HD
ATOM      9  H   UNL     1      -0.297   9.221 -11.734  0.00  0.00    +0.000 HD
ATOM     10  H   UNL     1      -0.650  10.953 -11.870  0.00  0.00    +0.000 HD
ENDBRANCH   4   7
ENDBRANCH   1   4
BRANCH   1  11
ATOM     11  C   UNL     1      -2.311   9.224  -8.934  0.00  0.00    +0.000 C 
ATOM     12  H   UNL     1      -1.234   9.199  -9.128  0.00  0.00    +0.000 HD
ATOM     13  H   UNL     1      -2.479   9.721  -7.973  0.00  0.00    +0.000 HD
BRANCH  11  14
ATOM     14  O   UNL     1      -2.784   7.888  -8.830  0.00  0.00    +0.000 OA
ATOM     15  H   UNL     1      -3.721   7.928  -8.574  0.00  0.00    +0.000 HD
ENDBRANCH  11  14
ENDBRANCH   1  11
TORSDOF 4
ENDMDL
MODEL 8
REMARK VINA RESULT:    -2.608     17.339     18.413
REMARK INTER + INTRA:          -3.081
REMARK INTER:                  -3.074
REMARK INTRA:                  -0.007
REMARK UNBOUND:                -0.015
REMARK  Name = 263
REMARK  4 active torsions:
REMARK  status: ('A' for Active; 'I' for Inactive)
REMARK    1  A    between atoms: O_1  and  C_4
REMARK    2  A    between atoms: C_2  and  C_3
REMARK    3  A    between atoms: C_2  and  C_4
REMARK    4  A    between atoms: C_3  and  C_5
REMARK                            x       y       z     vdW  Elec       q    Type
REMARK                         _______ _______ _______ _____ _____    ______ ____
ROOT
ATOM      1  C   UNL     1      11.492  14.782 -19.642  0.00  0.00    +0.000 C 
ATOM      2  H   UNL     1      11.512  14.774 -20.740  0.00  0.00    +0.000 HD
ATOM      3  H   UNL     1      11.236  13.759 -19.340  0.00  0.00    +0.000 HD
ENDROOT
BRANCH   1   4
ATOM      4  C   UNL     1      12.864  15.162 -19.092  0.00  0.00    +0.000 C 
ATOM      5  H   UNL     1      13.346  14.281 -18.652  0.00  0.00    +0.000 HD
ATOM      6  H   UNL     1      12.752  15.904 -18.293  0.00  0.00    +0.000 HD
BRANCH   4   7
ATOM      7  C   UNL     1      13.763  15.728 -20.179  0.00  0.00    +0.000 C 
ATOM      8  H   UNL     1      13.598  16.802 -20.307  0.00  0.00    +0.000 HD
ATOM      9  H   UNL     1      14.820  15.569 -19.936  0.00  0.00    +0.000 HD
ATOM     10  H   UNL     1      13.558  15.236 -21.135  0.00  0.00    +0.000 HD
ENDBRANCH   4   7
ENDBRANCH   1   4
BRANCH   1  11
ATOM     11  C   UNL     1      10.409  15.737 -19.162  0.00  0.00    +0.000 C 
ATOM     12  H   UNL     1      10.685  16.781 -19.339  0.00  0.00    +0.000 HD
ATOM     13  H   UNL     1       9.458  15.540 -19.668  0.00  0.00    +0.000 HD
BRANCH  11  14
ATOM     14  O   UNL     1      10.217  15.549 -17.767  0.00  0.00    +0.000 OA
ATOM     15  H   UNL     1       9.404  16.020 -17.517  0.00  0.00    +0.000 HD
ENDBRANCH  11  14
ENDBRANCH   1  11
TORSDOF 4
ENDMDL
MODEL 9
REMARK VINA RESULT:    -2.603     16.451     17.309
REMARK INTER + INTRA:          -3.074
REMARK INTER:                  -3.059
REMARK INTRA:                  -0.015
REMARK UNBOUND:                -0.015
REMARK  Name = 263
REMARK  4 active torsions:
REMARK  status: ('A' for Active; 'I' for Inactive)
REMARK    1  A    between atoms: O_1  and  C_4
REMARK    2  A    between atoms: C_2  and  C_3
REMARK    3  A    between atoms: C_2  and  C_4
REMARK    4  A    between atoms: C_3  and  C_5
REMARK                            x       y       z     vdW  Elec       q    Type
REMARK                         _______ _______ _______ _____ _____    ______ ____
ROOT
ATOM      1  C   UNL     1     -13.234  -3.044  -3.897  0.00  0.00    +0.000 C 
ATOM      2  H   UNL     1     -14.251  -3.038  -4.313  0.00  0.00    +0.000 HD
ATOM      3  H   UNL     1     -12.562  -2.872  -4.747  0.00  0.00    +0.000 HD
ENDROOT
BRANCH   1   4
ATOM      4  C   UNL     1     -13.077  -1.924  -2.872  0.00  0.00    +0.000 C 
ATOM      5  H   UNL     1     -12.191  -2.108  -2.253  0.00  0.00    +0.000 HD
ATOM      6  H   UNL     1     -13.944  -1.909  -2.201  0.00  0.00    +0.000 HD
BRANCH   4   7
ATOM      7  C   UNL     1     -12.939  -0.568  -3.543  0.00  0.00    +0.000 C 
ATOM      8  H   UNL     1     -11.915  -0.192  -3.464  0.00  0.00    +0.000 HD
ATOM      9  H   UNL     1     -13.203  -0.628  -4.605  0.00  0.00    +0.000 HD
ATOM     10  H   UNL     1     -13.606   0.160  -3.069  0.00  0.00    +0.000 HD
ENDBRANCH   4   7
ENDBRANCH   1   4
BRANCH   1  11
ATOM     11  C   UNL     1     -12.943  -4.408  -3.289  0.00  0.00    +0.000 C 
ATOM     12  H   UNL     1     -13.675  -5.156  -3.608  0.00  0.00    +0.000 HD
ATOM     13  H   UNL     1     -11.945  -4.758  -3.570  0.00  0.00    +0.000 HD
BRANCH  11  14
ATOM     14  O   UNL     1     -12.992  -4.299  -1.873  0.00  0.00    +0.000 OA
ATOM     15  H   UNL     1     -12.350  -3.619  -1.609  0.00  0.00    +0.000 HD
ENDBRANCH  11  14
ENDBRANCH   1  11
TORSDOF 4
ENDMDL
MODEL 10
REMARK VINA RESULT:    -2.526     20.614     21.184
REMARK INTER + INTRA:          -2.984
REMARK INTER:                  -2.981
REMARK INTRA:                  -0.002
REMARK UNBOUND:                -0.015
REMARK  Name = 263
REMARK  4 active torsions:
REMARK  status: ('A' for Active; 'I' for Inactive)
REMARK    1  A    between atoms: O_1  and  C_4
REMARK    2  A    between atoms: C_2  and  C_3
REMARK    3  A    between atoms: C_2  and  C_4
REMARK    4  A    between atoms: C_3  and  C_5
REMARK                            x       y       z     vdW  Elec       q    Type
REMARK                         _______ _______ _______ _____ _____    ______ ____
ROOT
ATOM      1  C   UNL     1      -7.996   8.653  10.215  0.00  0.00    +0.000 C 
ATOM      2  H   UNL     1      -7.497   7.949  10.893  0.00  0.00    +0.000 HD
ATOM      3  H   UNL     1      -8.019   8.159   9.235  0.00  0.00    +0.000 HD
ENDROOT
BRANCH   1   4
ATOM      4  C   UNL     1      -9.418   8.930  10.695  0.00  0.00    +0.000 C 
ATOM      5  H   UNL     1     -10.091   9.014   9.834  0.00  0.00    +0.000 HD
ATOM      6  H   UNL     1      -9.451   9.888  11.228  0.00  0.00    +0.000 HD
BRANCH   4   7
ATOM      7  C   UNL     1      -9.922   7.828  11.612  0.00  0.00    +0.000 C 
ATOM      8  H   UNL     1      -9.093   7.349  12.143  0.00  0.00    +0.000 HD
ATOM      9  H   UNL     1     -10.622   8.226  12.355  0.00  0.00    +0.000 HD
ATOM     10  H   UNL     1     -10.443   7.060  11.032  0.00  0.00    +0.000 HD
ENDBRANCH   4   7
ENDBRANCH   1   4
BRANCH   1  11
ATOM     11  C   UNL     1      -7.176   9.931  10.117  0.00  0.00    +0.000 C 
ATOM     12  H   UNL     1      -7.234  10.372   9.118  0.00  0.00    +0.000 HD
ATOM     13  H   UNL     1      -7.519  10.675  10.844  0.00  0.00    +0.000 HD
BRANCH  11  14
ATOM     14  O   UNL     1      -5.817   9.627  10.402  0.00  0.00    +0.000 OA
ATOM     15  H   UNL     1      -5.418   9.279   9.587  0.00  0.00    +0.000 HD
ENDBRANCH  11  14
ENDBRANCH   1  11
TORSDOF 4
ENDMDL
