MODEL 1
REMARK VINA RESULT:    -5.337      0.000      0.000
REMARK INTER + INTRA:          -9.398
REMARK INTER:                  -8.041
REMARK INTRA:                  -1.357
REMARK UNBOUND:                -0.628
REMARK  Name = 8193
REMARK  12 active torsions:
REMARK  status: ('A' for Active; 'I' for Inactive)
REMARK    1  A    between atoms: O_1  and  C_12
REMARK    2  A    between atoms: C_2  and  C_3
REMARK    3  A    between atoms: C_2  and  C_4
REMARK    4  A    between atoms: C_3  and  C_5
REMARK    5  A    between atoms: C_4  and  C_6
REMARK    6  A    between atoms: C_5  and  C_7
REMARK    7  A    between atoms: C_6  and  C_8
REMARK    8  A    between atoms: C_7  and  C_9
REMARK    9  A    between atoms: C_8  and  C_10
REMARK   10  A    between atoms: C_9  and  C_11
REMARK   11  A    between atoms: C_10  and  C_12
REMARK   12  A    between atoms: C_11  and  C_13
REMARK                            x       y       z     vdW  Elec       q    Type
REMARK                         _______ _______ _______ _____ _____    ______ ____
ROOT
ATOM      1  C   UNL     1       5.778   8.021   2.291  0.00  0.00    +0.000 C 
ATOM      2  H   UNL     1       5.629   7.873   1.215  0.00  0.00    +0.000 HD
ATOM      3  H   UNL     1       5.733   7.030   2.758  0.00  0.00    +0.000 HD
ENDROOT
BRANCH   1   4
ATOM      4  C   UNL     1       4.634   8.882   2.839  0.00  0.00    +0.000 C 
ATOM      5  H   UNL     1       5.049   9.843   3.167  0.00  0.00    +0.000 HD
ATOM      6  H   UNL     1       4.229   8.399   3.738  0.00  0.00    +0.000 HD
BRANCH   4   7
ATOM      7  C   UNL     1       3.475   9.150   1.872  0.00  0.00    +0.000 C 
ATOM      8  H   UNL     1       3.098  10.167   2.032  0.00  0.00    +0.000 HD
ATOM      9  H   UNL     1       2.652   8.466   2.111  0.00  0.00    +0.000 HD
BRANCH   7  10
ATOM     10  C   UNL     1       3.859   8.977   0.400  0.00  0.00    +0.000 C 
ATOM     11  H   UNL     1       3.254   8.173  -0.037  0.00  0.00    +0.000 HD
ATOM     12  H   UNL     1       4.906   8.656   0.336  0.00  0.00    +0.000 HD
BRANCH  10  13
ATOM     13  C   UNL     1       3.666  10.249  -0.432  0.00  0.00    +0.000 C 
ATOM     14  H   UNL     1       4.330  10.213  -1.304  0.00  0.00    +0.000 HD
ATOM     15  H   UNL     1       2.640  10.266  -0.818  0.00  0.00    +0.000 HD
BRANCH  13  16
ATOM     16  C   UNL     1       3.934  11.536   0.349  0.00  0.00    +0.000 C 
ATOM     17  H   UNL     1       3.698  11.384   1.408  0.00  0.00    +0.000 HD
ATOM     18  H   UNL     1       3.281  12.335  -0.018  0.00  0.00    +0.000 HD
BRANCH  16  19
ATOM     19  C   UNL     1       5.385  11.975   0.212  0.00  0.00    +0.000 C 
ATOM     20  H   UNL     1       5.558  12.459  -0.755  0.00  0.00    +0.000 HD
ATOM     21  H   UNL     1       5.640  12.690   1.001  0.00  0.00    +0.000 HD
ATOM     22  H   UNL     1       6.063  11.119   0.296  0.00  0.00    +0.000 HD
ENDBRANCH  16  19
ENDBRANCH  13  16
ENDBRANCH  10  13
ENDBRANCH   7  10
ENDBRANCH   4   7
ENDBRANCH   1   4
BRANCH   1  23
ATOM     23  C   UNL     1       7.162   8.627   2.536  0.00  0.00    +0.000 C 
ATOM     24  H   UNL     1       7.852   7.834   2.853  0.00  0.00    +0.000 HD
ATOM     25  H   UNL     1       7.099   9.342   3.366  0.00  0.00    +0.000 HD
BRANCH  23  26
ATOM     26  C   UNL     1       7.740   9.334   1.306  0.00  0.00    +0.000 C 
ATOM     27  H   UNL     1       7.379  10.369   1.285  0.00  0.00    +0.000 HD
ATOM     28  H   UNL     1       8.832   9.380   1.402  0.00  0.00    +0.000 HD
BRANCH  26  29
ATOM     29  C   UNL     1       7.380   8.645  -0.013  0.00  0.00    +0.000 C 
ATOM     30  H   UNL     1       6.296   8.489  -0.060  0.00  0.00    +0.000 HD
ATOM     31  H   UNL     1       7.852   7.657  -0.054  0.00  0.00    +0.000 HD
BRANCH  29  32
ATOM     32  C   UNL     1       7.833   9.481  -1.215  0.00  0.00    +0.000 C 
ATOM     33  H   UNL     1       7.292   9.170  -2.117  0.00  0.00    +0.000 HD
ATOM     34  H   UNL     1       7.574  10.536  -1.061  0.00  0.00    +0.000 HD
BRANCH  32  35
ATOM     35  C   UNL     1       9.332   9.364  -1.465  0.00  0.00    +0.000 C 
ATOM     36  H   UNL     1       9.614   9.902  -2.376  0.00  0.00    +0.000 HD
ATOM     37  H   UNL     1       9.896   9.776  -0.622  0.00  0.00    +0.000 HD
BRANCH  35  38
ATOM     38  O   UNL     1       9.691   7.998  -1.620  0.00  0.00    +0.000 OA
ATOM     39  H   UNL     1      10.261   7.767  -0.867  0.00  0.00    +0.000 HD
ENDBRANCH  35  38
ENDBRANCH  32  35
ENDBRANCH  29  32
ENDBRANCH  26  29
ENDBRANCH  23  26
ENDBRANCH   1  23
TORSDOF 12
ENDMDL
MODEL 2
REMARK VINA RESULT:    -5.118     13.439     15.179
REMARK INTER + INTRA:          -9.038
REMARK INTER:                  -8.092
REMARK INTRA:                  -0.946
REMARK UNBOUND:                -0.628
REMARK  Name = 8193
REMARK  12 active torsions:
REMARK  status: ('A' for Active; 'I' for Inactive)
REMARK    1  A    between atoms: O_1  and  C_12
REMARK    2  A    between atoms: C_2  and  C_3
REMARK    3  A    between atoms: C_2  and  C_4
REMARK    4  A    between atoms: C_3  and  C_5
REMARK    5  A    between atoms: C_4  and  C_6
REMARK    6  A    between atoms: C_5  and  C_7
REMARK    7  A    between atoms: C_6  and  C_8
REMARK    8  A    between atoms: C_7  and  C_9
REMARK    9  A    between atoms: C_8  and  C_10
REMARK   10  A    between atoms: C_9  and  C_11
REMARK   11  A    between atoms: C_10  and  C_12
REMARK   12  A    between atoms: C_11  and  C_13
REMARK                            x       y       z     vdW  Elec       q    Type
REMARK                         _______ _______ _______ _____ _____    ______ ____
ROOT
ATOM      1  C   UNL     1      -1.278  10.116 -10.417  0.00  0.00    +0.000 C 
ATOM      2  H   UNL     1      -0.557   9.440  -9.942  0.00  0.00    +0.000 HD
ATOM      3  H   UNL     1      -1.059  11.125 -10.047  0.00  0.00    +0.000 HD
ENDROOT
BRANCH   1   4
ATOM      4  C   UNL     1      -2.694   9.723  -9.981  0.00  0.00    +0.000 C 
ATOM      5  H   UNL     1      -3.190   9.224 -10.822  0.00  0.00    +0.000 HD
ATOM      6  H   UNL     1      -3.268  10.637  -9.783  0.00  0.00    +0.000 HD
BRANCH   4   7
ATOM      7  C   UNL     1      -2.787   8.818  -8.746  0.00  0.00    +0.000 C 
ATOM      8  H   UNL     1      -3.361   9.332  -7.965  0.00  0.00    +0.000 HD
ATOM      9  H   UNL     1      -1.778   8.662  -8.348  0.00  0.00    +0.000 HD
BRANCH   7  10
ATOM     10  C   UNL     1      -3.429   7.459  -9.036  0.00  0.00    +0.000 C 
ATOM     11  H   UNL     1      -4.521   7.565  -9.012  0.00  0.00    +0.000 HD
ATOM     12  H   UNL     1      -3.162   6.757  -8.237  0.00  0.00    +0.000 HD
BRANCH  10  13
ATOM     13  C   UNL     1      -3.019   6.869 -10.389  0.00  0.00    +0.000 C 
ATOM     14  H   UNL     1      -2.237   7.497 -10.833  0.00  0.00    +0.000 HD
ATOM     15  H   UNL     1      -2.572   5.881 -10.221  0.00  0.00    +0.000 HD
BRANCH  13  16
ATOM     16  C   UNL     1      -4.179   6.740 -11.376  0.00  0.00    +0.000 C 
ATOM     17  H   UNL     1      -5.043   7.304 -11.009  0.00  0.00    +0.000 HD
ATOM     18  H   UNL     1      -4.485   5.690 -11.453  0.00  0.00    +0.000 HD
BRANCH  16  19
ATOM     19  C   UNL     1      -3.790   7.249 -12.757  0.00  0.00    +0.000 C 
ATOM     20  H   UNL     1      -4.252   6.641 -13.542  0.00  0.00    +0.000 HD
ATOM     21  H   UNL     1      -4.124   8.283 -12.886  0.00  0.00    +0.000 HD
ATOM     22  H   UNL     1      -2.705   7.221 -12.893  0.00  0.00    +0.000 HD
ENDBRANCH  16  19
ENDBRANCH  13  16
ENDBRANCH  10  13
ENDBRANCH   7  10
ENDBRANCH   4   7
ENDBRANCH   1   4
BRANCH   1  23
ATOM     23  C   UNL     1      -1.082  10.086 -11.935  0.00  0.00    +0.000 C 
ATOM     24  H   UNL     1      -0.472  10.948 -12.237  0.00  0.00    +0.000 HD
ATOM     25  H   UNL     1      -2.057  10.201 -12.425  0.00  0.00    +0.000 HD
BRANCH  23  26
ATOM     26  C   UNL     1      -0.416   8.800 -12.434  0.00  0.00    +0.000 C 
ATOM     27  H   UNL     1       0.642   8.809 -12.146  0.00  0.00    +0.000 HD
ATOM     28  H   UNL     1      -0.875   7.942 -11.928  0.00  0.00    +0.000 HD
BRANCH  26  29
ATOM     29  C   UNL     1      -0.527   8.609 -13.949  0.00  0.00    +0.000 C 
ATOM     30  H   UNL     1      -1.502   8.971 -14.293  0.00  0.00    +0.000 HD
ATOM     31  H   UNL     1      -0.473   7.541 -14.191  0.00  0.00    +0.000 HD
BRANCH  29  32
ATOM     32  C   UNL     1       0.590   9.358 -14.684  0.00  0.00    +0.000 C 
ATOM     33  H   UNL     1       0.514  10.435 -14.490  0.00  0.00    +0.000 HD
ATOM     34  H   UNL     1       1.570   9.052 -14.295  0.00  0.00    +0.000 HD
BRANCH  32  35
ATOM     35  C   UNL     1       0.552   9.117 -16.189  0.00  0.00    +0.000 C 
ATOM     36  H   UNL     1      -0.355   8.571 -16.468  0.00  0.00    +0.000 HD
ATOM     37  H   UNL     1       0.574  10.067 -16.731  0.00  0.00    +0.000 HD
BRANCH  35  38
ATOM     38  O   UNL     1       1.680   8.348 -16.585  0.00  0.00    +0.000 OA
ATOM     39  H   UNL     1       2.340   8.428 -15.876  0.00  0.00    +0.000 HD
ENDBRANCH  35  38
ENDBRANCH  32  35
ENDBRANCH  29  32
ENDBRANCH  26  29
ENDBRANCH  23  26
ENDBRANCH   1  23
TORSDOF 12
ENDMDL
MODEL 3
REMARK VINA RESULT:    -5.056      1.751      3.786
REMARK INTER + INTRA:          -8.936
REMARK INTER:                  -7.708
REMARK INTRA:                  -1.229
REMARK UNBOUND:                -0.628
REMARK  Name = 8193
REMARK  12 active torsions:
REMARK  status: ('A' for Active; 'I' for Inactive)
REMARK    1  A    between atoms: O_1  and  C_12
REMARK    2  A    between atoms: C_2  and  C_3
REMARK    3  A    between atoms: C_2  and  C_4
REMARK    4  A    between atoms: C_3  and  C_5
REMARK    5  A    between atoms: C_4  and  C_6
REMARK    6  A    between atoms: C_5  and  C_7
REMARK    7  A    between atoms: C_6  and  C_8
REMARK    8  A    between atoms: C_7  and  C_9
REMARK    9  A    between atoms: C_8  and  C_10
REMARK   10  A    between atoms: C_9  and  C_11
REMARK   11  A    between atoms: C_10  and  C_12
REMARK   12  A    between atoms: C_11  and  C_13
REMARK                            x       y       z     vdW  Elec       q    Type
REMARK                         _______ _______ _______ _____ _____    ______ ____
ROOT
ATOM      1  C   UNL     1       3.251   9.023   2.498  0.00  0.00    +0.000 C 
ATOM      2  H   UNL     1       2.952  10.078   2.522  0.00  0.00    +0.000 HD
ATOM      3  H   UNL     1       2.366   8.435   2.769  0.00  0.00    +0.000 HD
ENDROOT
BRANCH   1   4
ATOM      4  C   UNL     1       4.345   8.790   3.547  0.00  0.00    +0.000 C 
ATOM      5  H   UNL     1       3.944   9.063   4.531  0.00  0.00    +0.000 HD
ATOM      6  H   UNL     1       5.174   9.481   3.350  0.00  0.00    +0.000 HD
BRANCH   4   7
ATOM      7  C   UNL     1       4.910   7.367   3.622  0.00  0.00    +0.000 C 
ATOM      8  H   UNL     1       4.195   6.671   3.167  0.00  0.00    +0.000 HD
ATOM      9  H   UNL     1       5.005   7.081   4.677  0.00  0.00    +0.000 HD
BRANCH   7  10
ATOM     10  C   UNL     1       6.270   7.217   2.937  0.00  0.00    +0.000 C 
ATOM     11  H   UNL     1       6.123   6.810   1.929  0.00  0.00    +0.000 HD
ATOM     12  H   UNL     1       6.873   6.485   3.489  0.00  0.00    +0.000 HD
BRANCH  10  13
ATOM     13  C   UNL     1       7.046   8.534   2.830  0.00  0.00    +0.000 C 
ATOM     14  H   UNL     1       6.459   9.336   3.294  0.00  0.00    +0.000 HD
ATOM     15  H   UNL     1       7.973   8.446   3.411  0.00  0.00    +0.000 HD
BRANCH  13  16
ATOM     16  C   UNL     1       7.385   8.928   1.393  0.00  0.00    +0.000 C 
ATOM     17  H   UNL     1       6.483   9.285   0.883  0.00  0.00    +0.000 HD
ATOM     18  H   UNL     1       7.744   8.051   0.842  0.00  0.00    +0.000 HD
BRANCH  16  19
ATOM     19  C   UNL     1       8.451  10.013   1.352  0.00  0.00    +0.000 C 
ATOM     20  H   UNL     1       8.008  11.004   1.495  0.00  0.00    +0.000 HD
ATOM     21  H   UNL     1       9.185   9.852   2.149  0.00  0.00    +0.000 HD
ATOM     22  H   UNL     1       8.981  10.007   0.394  0.00  0.00    +0.000 HD
ENDBRANCH  16  19
ENDBRANCH  13  16
ENDBRANCH  10  13
ENDBRANCH   7  10
ENDBRANCH   4   7
ENDBRANCH   1   4
BRANCH   1  23
ATOM     23  C   UNL     1       3.685   8.648   1.078  0.00  0.00    +0.000 C 
ATOM     24  H   UNL     1       3.004   7.883   0.683  0.00  0.00    +0.000 HD
ATOM     25  H   UNL     1       4.683   8.195   1.116  0.00  0.00    +0.000 HD
BRANCH  23  26
ATOM     26  C   UNL     1       3.710   9.841   0.118  0.00  0.00    +0.000 C 
ATOM     27  H   UNL     1       4.355   9.602  -0.736  0.00  0.00    +0.000 HD
ATOM     28  H   UNL     1       2.700   9.999  -0.281  0.00  0.00    +0.000 HD
BRANCH  26  29
ATOM     29  C   UNL     1       4.199  11.136   0.774  0.00  0.00    +0.000 C 
ATOM     30  H   UNL     1       4.559  10.920   1.786  0.00  0.00    +0.000 HD
ATOM     31  H   UNL     1       3.363  11.839   0.870  0.00  0.00    +0.000 HD
BRANCH  29  32
ATOM     32  C   UNL     1       5.321  11.782  -0.046  0.00  0.00    +0.000 C 
ATOM     33  H   UNL     1       5.001  12.764  -0.415  0.00  0.00    +0.000 HD
ATOM     34  H   UNL     1       6.193  11.972   0.591  0.00  0.00    +0.000 HD
BRANCH  32  35
ATOM     35  C   UNL     1       5.742  10.916  -1.228  0.00  0.00    +0.000 C 
ATOM     36  H   UNL     1       5.767   9.860  -0.942  0.00  0.00    +0.000 HD
ATOM     37  H   UNL     1       5.046  11.040  -2.063  0.00  0.00    +0.000 HD
BRANCH  35  38
ATOM     38  O   UNL     1       7.040  11.295  -1.666  0.00  0.00    +0.000 OA
ATOM     39  H   UNL     1       7.251  10.743  -2.439  0.00  0.00    +0.000 HD
ENDBRANCH  35  38
ENDBRANCH  32  35
ENDBRANCH  29  32
ENDBRANCH  26  29
ENDBRANCH  23  26
ENDBRANCH   1  23
TORSDOF 12
ENDMDL
MODEL 4
REMARK VINA RESULT:    -4.960     13.404     15.102
REMARK INTER + INTRA:          -8.777
REMARK INTER:                  -7.468
REMARK INTRA:                  -1.309
REMARK UNBOUND:                -0.628
REMARK  Name = 8193
REMARK  12 active torsions:
REMARK  status: ('A' for Active; 'I' for Inactive)
REMARK    1  A    between atoms: O_1  and  C_12
REMARK    2  A    between atoms: C_2  and  C_3
REMARK    3  A    between atoms: C_2  and  C_4
REMARK    4  A    between atoms: C_3  and  C_5
REMARK    5  A    between atoms: C_4  and  C_6
REMARK    6  A    between atoms: C_5  and  C_7
REMARK    7  A    between atoms: C_6  and  C_8
REMARK    8  A    between atoms: C_7  and  C_9
REMARK    9  A    between atoms: C_8  and  C_10
REMARK   10  A    between atoms: C_9  and  C_11
REMARK   11  A    between atoms: C_10  and  C_12
REMARK   12  A    between atoms: C_11  and  C_13
REMARK                            x       y       z     vdW  Elec       q    Type
REMARK                         _______ _______ _______ _____ _____    ______ ____
ROOT
ATOM      1  C   UNL     1      -2.220   9.279  -9.317  0.00  0.00    +0.000 C 
ATOM      2  H   UNL     1      -1.260   8.890  -9.678  0.00  0.00    +0.000 HD
ATOM      3  H   UNL     1      -1.993   9.973  -8.498  0.00  0.00    +0.000 HD
ENDROOT
BRANCH   1   4
ATOM      4  C   UNL     1      -3.054   8.117  -8.767  0.00  0.00    +0.000 C 
ATOM      5  H   UNL     1      -4.065   8.485  -8.555  0.00  0.00    +0.000 HD
ATOM      6  H   UNL     1      -2.631   7.805  -7.803  0.00  0.00    +0.000 HD
BRANCH   4   7
ATOM      7  C   UNL     1      -3.159   6.882  -9.669  0.00  0.00    +0.000 C 
ATOM      8  H   UNL     1      -2.866   5.992  -9.099  0.00  0.00    +0.000 HD
ATOM      9  H   UNL     1      -2.438   6.984 -10.490  0.00  0.00    +0.000 HD
BRANCH   7  10
ATOM     10  C   UNL     1      -4.558   6.672 -10.253  0.00  0.00    +0.000 C 
ATOM     11  H   UNL     1      -5.267   7.328  -9.733  0.00  0.00    +0.000 HD
ATOM     12  H   UNL     1      -4.879   5.641 -10.059  0.00  0.00    +0.000 HD
BRANCH  10  13
ATOM     13  C   UNL     1      -4.638   6.952 -11.758  0.00  0.00    +0.000 C 
ATOM     14  H   UNL     1      -5.408   6.311 -12.203  0.00  0.00    +0.000 HD
ATOM     15  H   UNL     1      -4.965   7.989 -11.906  0.00  0.00    +0.000 HD
BRANCH  13  16
ATOM     16  C   UNL     1      -3.315   6.730 -12.491  0.00  0.00    +0.000 C 
ATOM     17  H   UNL     1      -3.026   5.674 -12.423  0.00  0.00    +0.000 HD
ATOM     18  H   UNL     1      -2.522   7.315 -12.011  0.00  0.00    +0.000 HD
BRANCH  16  19
ATOM     19  C   UNL     1      -3.418   7.134 -13.954  0.00  0.00    +0.000 C 
ATOM     20  H   UNL     1      -3.482   8.222 -14.057  0.00  0.00    +0.000 HD
ATOM     21  H   UNL     1      -2.534   6.793 -14.504  0.00  0.00    +0.000 HD
ATOM     22  H   UNL     1      -4.303   6.690 -14.422  0.00  0.00    +0.000 HD
ENDBRANCH  16  19
ENDBRANCH  13  16
ENDBRANCH  10  13
ENDBRANCH   7  10
ENDBRANCH   4   7
ENDBRANCH   1   4
BRANCH   1  23
ATOM     23  C   UNL     1      -2.916  10.045 -10.444  0.00  0.00    +0.000 C 
ATOM     24  H   UNL     1      -3.008  11.102 -10.160  0.00  0.00    +0.000 HD
ATOM     25  H   UNL     1      -3.936   9.659 -10.562  0.00  0.00    +0.000 HD
BRANCH  23  26
ATOM     26  C   UNL     1      -2.183   9.947 -11.785  0.00  0.00    +0.000 C 
ATOM     27  H   UNL     1      -2.665   9.181 -12.403  0.00  0.00    +0.000 HD
ATOM     28  H   UNL     1      -2.289  10.900 -12.320  0.00  0.00    +0.000 HD
BRANCH  26  29
ATOM     29  C   UNL     1      -0.695   9.618 -11.639  0.00  0.00    +0.000 C 
ATOM     30  H   UNL     1      -0.520   9.137 -10.670  0.00  0.00    +0.000 HD
ATOM     31  H   UNL     1      -0.108  10.544 -11.653  0.00  0.00    +0.000 HD
BRANCH  29  32
ATOM     32  C   UNL     1      -0.219   8.694 -12.766  0.00  0.00    +0.000 C 
ATOM     33  H   UNL     1       0.636   8.097 -12.429  0.00  0.00    +0.000 HD
ATOM     34  H   UNL     1      -1.006   7.972 -13.020  0.00  0.00    +0.000 HD
BRANCH  32  35
ATOM     35  C   UNL     1       0.174   9.469 -14.019  0.00  0.00    +0.000 C 
ATOM     36  H   UNL     1      -0.668  10.068 -14.381  0.00  0.00    +0.000 HD
ATOM     37  H   UNL     1       1.017  10.134 -13.810  0.00  0.00    +0.000 HD
BRANCH  35  38
ATOM     38  O   UNL     1       0.559   8.565 -15.046  0.00  0.00    +0.000 OA
ATOM     39  H   UNL     1      -0.163   7.922 -15.144  0.00  0.00    +0.000 HD
ENDBRANCH  35  38
ENDBRANCH  32  35
ENDBRANCH  29  32
ENDBRANCH  26  29
ENDBRANCH  23  26
ENDBRANCH   1  23
TORSDOF 12
ENDMDL
MODEL 5
REMARK VINA RESULT:    -4.711     14.590     15.949
REMARK INTER + INTRA:          -8.369
REMARK INTER:                  -7.700
REMARK INTRA:                  -0.670
REMARK UNBOUND:                -0.628
REMARK  Name = 8193
REMARK  12 active torsions:
REMARK  status: ('A' for Active; 'I' for Inactive)
REMARK    1  A    between atoms: O_1  and  C_12
REMARK    2  A    between atoms: C_2  and  C_3
REMARK    3  A    between atoms: C_2  and  C_4
REMARK    4  A    between atoms: C_3  and  C_5
REMARK    5  A    between atoms: C_4  and  C_6
REMARK    6  A    between atoms: C_5  and  C_7
REMARK    7  A    between atoms: C_6  and  C_8
REMARK    8  A    between atoms: C_7  and  C_9
REMARK    9  A    between atoms: C_8  and  C_10
REMARK   10  A    between atoms: C_9  and  C_11
REMARK   11  A    between atoms: C_10  and  C_12
REMARK   12  A    between atoms: C_11  and  C_13
REMARK                            x       y       z     vdW  Elec       q    Type
REMARK                         _______ _______ _______ _____ _____    ______ ____
ROOT
ATOM      1  C   UNL     1      -9.175   9.809   7.239  0.00  0.00    +0.000 C 
ATOM      2  H   UNL     1      -8.743   8.919   6.766  0.00  0.00    +0.000 HD
ATOM      3  H   UNL     1     -10.236   9.832   6.962  0.00  0.00    +0.000 HD
ENDROOT
BRANCH   1   4
ATOM      4  C   UNL     1      -8.487  11.058   6.675  0.00  0.00    +0.000 C 
ATOM      5  H   UNL     1      -7.558  11.224   7.233  0.00  0.00    +0.000 HD
ATOM      6  H   UNL     1      -9.125  11.930   6.872  0.00  0.00    +0.000 HD
BRANCH   4   7
ATOM      7  C   UNL     1      -8.164  11.025   5.177  0.00  0.00    +0.000 C 
ATOM      8  H   UNL     1      -9.067  11.276   4.607  0.00  0.00    +0.000 HD
ATOM      9  H   UNL     1      -7.887  10.001   4.899  0.00  0.00    +0.000 HD
BRANCH   7  10
ATOM     10  C   UNL     1      -7.033  11.977   4.778  0.00  0.00    +0.000 C 
ATOM     11  H   UNL     1      -6.737  11.770   3.743  0.00  0.00    +0.000 HD
ATOM     12  H   UNL     1      -6.155  11.775   5.405  0.00  0.00    +0.000 HD
BRANCH  10  13
ATOM     13  C   UNL     1      -7.412  13.456   4.898  0.00  0.00    +0.000 C 
ATOM     14  H   UNL     1      -7.547  13.876   3.893  0.00  0.00    +0.000 HD
ATOM     15  H   UNL     1      -8.383  13.531   5.403  0.00  0.00    +0.000 HD
BRANCH  13  16
ATOM     16  C   UNL     1      -6.381  14.292   5.656  0.00  0.00    +0.000 C 
ATOM     17  H   UNL     1      -6.699  15.341   5.682  0.00  0.00    +0.000 HD
ATOM     18  H   UNL     1      -5.419  14.258   5.132  0.00  0.00    +0.000 HD
BRANCH  16  19
ATOM     19  C   UNL     1      -6.193  13.784   7.078  0.00  0.00    +0.000 C 
ATOM     20  H   UNL     1      -6.107  12.693   7.096  0.00  0.00    +0.000 HD
ATOM     21  H   UNL     1      -5.281  14.205   7.513  0.00  0.00    +0.000 HD
ATOM     22  H   UNL     1      -7.038  14.074   7.712  0.00  0.00    +0.000 HD
ENDBRANCH  16  19
ENDBRANCH  13  16
ENDBRANCH  10  13
ENDBRANCH   7  10
ENDBRANCH   4   7
ENDBRANCH   1   4
BRANCH   1  23
ATOM     23  C   UNL     1      -9.057   9.688   8.760  0.00  0.00    +0.000 C 
ATOM     24  H   UNL     1     -10.032   9.405   9.177  0.00  0.00    +0.000 HD
ATOM     25  H   UNL     1      -8.805  10.670   9.180  0.00  0.00    +0.000 HD
BRANCH  23  26
ATOM     26  C   UNL     1      -8.005   8.667   9.205  0.00  0.00    +0.000 C 
ATOM     27  H   UNL     1      -8.494   7.881   9.794  0.00  0.00    +0.000 HD
ATOM     28  H   UNL     1      -7.582   8.181   8.317  0.00  0.00    +0.000 HD
BRANCH  26  29
ATOM     29  C   UNL     1      -6.871   9.284  10.028  0.00  0.00    +0.000 C 
ATOM     30  H   UNL     1      -5.929   9.199   9.474  0.00  0.00    +0.000 HD
ATOM     31  H   UNL     1      -6.749   8.727  10.965  0.00  0.00    +0.000 HD
BRANCH  29  32
ATOM     32  C   UNL     1      -7.155  10.757  10.342  0.00  0.00    +0.000 C 
ATOM     33  H   UNL     1      -7.903  11.154   9.646  0.00  0.00    +0.000 HD
ATOM     34  H   UNL     1      -7.597  10.852  11.342  0.00  0.00    +0.000 HD
BRANCH  32  35
ATOM     35  C   UNL     1      -5.897  11.614  10.266  0.00  0.00    +0.000 C 
ATOM     36  H   UNL     1      -5.025  10.999  10.027  0.00  0.00    +0.000 HD
ATOM     37  H   UNL     1      -6.004  12.389   9.500  0.00  0.00    +0.000 HD
BRANCH  35  38
ATOM     38  O   UNL     1      -5.668  12.251  11.517  0.00  0.00    +0.000 OA
ATOM     39  H   UNL     1      -4.901  12.836  11.401  0.00  0.00    +0.000 HD
ENDBRANCH  35  38
ENDBRANCH  32  35
ENDBRANCH  29  32
ENDBRANCH  26  29
ENDBRANCH  23  26
ENDBRANCH   1  23
TORSDOF 12
ENDMDL
MODEL 6
REMARK VINA RESULT:    -4.633      1.871      4.002
REMARK INTER + INTRA:          -8.240
REMARK INTER:                  -7.440
REMARK INTRA:                  -0.801
REMARK UNBOUND:                -0.628
REMARK  Name = 8193
REMARK  12 active torsions:
REMARK  status: ('A' for Active; 'I' for Inactive)
REMARK    1  A    between atoms: O_1  and  C_12
REMARK    2  A    between atoms: C_2  and  C_3
REMARK    3  A    between atoms: C_2  and  C_4
REMARK    4  A    between atoms: C_3  and  C_5
REMARK    5  A    between atoms: C_4  and  C_6
REMARK    6  A    between atoms: C_5  and  C_7
REMARK    7  A    between atoms: C_6  and  C_8
REMARK    8  A    between atoms: C_7  and  C_9
REMARK    9  A    between atoms: C_8  and  C_10
REMARK   10  A    between atoms: C_9  and  C_11
REMARK   11  A    between atoms: C_10  and  C_12
REMARK   12  A    between atoms: C_11  and  C_13
REMARK                            x       y       z     vdW  Elec       q    Type
REMARK                         _______ _______ _______ _____ _____    ______ ____
ROOT
ATOM      1  C   UNL     1       3.675   9.665   1.929  0.00  0.00    +0.000 C 
ATOM      2  H   UNL     1       3.970  10.461   2.623  0.00  0.00    +0.000 HD
ATOM      3  H   UNL     1       2.583   9.712   1.837  0.00  0.00    +0.000 HD
ENDROOT
BRANCH   1   4
ATOM      4  C   UNL     1       4.066   8.309   2.530  0.00  0.00    +0.000 C 
ATOM      5  H   UNL     1       3.403   7.541   2.111  0.00  0.00    +0.000 HD
ATOM      6  H   UNL     1       3.867   8.333   3.609  0.00  0.00    +0.000 HD
BRANCH   4   7
ATOM      7  C   UNL     1       5.521   7.876   2.316  0.00  0.00    +0.000 C 
ATOM      8  H   UNL     1       6.107   8.737   1.972  0.00  0.00    +0.000 HD
ATOM      9  H   UNL     1       5.551   7.131   1.512  0.00  0.00    +0.000 HD
BRANCH   7  10
ATOM     10  C   UNL     1       6.170   7.288   3.571  0.00  0.00    +0.000 C 
ATOM     11  H   UNL     1       7.224   7.590   3.606  0.00  0.00    +0.000 HD
ATOM     12  H   UNL     1       6.157   6.193   3.505  0.00  0.00    +0.000 HD
BRANCH  10  13
ATOM     13  C   UNL     1       5.487   7.726   4.871  0.00  0.00    +0.000 C 
ATOM     14  H   UNL     1       4.450   8.011   4.654  0.00  0.00    +0.000 HD
ATOM     15  H   UNL     1       5.442   6.867   5.552  0.00  0.00    +0.000 HD
BRANCH  13  16
ATOM     16  C   UNL     1       6.191   8.889   5.569  0.00  0.00    +0.000 C 
ATOM     17  H   UNL     1       6.059   8.806   6.654  0.00  0.00    +0.000 HD
ATOM     18  H   UNL     1       5.737   9.837   5.259  0.00  0.00    +0.000 HD
BRANCH  16  19
ATOM     19  C   UNL     1       7.677   8.916   5.241  0.00  0.00    +0.000 C 
ATOM     20  H   UNL     1       8.205   8.104   5.750  0.00  0.00    +0.000 HD
ATOM     21  H   UNL     1       7.828   8.796   4.163  0.00  0.00    +0.000 HD
ATOM     22  H   UNL     1       8.128   9.866   5.544  0.00  0.00    +0.000 HD
ENDBRANCH  16  19
ENDBRANCH  13  16
ENDBRANCH  10  13
ENDBRANCH   7  10
ENDBRANCH   4   7
ENDBRANCH   1   4
BRANCH   1  23
ATOM     23  C   UNL     1       4.305   9.924   0.558  0.00  0.00    +0.000 C 
ATOM     24  H   UNL     1       3.628   9.560  -0.225  0.00  0.00    +0.000 HD
ATOM     25  H   UNL     1       5.230   9.342   0.473  0.00  0.00    +0.000 HD
BRANCH  23  26
ATOM     26  C   UNL     1       4.616  11.403   0.305  0.00  0.00    +0.000 C 
ATOM     27  H   UNL     1       3.966  11.774  -0.496  0.00  0.00    +0.000 HD
ATOM     28  H   UNL     1       4.369  11.978   1.206  0.00  0.00    +0.000 HD
BRANCH  26  29
ATOM     29  C   UNL     1       6.078  11.659  -0.069  0.00  0.00    +0.000 C 
ATOM     30  H   UNL     1       6.438  12.553   0.454  0.00  0.00    +0.000 HD
ATOM     31  H   UNL     1       6.155  11.858  -1.144  0.00  0.00    +0.000 HD
BRANCH  29  32
ATOM     32  C   UNL     1       6.960  10.459   0.294  0.00  0.00    +0.000 C 
ATOM     33  H   UNL     1       7.452  10.631   1.260  0.00  0.00    +0.000 HD
ATOM     34  H   UNL     1       6.342   9.562   0.429  0.00  0.00    +0.000 HD
BRANCH  32  35
ATOM     35  C   UNL     1       8.021  10.182  -0.765  0.00  0.00    +0.000 C 
ATOM     36  H   UNL     1       9.007  10.505  -0.417  0.00  0.00    +0.000 HD
ATOM     37  H   UNL     1       8.061   9.114  -0.999  0.00  0.00    +0.000 HD
BRANCH  35  38
ATOM     38  O   UNL     1       7.710  10.890  -1.957  0.00  0.00    +0.000 OA
ATOM     39  H   UNL     1       8.390  10.656  -2.612  0.00  0.00    +0.000 HD
ENDBRANCH  35  38
ENDBRANCH  32  35
ENDBRANCH  29  32
ENDBRANCH  26  29
ENDBRANCH  23  26
ENDBRANCH   1  23
TORSDOF 12
ENDMDL
MODEL 7
REMARK VINA RESULT:    -4.570     13.525     15.463
REMARK INTER + INTRA:          -8.136
REMARK INTER:                  -7.467
REMARK INTRA:                  -0.669
REMARK UNBOUND:                -0.628
REMARK  Name = 8193
REMARK  12 active torsions:
REMARK  status: ('A' for Active; 'I' for Inactive)
REMARK    1  A    between atoms: O_1  and  C_12
REMARK    2  A    between atoms: C_2  and  C_3
REMARK    3  A    between atoms: C_2  and  C_4
REMARK    4  A    between atoms: C_3  and  C_5
REMARK    5  A    between atoms: C_4  and  C_6
REMARK    6  A    between atoms: C_5  and  C_7
REMARK    7  A    between atoms: C_6  and  C_8
REMARK    8  A    between atoms: C_7  and  C_9
REMARK    9  A    between atoms: C_8  and  C_10
REMARK   10  A    between atoms: C_9  and  C_11
REMARK   11  A    between atoms: C_10  and  C_12
REMARK   12  A    between atoms: C_11  and  C_13
REMARK                            x       y       z     vdW  Elec       q    Type
REMARK                         _______ _______ _______ _____ _____    ______ ____
ROOT
ATOM      1  C   UNL     1      -3.152   7.086  -9.171  0.00  0.00    +0.000 C 
ATOM      2  H   UNL     1      -3.604   6.539  -8.335  0.00  0.00    +0.000 HD
ATOM      3  H   UNL     1      -2.193   6.599  -9.388  0.00  0.00    +0.000 HD
ENDROOT
BRANCH   1   4
ATOM      4  C   UNL     1      -2.889   8.532  -8.737  0.00  0.00    +0.000 C 
ATOM      5  H   UNL     1      -1.955   8.558  -8.162  0.00  0.00    +0.000 HD
ATOM      6  H   UNL     1      -3.684   8.842  -8.046  0.00  0.00    +0.000 HD
BRANCH   4   7
ATOM      7  C   UNL     1      -2.802   9.566  -9.866  0.00  0.00    +0.000 C 
ATOM      8  H   UNL     1      -3.332  10.477  -9.563  0.00  0.00    +0.000 HD
ATOM      9  H   UNL     1      -3.326   9.171 -10.745  0.00  0.00    +0.000 HD
BRANCH   7  10
ATOM     10  C   UNL     1      -1.365   9.920 -10.256  0.00  0.00    +0.000 C 
ATOM     11  H   UNL     1      -0.686   9.605  -9.454  0.00  0.00    +0.000 HD
ATOM     12  H   UNL     1      -1.272  11.010 -10.340  0.00  0.00    +0.000 HD
BRANCH  10  13
ATOM     13  C   UNL     1      -0.914   9.271 -11.569  0.00  0.00    +0.000 C 
ATOM     14  H   UNL     1       0.143   9.508 -11.744  0.00  0.00    +0.000 HD
ATOM     15  H   UNL     1      -0.979   8.181 -11.464  0.00  0.00    +0.000 HD
BRANCH  13  16
ATOM     16  C   UNL     1      -1.733   9.713 -12.782  0.00  0.00    +0.000 C 
ATOM     17  H   UNL     1      -2.658  10.198 -12.448  0.00  0.00    +0.000 HD
ATOM     18  H   UNL     1      -2.022   8.836 -13.373  0.00  0.00    +0.000 HD
BRANCH  16  19
ATOM     19  C   UNL     1      -0.947  10.672 -13.663  0.00  0.00    +0.000 C 
ATOM     20  H   UNL     1      -0.193  10.137 -14.249  0.00  0.00    +0.000 HD
ATOM     21  H   UNL     1      -1.619  11.184 -14.359  0.00  0.00    +0.000 HD
ATOM     22  H   UNL     1      -0.439  11.431 -13.059  0.00  0.00    +0.000 HD
ENDBRANCH  16  19
ENDBRANCH  13  16
ENDBRANCH  10  13
ENDBRANCH   7  10
ENDBRANCH   4   7
ENDBRANCH   1   4
BRANCH   1  23
ATOM     23  C   UNL     1      -4.058   6.978 -10.401  0.00  0.00    +0.000 C 
ATOM     24  H   UNL     1      -3.525   6.438 -11.195  0.00  0.00    +0.000 HD
ATOM     25  H   UNL     1      -4.263   7.985 -10.785  0.00  0.00    +0.000 HD
BRANCH  23  26
ATOM     26  C   UNL     1      -5.385   6.269 -10.115  0.00  0.00    +0.000 C 
ATOM     27  H   UNL     1      -6.208   6.870 -10.519  0.00  0.00    +0.000 HD
ATOM     28  H   UNL     1      -5.399   5.310 -10.649  0.00  0.00    +0.000 HD
BRANCH  26  29
ATOM     29  C   UNL     1      -5.627   6.016  -8.624  0.00  0.00    +0.000 C 
ATOM     30  H   UNL     1      -5.872   6.962  -8.128  0.00  0.00    +0.000 HD
ATOM     31  H   UNL     1      -4.710   5.633  -8.161  0.00  0.00    +0.000 HD
BRANCH  29  32
ATOM     32  C   UNL     1      -6.766   5.012  -8.411  0.00  0.00    +0.000 C 
ATOM     33  H   UNL     1      -7.285   4.824  -9.359  0.00  0.00    +0.000 HD
ATOM     34  H   UNL     1      -6.361   4.043  -8.095  0.00  0.00    +0.000 HD
BRANCH  32  35
ATOM     35  C   UNL     1      -7.775   5.497  -7.377  0.00  0.00    +0.000 C 
ATOM     36  H   UNL     1      -8.679   5.872  -7.866  0.00  0.00    +0.000 HD
ATOM     37  H   UNL     1      -8.052   4.683  -6.699  0.00  0.00    +0.000 HD
BRANCH  35  38
ATOM     38  O   UNL     1      -7.210   6.548  -6.606  0.00  0.00    +0.000 OA
ATOM     39  H   UNL     1      -6.929   7.239  -7.230  0.00  0.00    +0.000 HD
ENDBRANCH  35  38
ENDBRANCH  32  35
ENDBRANCH  29  32
ENDBRANCH  26  29
ENDBRANCH  23  26
ENDBRANCH   1  23
TORSDOF 12
ENDMDL
MODEL 8
REMARK VINA RESULT:    -4.482      4.314      5.701
REMARK INTER + INTRA:          -7.992
REMARK INTER:                  -7.458
REMARK INTRA:                  -0.533
REMARK UNBOUND:                -0.628
REMARK  Name = 8193
REMARK  12 active torsions:
REMARK  status: ('A' for Active; 'I' for Inactive)
REMARK    1  A    between atoms: O_1  and  C_12
REMARK    2  A    between atoms: C_2  and  C_3
REMARK    3  A    between atoms: C_2  and  C_4
REMARK    4  A    between atoms: C_3  and  C_5
REMARK    5  A    between atoms: C_4  and  C_6
REMARK    6  A    between atoms: C_5  and  C_7
REMARK    7  A    between atoms: C_6  and  C_8
REMARK    8  A    between atoms: C_7  and  C_9
REMARK    9  A    between atoms: C_8  and  C_10
REMARK   10  A    between atoms: C_9  and  C_11
REMARK   11  A    between atoms: C_10  and  C_12
REMARK   12  A    between atoms: C_11  and  C_13
REMARK                            x       y       z     vdW  Elec       q    Type
REMARK                         _______ _______ _______ _____ _____    ______ ____
ROOT
ATOM      1  C   UNL     1       6.907   7.888   5.161  0.00  0.00    +0.000 C 
ATOM      2  H   UNL     1       7.465   7.879   4.217  0.00  0.00    +0.000 HD
ATOM      3  H   UNL     1       7.328   7.092   5.787  0.00  0.00    +0.000 HD
ENDROOT
BRANCH   1   4
ATOM      4  C   UNL     1       5.435   7.569   4.874  0.00  0.00    +0.000 C 
ATOM      5  H   UNL     1       4.829   8.437   5.163  0.00  0.00    +0.000 HD
ATOM      6  H   UNL     1       5.121   6.744   5.526  0.00  0.00    +0.000 HD
BRANCH   4   7
ATOM      7  C   UNL     1       5.101   7.194   3.426  0.00  0.00    +0.000 C 
ATOM      8  H   UNL     1       4.302   7.850   3.058  0.00  0.00    +0.000 HD
ATOM      9  H   UNL     1       4.705   6.172   3.409  0.00  0.00    +0.000 HD
BRANCH   7  10
ATOM     10  C   UNL     1       6.303   7.282   2.482  0.00  0.00    +0.000 C 
ATOM     11  H   UNL     1       6.333   6.384   1.853  0.00  0.00    +0.000 HD
ATOM     12  H   UNL     1       7.227   7.284   3.074  0.00  0.00    +0.000 HD
BRANCH  10  13
ATOM     13  C   UNL     1       6.278   8.519   1.578  0.00  0.00    +0.000 C 
ATOM     14  H   UNL     1       5.916   8.231   0.584  0.00  0.00    +0.000 HD
ATOM     15  H   UNL     1       5.551   9.236   1.982  0.00  0.00    +0.000 HD
BRANCH  13  16
ATOM     16  C   UNL     1       7.638   9.202   1.439  0.00  0.00    +0.000 C 
ATOM     17  H   UNL     1       8.399   8.461   1.167  0.00  0.00    +0.000 HD
ATOM     18  H   UNL     1       7.936   9.635   2.401  0.00  0.00    +0.000 HD
BRANCH  16  19
ATOM     19  C   UNL     1       7.602  10.301   0.387  0.00  0.00    +0.000 C 
ATOM     20  H   UNL     1       8.094  11.208   0.750  0.00  0.00    +0.000 HD
ATOM     21  H   UNL     1       8.120   9.973  -0.521  0.00  0.00    +0.000 HD
ATOM     22  H   UNL     1       6.571  10.552   0.118  0.00  0.00    +0.000 HD
ENDBRANCH  16  19
ENDBRANCH  13  16
ENDBRANCH  10  13
ENDBRANCH   7  10
ENDBRANCH   4   7
ENDBRANCH   1   4
BRANCH   1  23
ATOM     23  C   UNL     1       7.110   9.235   5.860  0.00  0.00    +0.000 C 
ATOM     24  H   UNL     1       6.265   9.422   6.535  0.00  0.00    +0.000 HD
ATOM     25  H   UNL     1       7.099  10.034   5.109  0.00  0.00    +0.000 HD
BRANCH  23  26
ATOM     26  C   UNL     1       8.416   9.312   6.657  0.00  0.00    +0.000 C 
ATOM     27  H   UNL     1       8.204   9.111   7.714  0.00  0.00    +0.000 HD
ATOM     28  H   UNL     1       9.091   8.518   6.312  0.00  0.00    +0.000 HD
BRANCH  26  29
ATOM     29  C   UNL     1       9.124  10.663   6.530  0.00  0.00    +0.000 C 
ATOM     30  H   UNL     1       9.382  10.844   5.481  0.00  0.00    +0.000 HD
ATOM     31  H   UNL     1      10.062  10.643   7.097  0.00  0.00    +0.000 HD
BRANCH  29  32
ATOM     32  C   UNL     1       8.237  11.803   7.046  0.00  0.00    +0.000 C 
ATOM     33  H   UNL     1       7.308  11.850   6.466  0.00  0.00    +0.000 HD
ATOM     34  H   UNL     1       7.933  11.605   8.082  0.00  0.00    +0.000 HD
BRANCH  32  35
ATOM     35  C   UNL     1       8.939  13.154   6.979  0.00  0.00    +0.000 C 
ATOM     36  H   UNL     1       8.754  13.730   7.890  0.00  0.00    +0.000 HD
ATOM     37  H   UNL     1      10.019  13.021   6.858  0.00  0.00    +0.000 HD
BRANCH  35  38
ATOM     38  O   UNL     1       8.453  13.897   5.869  0.00  0.00    +0.000 OA
ATOM     39  H   UNL     1       7.485  13.801   5.866  0.00  0.00    +0.000 HD
ENDBRANCH  35  38
ENDBRANCH  32  35
ENDBRANCH  29  32
ENDBRANCH  26  29
ENDBRANCH  23  26
ENDBRANCH   1  23
TORSDOF 12
ENDMDL
MODEL 9
REMARK VINA RESULT:    -4.402      3.575      5.526
REMARK INTER + INTRA:          -7.861
REMARK INTER:                  -7.080
REMARK INTRA:                  -0.781
REMARK UNBOUND:                -0.628
REMARK  Name = 8193
REMARK  12 active torsions:
REMARK  status: ('A' for Active; 'I' for Inactive)
REMARK    1  A    between atoms: O_1  and  C_12
REMARK    2  A    between atoms: C_2  and  C_3
REMARK    3  A    between atoms: C_2  and  C_4
REMARK    4  A    between atoms: C_3  and  C_5
REMARK    5  A    between atoms: C_4  and  C_6
REMARK    6  A    between atoms: C_5  and  C_7
REMARK    7  A    between atoms: C_6  and  C_8
REMARK    8  A    between atoms: C_7  and  C_9
REMARK    9  A    between atoms: C_8  and  C_10
REMARK   10  A    between atoms: C_9  and  C_11
REMARK   11  A    between atoms: C_10  and  C_12
REMARK   12  A    between atoms: C_11  and  C_13
REMARK                            x       y       z     vdW  Elec       q    Type
REMARK                         _______ _______ _______ _____ _____    ______ ____
ROOT
ATOM      1  C   UNL     1       7.353   8.608   4.754  0.00  0.00    +0.000 C 
ATOM      2  H   UNL     1       8.175   8.577   4.029  0.00  0.00    +0.000 HD
ATOM      3  H   UNL     1       6.707   9.446   4.466  0.00  0.00    +0.000 HD
ENDROOT
BRANCH   1   4
ATOM      4  C   UNL     1       7.929   8.879   6.149  0.00  0.00    +0.000 C 
ATOM      5  H   UNL     1       9.024   8.854   6.084  0.00  0.00    +0.000 HD
ATOM      6  H   UNL     1       7.641   8.055   6.815  0.00  0.00    +0.000 HD
BRANCH   4   7
ATOM      7  C   UNL     1       7.503  10.198   6.804  0.00  0.00    +0.000 C 
ATOM      8  H   UNL     1       7.307  10.026   7.869  0.00  0.00    +0.000 HD
ATOM      9  H   UNL     1       6.557  10.525   6.356  0.00  0.00    +0.000 HD
BRANCH   7  10
ATOM     10  C   UNL     1       8.541  11.314   6.654  0.00  0.00    +0.000 C 
ATOM     11  H   UNL     1       8.446  12.009   7.497  0.00  0.00    +0.000 HD
ATOM     12  H   UNL     1       8.324  11.888   5.745  0.00  0.00    +0.000 HD
BRANCH  10  13
ATOM     13  C   UNL     1       9.983  10.799   6.597  0.00  0.00    +0.000 C 
ATOM     14  H   UNL     1      10.487  11.035   7.541  0.00  0.00    +0.000 HD
ATOM     15  H   UNL     1       9.963   9.705   6.515  0.00  0.00    +0.000 HD
BRANCH  13  16
ATOM     16  C   UNL     1      10.793  11.379   5.437  0.00  0.00    +0.000 C 
ATOM     17  H   UNL     1      11.807  10.964   5.449  0.00  0.00    +0.000 HD
ATOM     18  H   UNL     1      10.885  12.464   5.557  0.00  0.00    +0.000 HD
BRANCH  16  19
ATOM     19  C   UNL     1      10.137  11.078   4.098  0.00  0.00    +0.000 C 
ATOM     20  H   UNL     1       9.294  11.752   3.914  0.00  0.00    +0.000 HD
ATOM     21  H   UNL     1      10.860  11.208   3.285  0.00  0.00    +0.000 HD
ATOM     22  H   UNL     1       9.769  10.048   4.064  0.00  0.00    +0.000 HD
ENDBRANCH  16  19
ENDBRANCH  13  16
ENDBRANCH  10  13
ENDBRANCH   7  10
ENDBRANCH   4   7
ENDBRANCH   1   4
BRANCH   1  23
ATOM     23  C   UNL     1       6.551   7.306   4.673  0.00  0.00    +0.000 C 
ATOM     24  H   UNL     1       5.738   7.336   5.409  0.00  0.00    +0.000 HD
ATOM     25  H   UNL     1       7.201   6.467   4.952  0.00  0.00    +0.000 HD
BRANCH  23  26
ATOM     26  C   UNL     1       5.961   7.046   3.283  0.00  0.00    +0.000 C 
ATOM     27  H   UNL     1       6.499   6.212   2.816  0.00  0.00    +0.000 HD
ATOM     28  H   UNL     1       4.917   6.729   3.394  0.00  0.00    +0.000 HD
BRANCH  26  29
ATOM     29  C   UNL     1       6.021   8.267   2.361  0.00  0.00    +0.000 C 
ATOM     30  H   UNL     1       6.637   9.046   2.825  0.00  0.00    +0.000 HD
ATOM     31  H   UNL     1       5.014   8.682   2.233  0.00  0.00    +0.000 HD
BRANCH  29  32
ATOM     32  C   UNL     1       6.601   7.897   0.991  0.00  0.00    +0.000 C 
ATOM     33  H   UNL     1       7.177   6.966   1.064  0.00  0.00    +0.000 HD
ATOM     34  H   UNL     1       5.791   7.692   0.280  0.00  0.00    +0.000 HD
BRANCH  32  35
ATOM     35  C   UNL     1       7.495   8.996   0.429  0.00  0.00    +0.000 C 
ATOM     36  H   UNL     1       8.213   8.582  -0.285  0.00  0.00    +0.000 HD
ATOM     37  H   UNL     1       6.895   9.760  -0.076  0.00  0.00    +0.000 HD
BRANCH  35  38
ATOM     38  O   UNL     1       8.217   9.619   1.483  0.00  0.00    +0.000 OA
ATOM     39  H   UNL     1       8.742  10.334   1.085  0.00  0.00    +0.000 HD
ENDBRANCH  35  38
ENDBRANCH  32  35
ENDBRANCH  29  32
ENDBRANCH  26  29
ENDBRANCH  23  26
ENDBRANCH   1  23
TORSDOF 12
ENDMDL
MODEL 10
REMARK VINA RESULT:    -4.347     13.459     15.479
REMARK INTER + INTRA:          -7.771
REMARK INTER:                  -7.142
REMARK INTRA:                  -0.628
REMARK UNBOUND:                -0.628
REMARK  Name = 8193
REMARK  12 active torsions:
REMARK  status: ('A' for Active; 'I' for Inactive)
REMARK    1  A    between atoms: O_1  and  C_12
REMARK    2  A    between atoms: C_2  and  C_3
REMARK    3  A    between atoms: C_2  and  C_4
REMARK    4  A    between atoms: C_3  and  C_5
REMARK    5  A    between atoms: C_4  and  C_6
REMARK    6  A    between atoms: C_5  and  C_7
REMARK    7  A    between atoms: C_6  and  C_8
REMARK    8  A    between atoms: C_7  and  C_9
REMARK    9  A    between atoms: C_8  and  C_10
REMARK   10  A    between atoms: C_9  and  C_11
REMARK   11  A    between atoms: C_10  and  C_12
REMARK   12  A    between atoms: C_11  and  C_13
REMARK                            x       y       z     vdW  Elec       q    Type
REMARK                         _______ _______ _______ _____ _____    ______ ____
ROOT
ATOM      1  C   UNL     1      -1.211  10.111 -10.305  0.00  0.00    +0.000 C 
ATOM      2  H   UNL     1      -1.082  11.139  -9.946  0.00  0.00    +0.000 HD
ATOM      3  H   UNL     1      -0.509   9.486  -9.740  0.00  0.00    +0.000 HD
ENDROOT
BRANCH   1   4
ATOM      4  C   UNL     1      -0.843  10.052 -11.792  0.00  0.00    +0.000 C 
ATOM      5  H   UNL     1      -0.006  10.739 -11.970  0.00  0.00    +0.000 HD
ATOM      6  H   UNL     1      -1.687  10.438 -12.379  0.00  0.00    +0.000 HD
BRANCH   4   7
ATOM      7  C   UNL     1      -0.470   8.668 -12.336  0.00  0.00    +0.000 C 
ATOM      8  H   UNL     1      -1.185   7.927 -11.958  0.00  0.00    +0.000 HD
ATOM      9  H   UNL     1       0.515   8.389 -11.942  0.00  0.00    +0.000 HD
BRANCH   7  10
ATOM     10  C   UNL     1      -0.435   8.605 -13.865  0.00  0.00    +0.000 C 
ATOM     11  H   UNL     1      -1.392   8.964 -14.262  0.00  0.00    +0.000 HD
ATOM     12  H   UNL     1      -0.333   7.559 -14.181  0.00  0.00    +0.000 HD
BRANCH  10  13
ATOM     13  C   UNL     1       0.698   9.433 -14.482  0.00  0.00    +0.000 C 
ATOM     14  H   UNL     1       1.024  10.191 -13.759  0.00  0.00    +0.000 HD
ATOM     15  H   UNL     1       1.558   8.776 -14.659  0.00  0.00    +0.000 HD
BRANCH  13  16
ATOM     16  C   UNL     1       0.309  10.122 -15.790  0.00  0.00    +0.000 C 
ATOM     17  H   UNL     1      -0.783  10.188 -15.864  0.00  0.00    +0.000 HD
ATOM     18  H   UNL     1       0.657   9.526 -16.641  0.00  0.00    +0.000 HD
BRANCH  16  19
ATOM     19  C   UNL     1       0.907  11.518 -15.880  0.00  0.00    +0.000 C 
ATOM     20  H   UNL     1       0.295  12.167 -16.515  0.00  0.00    +0.000 HD
ATOM     21  H   UNL     1       0.963  11.971 -14.885  0.00  0.00    +0.000 HD
ATOM     22  H   UNL     1       1.919  11.484 -16.296  0.00  0.00    +0.000 HD
ENDBRANCH  16  19
ENDBRANCH  13  16
ENDBRANCH  10  13
ENDBRANCH   7  10
ENDBRANCH   4   7
ENDBRANCH   1   4
BRANCH   1  23
ATOM     23  C   UNL     1      -2.641   9.645 -10.016  0.00  0.00    +0.000 C 
ATOM     24  H   UNL     1      -3.016   9.076 -10.877  0.00  0.00    +0.000 HD
ATOM     25  H   UNL     1      -3.289  10.524  -9.911  0.00  0.00    +0.000 HD
BRANCH  23  26
ATOM     26  C   UNL     1      -2.753   8.783  -8.756  0.00  0.00    +0.000 C 
ATOM     27  H   UNL     1      -1.750   8.618  -8.343  0.00  0.00    +0.000 HD
ATOM     28  H   UNL     1      -3.323   9.333  -7.997  0.00  0.00    +0.000 HD
BRANCH  26  29
ATOM     29  C   UNL     1      -3.425   7.430  -9.005  0.00  0.00    +0.000 C 
ATOM     30  H   UNL     1      -4.513   7.559  -9.014  0.00  0.00    +0.000 HD
ATOM     31  H   UNL     1      -3.186   6.742  -8.185  0.00  0.00    +0.000 HD
BRANCH  29  32
ATOM     32  C   UNL     1      -2.966   6.821 -10.335  0.00  0.00    +0.000 C 
ATOM     33  H   UNL     1      -2.127   7.397 -10.744  0.00  0.00    +0.000 HD
ATOM     34  H   UNL     1      -2.581   5.806 -10.173  0.00  0.00    +0.000 HD
BRANCH  32  35
ATOM     35  C   UNL     1      -4.089   6.773 -11.364  0.00  0.00    +0.000 C 
ATOM     36  H   UNL     1      -4.680   5.859 -11.248  0.00  0.00    +0.000 HD
ATOM     37  H   UNL     1      -4.750   7.638 -11.253  0.00  0.00    +0.000 HD
BRANCH  35  38
ATOM     38  O   UNL     1      -3.544   6.792 -12.676  0.00  0.00    +0.000 OA
ATOM     39  H   UNL     1      -3.972   7.525 -13.151  0.00  0.00    +0.000 HD
ENDBRANCH  35  38
ENDBRANCH  32  35
ENDBRANCH  29  32
ENDBRANCH  26  29
ENDBRANCH  23  26
ENDBRANCH   1  23
TORSDOF 12
ENDMDL
