MODEL 1
REMARK VINA RESULT:    -4.568      0.000      0.000
REMARK INTER + INTRA:          -8.594
REMARK INTER:                  -7.320
REMARK INTRA:                  -1.274
REMARK UNBOUND:                -1.222
REMARK  Name = 8192
REMARK  11 active torsions:
REMARK  status: ('A' for Active; 'I' for Inactive)
REMARK    1  A    between atoms: C_2  and  C_3
REMARK    2  A    between atoms: C_2  and  C_4
REMARK    3  A    between atoms: C_3  and  C_5
REMARK    4  A    between atoms: C_4  and  C_6
REMARK    5  A    between atoms: C_5  and  C_7
REMARK    6  A    between atoms: C_6  and  C_8
REMARK    7  A    between atoms: C_7  and  C_9
REMARK    8  A    between atoms: C_8  and  C_10
REMARK    9  A    between atoms: C_9  and  C_11
REMARK   10  A    between atoms: C_10  and  C_12
REMARK   11  A    between atoms: C_11  and  C_13
REMARK                            x       y       z     vdW  Elec       q    Type
REMARK                         _______ _______ _______ _____ _____    ______ ____
ROOT
ATOM      1  C   UNL     1      -2.604   9.810 -10.021  0.00  0.00    +0.000 C 
ATOM      2  H   UNL     1      -3.188  10.717  -9.831  0.00  0.00    +0.000 HD
ATOM      3  H   UNL     1      -3.134   9.240 -10.795  0.00  0.00    +0.000 HD
ENDROOT
BRANCH   1   4
ATOM      4  C   UNL     1      -2.513   8.977  -8.739  0.00  0.00    +0.000 C 
ATOM      5  H   UNL     1      -1.466   8.718  -8.541  0.00  0.00    +0.000 HD
ATOM      6  H   UNL     1      -2.866   9.569  -7.887  0.00  0.00    +0.000 HD
BRANCH   4   7
ATOM      7  C   UNL     1      -3.346   7.698  -8.849  0.00  0.00    +0.000 C 
ATOM      8  H   UNL     1      -4.408   7.967  -8.916  0.00  0.00    +0.000 HD
ATOM      9  H   UNL     1      -3.227   7.106  -7.933  0.00  0.00    +0.000 HD
BRANCH   7  10
ATOM     10  C   UNL     1      -2.975   6.832 -10.056  0.00  0.00    +0.000 C 
ATOM     11  H   UNL     1      -2.066   7.235 -10.520  0.00  0.00    +0.000 HD
ATOM     12  H   UNL     1      -2.730   5.821  -9.708  0.00  0.00    +0.000 HD
BRANCH  10  13
ATOM     13  C   UNL     1      -4.081   6.753 -11.110  0.00  0.00    +0.000 C 
ATOM     14  H   UNL     1      -4.869   7.477 -10.871  0.00  0.00    +0.000 HD
ATOM     15  H   UNL     1      -4.539   5.757 -11.084  0.00  0.00    +0.000 HD
BRANCH  13  16
ATOM     16  C   UNL     1      -3.532   7.032 -12.510  0.00  0.00    +0.000 C 
ATOM     17  H   UNL     1      -2.440   7.120 -12.471  0.00  0.00    +0.000 HD
ATOM     18  H   UNL     1      -3.767   6.193 -13.176  0.00  0.00    +0.000 HD
BRANCH  16  19
ATOM     19  C   UNL     1      -4.117   8.308 -13.095  0.00  0.00    +0.000 C 
ATOM     20  H   UNL     1      -3.351   8.883 -13.625  0.00  0.00    +0.000 HD
ATOM     21  H   UNL     1      -4.925   8.081 -13.798  0.00  0.00    +0.000 HD
ATOM     22  H   UNL     1      -4.525   8.938 -12.299  0.00  0.00    +0.000 HD
ENDBRANCH  16  19
ENDBRANCH  13  16
ENDBRANCH  10  13
ENDBRANCH   7  10
ENDBRANCH   4   7
ENDBRANCH   1   4
BRANCH   1  23
ATOM     23  C   UNL     1      -1.214  10.196 -10.530  0.00  0.00    +0.000 C 
ATOM     24  H   UNL     1      -1.244  11.214 -10.938  0.00  0.00    +0.000 HD
ATOM     25  H   UNL     1      -0.513  10.214  -9.686  0.00  0.00    +0.000 HD
BRANCH  23  26
ATOM     26  C   UNL     1      -0.672   9.249 -11.605  0.00  0.00    +0.000 C 
ATOM     27  H   UNL     1       0.353   8.965 -11.333  0.00  0.00    +0.000 HD
ATOM     28  H   UNL     1      -1.263   8.323 -11.586  0.00  0.00    +0.000 HD
BRANCH  26  29
ATOM     29  C   UNL     1      -0.661   9.796 -13.035  0.00  0.00    +0.000 C 
ATOM     30  H   UNL     1       0.080  10.602 -13.101  0.00  0.00    +0.000 HD
ATOM     31  H   UNL     1      -1.637  10.246 -13.249  0.00  0.00    +0.000 HD
BRANCH  29  32
ATOM     32  C   UNL     1      -0.347   8.734 -14.092  0.00  0.00    +0.000 C 
ATOM     33  H   UNL     1       0.059   7.842 -13.601  0.00  0.00    +0.000 HD
ATOM     34  H   UNL     1      -1.275   8.435 -14.593  0.00  0.00    +0.000 HD
BRANCH  32  36
ATOM     35 CL   UNL     1       0.908  11.007 -14.889  0.00  0.00    +0.000 Cl
ATOM     36  C   UNL     1       0.649   9.263 -15.117  0.00  0.00    +0.000 C 
ATOM     37  H   UNL     1       0.283   9.112 -16.138  0.00  0.00    +0.000 HD
ATOM     38  H   UNL     1       1.619   8.766 -15.019  0.00  0.00    +0.000 HD
ENDBRANCH  32  36
ENDBRANCH  29  32
ENDBRANCH  26  29
ENDBRANCH  23  26
ENDBRANCH   1  23
TORSDOF 11
ENDMDL
MODEL 2
REMARK VINA RESULT:    -4.429     26.519     28.771
REMARK INTER + INTRA:          -8.369
REMARK INTER:                  -7.155
REMARK INTRA:                  -1.214
REMARK UNBOUND:                -1.222
REMARK  Name = 8192
REMARK  11 active torsions:
REMARK  status: ('A' for Active; 'I' for Inactive)
REMARK    1  A    between atoms: C_2  and  C_3
REMARK    2  A    between atoms: C_2  and  C_4
REMARK    3  A    between atoms: C_3  and  C_5
REMARK    4  A    between atoms: C_4  and  C_6
REMARK    5  A    between atoms: C_5  and  C_7
REMARK    6  A    between atoms: C_6  and  C_8
REMARK    7  A    between atoms: C_7  and  C_9
REMARK    8  A    between atoms: C_8  and  C_10
REMARK    9  A    between atoms: C_9  and  C_11
REMARK   10  A    between atoms: C_10  and  C_12
REMARK   11  A    between atoms: C_11  and  C_13
REMARK                            x       y       z     vdW  Elec       q    Type
REMARK                         _______ _______ _______ _____ _____    ______ ____
ROOT
ATOM      1  C   UNL     1     -20.738  -1.006   5.241  0.00  0.00    +0.000 C 
ATOM      2  H   UNL     1     -21.629  -0.373   5.315  0.00  0.00    +0.000 HD
ATOM      3  H   UNL     1     -19.961  -0.417   4.738  0.00  0.00    +0.000 HD
ENDROOT
BRANCH   1   4
ATOM      4  C   UNL     1     -21.058  -2.253   4.411  0.00  0.00    +0.000 C 
ATOM      5  H   UNL     1     -22.111  -2.231   4.104  0.00  0.00    +0.000 HD
ATOM      6  H   UNL     1     -20.454  -2.253   3.496  0.00  0.00    +0.000 HD
BRANCH   4   7
ATOM      7  C   UNL     1     -20.781  -3.533   5.203  0.00  0.00    +0.000 C 
ATOM      8  H   UNL     1     -21.641  -3.747   5.850  0.00  0.00    +0.000 HD
ATOM      9  H   UNL     1     -19.920  -3.372   5.865  0.00  0.00    +0.000 HD
BRANCH   7  10
ATOM     10  C   UNL     1     -20.509  -4.750   4.316  0.00  0.00    +0.000 C 
ATOM     11  H   UNL     1     -21.180  -5.567   4.612  0.00  0.00    +0.000 HD
ATOM     12  H   UNL     1     -20.758  -4.498   3.278  0.00  0.00    +0.000 HD
BRANCH  10  13
ATOM     13  C   UNL     1     -19.062  -5.244   4.387  0.00  0.00    +0.000 C 
ATOM     14  H   UNL     1     -19.048  -6.304   4.668  0.00  0.00    +0.000 HD
ATOM     15  H   UNL     1     -18.528  -4.695   5.172  0.00  0.00    +0.000 HD
BRANCH  13  16
ATOM     16  C   UNL     1     -18.347  -5.056   3.049  0.00  0.00    +0.000 C 
ATOM     17  H   UNL     1     -17.537  -4.325   3.159  0.00  0.00    +0.000 HD
ATOM     18  H   UNL     1     -17.890  -6.002   2.734  0.00  0.00    +0.000 HD
BRANCH  16  19
ATOM     19  C   UNL     1     -19.303  -4.582   1.966  0.00  0.00    +0.000 C 
ATOM     20  H   UNL     1     -19.214  -3.503   1.808  0.00  0.00    +0.000 HD
ATOM     21  H   UNL     1     -19.099  -5.087   1.015  0.00  0.00    +0.000 HD
ATOM     22  H   UNL     1     -20.337  -4.801   2.251  0.00  0.00    +0.000 HD
ENDBRANCH  16  19
ENDBRANCH  13  16
ENDBRANCH  10  13
ENDBRANCH   7  10
ENDBRANCH   4   7
ENDBRANCH   1   4
BRANCH   1  23
ATOM     23  C   UNL     1     -20.264  -1.384   6.646  0.00  0.00    +0.000 C 
ATOM     24  H   UNL     1     -20.540  -2.426   6.857  0.00  0.00    +0.000 HD
ATOM     25  H   UNL     1     -19.169  -1.333   6.684  0.00  0.00    +0.000 HD
BRANCH  23  26
ATOM     26  C   UNL     1     -20.841  -0.488   7.747  0.00  0.00    +0.000 C 
ATOM     27  H   UNL     1     -20.133  -0.470   8.586  0.00  0.00    +0.000 HD
ATOM     28  H   UNL     1     -20.895   0.541   7.368  0.00  0.00    +0.000 HD
BRANCH  26  29
ATOM     29  C   UNL     1     -22.218  -0.889   8.283  0.00  0.00    +0.000 C 
ATOM     30  H   UNL     1     -22.991  -0.438   7.649  0.00  0.00    +0.000 HD
ATOM     31  H   UNL     1     -22.345  -0.464   9.286  0.00  0.00    +0.000 HD
BRANCH  29  32
ATOM     32  C   UNL     1     -22.433  -2.403   8.342  0.00  0.00    +0.000 C 
ATOM     33  H   UNL     1     -21.638  -2.905   7.777  0.00  0.00    +0.000 HD
ATOM     34  H   UNL     1     -22.356  -2.741   9.382  0.00  0.00    +0.000 HD
BRANCH  32  36
ATOM     35 CL   UNL     1     -24.133  -1.851   6.296  0.00  0.00    +0.000 Cl
ATOM     36  C   UNL     1     -23.795  -2.783   7.772  0.00  0.00    +0.000 C 
ATOM     37  H   UNL     1     -24.595  -2.573   8.488  0.00  0.00    +0.000 HD
ATOM     38  H   UNL     1     -23.831  -3.845   7.511  0.00  0.00    +0.000 HD
ENDBRANCH  32  36
ENDBRANCH  29  32
ENDBRANCH  26  29
ENDBRANCH  23  26
ENDBRANCH   1  23
TORSDOF 11
ENDMDL
MODEL 3
REMARK VINA RESULT:    -4.395      1.693      4.309
REMARK INTER + INTRA:          -8.316
REMARK INTER:                  -7.157
REMARK INTRA:                  -1.158
REMARK UNBOUND:                -1.222
REMARK  Name = 8192
REMARK  11 active torsions:
REMARK  status: ('A' for Active; 'I' for Inactive)
REMARK    1  A    between atoms: C_2  and  C_3
REMARK    2  A    between atoms: C_2  and  C_4
REMARK    3  A    between atoms: C_3  and  C_5
REMARK    4  A    between atoms: C_4  and  C_6
REMARK    5  A    between atoms: C_5  and  C_7
REMARK    6  A    between atoms: C_6  and  C_8
REMARK    7  A    between atoms: C_7  and  C_9
REMARK    8  A    between atoms: C_8  and  C_10
REMARK    9  A    between atoms: C_9  and  C_11
REMARK   10  A    between atoms: C_10  and  C_12
REMARK   11  A    between atoms: C_11  and  C_13
REMARK                            x       y       z     vdW  Elec       q    Type
REMARK                         _______ _______ _______ _____ _____    ______ ____
ROOT
ATOM      1  C   UNL     1      -2.625   8.976  -8.637  0.00  0.00    +0.000 C 
ATOM      2  H   UNL     1      -3.090   9.549  -7.828  0.00  0.00    +0.000 HD
ATOM      3  H   UNL     1      -1.585   8.784  -8.343  0.00  0.00    +0.000 HD
ENDROOT
BRANCH   1   4
ATOM      4  C   UNL     1      -2.652   9.795  -9.931  0.00  0.00    +0.000 C 
ATOM      5  H   UNL     1      -3.169   9.229 -10.715  0.00  0.00    +0.000 HD
ATOM      6  H   UNL     1      -3.219  10.720  -9.772  0.00  0.00    +0.000 HD
BRANCH   4   7
ATOM      7  C   UNL     1      -1.236  10.141 -10.397  0.00  0.00    +0.000 C 
ATOM      8  H   UNL     1      -0.521   9.848  -9.618  0.00  0.00    +0.000 HD
ATOM      9  H   UNL     1      -1.147  11.228 -10.515  0.00  0.00    +0.000 HD
BRANCH   7  10
ATOM     10  C   UNL     1      -0.846   9.462 -11.712  0.00  0.00    +0.000 C 
ATOM     11  H   UNL     1       0.151   9.017 -11.604  0.00  0.00    +0.000 HD
ATOM     12  H   UNL     1      -1.541   8.636 -11.908  0.00  0.00    +0.000 HD
BRANCH  10  13
ATOM     13  C   UNL     1      -0.839  10.414 -12.910  0.00  0.00    +0.000 C 
ATOM     14  H   UNL     1       0.036  11.073 -12.852  0.00  0.00    +0.000 HD
ATOM     15  H   UNL     1      -1.728  11.055 -12.871  0.00  0.00    +0.000 HD
BRANCH  13  16
ATOM     16  C   UNL     1      -0.818   9.643 -14.231  0.00  0.00    +0.000 C 
ATOM     17  H   UNL     1      -1.373   8.704 -14.123  0.00  0.00    +0.000 HD
ATOM     18  H   UNL     1      -1.317  10.228 -15.012  0.00  0.00    +0.000 HD
BRANCH  16  19
ATOM     19  C   UNL     1       0.604   9.336 -14.674  0.00  0.00    +0.000 C 
ATOM     20  H   UNL     1       0.732   9.530 -15.744  0.00  0.00    +0.000 HD
ATOM     21  H   UNL     1       1.326   9.949 -14.124  0.00  0.00    +0.000 HD
ATOM     22  H   UNL     1       0.840   8.284 -14.489  0.00  0.00    +0.000 HD
ENDBRANCH  16  19
ENDBRANCH  13  16
ENDBRANCH  10  13
ENDBRANCH   7  10
ENDBRANCH   4   7
ENDBRANCH   1   4
BRANCH   1  23
ATOM     23  C   UNL     1      -3.362   7.647  -8.809  0.00  0.00    +0.000 C 
ATOM     24  H   UNL     1      -3.139   6.992  -7.956  0.00  0.00    +0.000 HD
ATOM     25  H   UNL     1      -4.444   7.828  -8.793  0.00  0.00    +0.000 HD
BRANCH  23  26
ATOM     26  C   UNL     1      -3.002   6.911 -10.104  0.00  0.00    +0.000 C 
ATOM     27  H   UNL     1      -2.166   7.439 -10.582  0.00  0.00    +0.000 HD
ATOM     28  H   UNL     1      -2.629   5.912  -9.846  0.00  0.00    +0.000 HD
BRANCH  26  29
ATOM     29  C   UNL     1      -4.133   6.765 -11.126  0.00  0.00    +0.000 C 
ATOM     30  H   UNL     1      -5.029   7.267 -10.740  0.00  0.00    +0.000 HD
ATOM     31  H   UNL     1      -4.384   5.703 -11.227  0.00  0.00    +0.000 HD
BRANCH  29  32
ATOM     32  C   UNL     1      -3.788   7.339 -12.503  0.00  0.00    +0.000 C 
ATOM     33  H   UNL     1      -2.871   7.935 -12.429  0.00  0.00    +0.000 HD
ATOM     34  H   UNL     1      -3.585   6.516 -13.199  0.00  0.00    +0.000 HD
BRANCH  32  36
ATOM     35 CL   UNL     1      -4.518   9.925 -12.896  0.00  0.00    +0.000 Cl
ATOM     36  C   UNL     1      -4.926   8.201 -13.036  0.00  0.00    +0.000 C 
ATOM     37  H   UNL     1      -5.848   8.031 -12.471  0.00  0.00    +0.000 HD
ATOM     38  H   UNL     1      -5.122   7.989 -14.091  0.00  0.00    +0.000 HD
ENDBRANCH  32  36
ENDBRANCH  29  32
ENDBRANCH  26  29
ENDBRANCH  23  26
ENDBRANCH   1  23
TORSDOF 11
ENDMDL
MODEL 4
REMARK VINA RESULT:    -4.366      5.645      8.355
REMARK INTER + INTRA:          -8.269
REMARK INTER:                  -7.660
REMARK INTRA:                  -0.609
REMARK UNBOUND:                -1.222
REMARK  Name = 8192
REMARK  11 active torsions:
REMARK  status: ('A' for Active; 'I' for Inactive)
REMARK    1  A    between atoms: C_2  and  C_3
REMARK    2  A    between atoms: C_2  and  C_4
REMARK    3  A    between atoms: C_3  and  C_5
REMARK    4  A    between atoms: C_4  and  C_6
REMARK    5  A    between atoms: C_5  and  C_7
REMARK    6  A    between atoms: C_6  and  C_8
REMARK    7  A    between atoms: C_7  and  C_9
REMARK    8  A    between atoms: C_8  and  C_10
REMARK    9  A    between atoms: C_9  and  C_11
REMARK   10  A    between atoms: C_10  and  C_12
REMARK   11  A    between atoms: C_11  and  C_13
REMARK                            x       y       z     vdW  Elec       q    Type
REMARK                         _______ _______ _______ _____ _____    ______ ____
ROOT
ATOM      1  C   UNL     1      -5.672   6.111  -9.373  0.00  0.00    +0.000 C 
ATOM      2  H   UNL     1      -5.469   5.572 -10.305  0.00  0.00    +0.000 HD
ATOM      3  H   UNL     1      -6.190   7.040  -9.642  0.00  0.00    +0.000 HD
ENDROOT
BRANCH   1   4
ATOM      4  C   UNL     1      -4.351   6.443  -8.671  0.00  0.00    +0.000 C 
ATOM      5  H   UNL     1      -4.507   7.266  -7.964  0.00  0.00    +0.000 HD
ATOM      6  H   UNL     1      -4.014   5.577  -8.090  0.00  0.00    +0.000 HD
BRANCH   4   7
ATOM      7  C   UNL     1      -3.269   6.830  -9.681  0.00  0.00    +0.000 C 
ATOM      8  H   UNL     1      -2.644   5.953  -9.890  0.00  0.00    +0.000 HD
ATOM      9  H   UNL     1      -2.611   7.588  -9.237  0.00  0.00    +0.000 HD
BRANCH   7  10
ATOM     10  C   UNL     1      -3.832   7.366 -10.999  0.00  0.00    +0.000 C 
ATOM     11  H   UNL     1      -3.525   6.701 -11.817  0.00  0.00    +0.000 HD
ATOM     12  H   UNL     1      -4.927   7.333 -10.960  0.00  0.00    +0.000 HD
BRANCH  10  13
ATOM     13  C   UNL     1      -3.378   8.792 -11.319  0.00  0.00    +0.000 C 
ATOM     14  H   UNL     1      -4.240   9.390 -11.638  0.00  0.00    +0.000 HD
ATOM     15  H   UNL     1      -2.672   8.770 -12.159  0.00  0.00    +0.000 HD
BRANCH  13  16
ATOM     16  C   UNL     1      -2.716   9.448 -10.107  0.00  0.00    +0.000 C 
ATOM     17  H   UNL     1      -3.327  10.289  -9.759  0.00  0.00    +0.000 HD
ATOM     18  H   UNL     1      -2.653   8.729  -9.282  0.00  0.00    +0.000 HD
BRANCH  16  19
ATOM     19  C   UNL     1      -1.318   9.948 -10.437  0.00  0.00    +0.000 C 
ATOM     20  H   UNL     1      -1.323  11.026 -10.630  0.00  0.00    +0.000 HD
ATOM     21  H   UNL     1      -0.627   9.750  -9.611  0.00  0.00    +0.000 HD
ATOM     22  H   UNL     1      -0.936   9.444 -11.329  0.00  0.00    +0.000 HD
ENDBRANCH  16  19
ENDBRANCH  13  16
ENDBRANCH  10  13
ENDBRANCH   7  10
ENDBRANCH   4   7
ENDBRANCH   1   4
BRANCH   1  23
ATOM     23  C   UNL     1      -6.576   5.261  -8.479  0.00  0.00    +0.000 C 
ATOM     24  H   UNL     1      -6.898   4.368  -9.029  0.00  0.00    +0.000 HD
ATOM     25  H   UNL     1      -6.000   4.909  -7.613  0.00  0.00    +0.000 HD
BRANCH  23  26
ATOM     26  C   UNL     1      -7.816   6.008  -7.978  0.00  0.00    +0.000 C 
ATOM     27  H   UNL     1      -7.983   6.879  -8.626  0.00  0.00    +0.000 HD
ATOM     28  H   UNL     1      -8.691   5.357  -8.106  0.00  0.00    +0.000 HD
BRANCH  26  29
ATOM     29  C   UNL     1      -7.768   6.486  -6.525  0.00  0.00    +0.000 C 
ATOM     30  H   UNL     1      -7.237   7.446  -6.483  0.00  0.00    +0.000 HD
ATOM     31  H   UNL     1      -7.177   5.774  -5.936  0.00  0.00    +0.000 HD
BRANCH  29  32
ATOM     32  C   UNL     1      -9.150   6.647  -5.888  0.00  0.00    +0.000 C 
ATOM     33  H   UNL     1      -9.079   7.330  -5.033  0.00  0.00    +0.000 HD
ATOM     34  H   UNL     1      -9.833   7.106  -6.614  0.00  0.00    +0.000 HD
BRANCH  32  36
ATOM     35 CL   UNL     1      -8.407   4.299  -4.745  0.00  0.00    +0.000 Cl
ATOM     36  C   UNL     1      -9.703   5.301  -5.435  0.00  0.00    +0.000 C 
ATOM     37  H   UNL     1     -10.139   4.750  -6.274  0.00  0.00    +0.000 HD
ATOM     38  H   UNL     1     -10.471   5.428  -4.666  0.00  0.00    +0.000 HD
ENDBRANCH  32  36
ENDBRANCH  29  32
ENDBRANCH  26  29
ENDBRANCH  23  26
ENDBRANCH   1  23
TORSDOF 11
ENDMDL
MODEL 5
REMARK VINA RESULT:    -4.323      3.217      4.577
REMARK INTER + INTRA:          -8.198
REMARK INTER:                  -7.487
REMARK INTRA:                  -0.711
REMARK UNBOUND:                -1.222
REMARK  Name = 8192
REMARK  11 active torsions:
REMARK  status: ('A' for Active; 'I' for Inactive)
REMARK    1  A    between atoms: C_2  and  C_3
REMARK    2  A    between atoms: C_2  and  C_4
REMARK    3  A    between atoms: C_3  and  C_5
REMARK    4  A    between atoms: C_4  and  C_6
REMARK    5  A    between atoms: C_5  and  C_7
REMARK    6  A    between atoms: C_6  and  C_8
REMARK    7  A    between atoms: C_7  and  C_9
REMARK    8  A    between atoms: C_8  and  C_10
REMARK    9  A    between atoms: C_9  and  C_11
REMARK   10  A    between atoms: C_10  and  C_12
REMARK   11  A    between atoms: C_11  and  C_13
REMARK                            x       y       z     vdW  Elec       q    Type
REMARK                         _______ _______ _______ _____ _____    ______ ____
ROOT
ATOM      1  C   UNL     1      -3.186   6.914  -9.729  0.00  0.00    +0.000 C 
ATOM      2  H   UNL     1      -2.700   7.248 -10.653  0.00  0.00    +0.000 HD
ATOM      3  H   UNL     1      -2.647   6.023  -9.382  0.00  0.00    +0.000 HD
ENDROOT
BRANCH   1   4
ATOM      4  C   UNL     1      -4.647   6.554 -10.016  0.00  0.00    +0.000 C 
ATOM      5  H   UNL     1      -5.174   7.433 -10.406  0.00  0.00    +0.000 HD
ATOM      6  H   UNL     1      -4.691   5.779 -10.791  0.00  0.00    +0.000 HD
BRANCH   4   7
ATOM      7  C   UNL     1      -5.351   6.051  -8.754  0.00  0.00    +0.000 C 
ATOM      8  H   UNL     1      -5.304   6.830  -7.983  0.00  0.00    +0.000 HD
ATOM      9  H   UNL     1      -4.813   5.181  -8.358  0.00  0.00    +0.000 HD
BRANCH   7  10
ATOM     10  C   UNL     1      -6.816   5.670  -8.986  0.00  0.00    +0.000 C 
ATOM     11  H   UNL     1      -7.393   6.579  -9.196  0.00  0.00    +0.000 HD
ATOM     12  H   UNL     1      -6.883   5.039  -9.880  0.00  0.00    +0.000 HD
BRANCH  10  13
ATOM     13  C   UNL     1      -7.449   4.940  -7.800  0.00  0.00    +0.000 C 
ATOM     14  H   UNL     1      -6.686   4.746  -7.037  0.00  0.00    +0.000 HD
ATOM     15  H   UNL     1      -7.828   3.966  -8.132  0.00  0.00    +0.000 HD
BRANCH  13  16
ATOM     16  C   UNL     1      -8.590   5.756  -7.192  0.00  0.00    +0.000 C 
ATOM     17  H   UNL     1      -9.098   6.328  -7.977  0.00  0.00    +0.000 HD
ATOM     18  H   UNL     1      -9.334   5.084  -6.748  0.00  0.00    +0.000 HD
BRANCH  16  19
ATOM     19  C   UNL     1      -8.085   6.712  -6.123  0.00  0.00    +0.000 C 
ATOM     20  H   UNL     1      -7.030   6.955  -6.282  0.00  0.00    +0.000 HD
ATOM     21  H   UNL     1      -8.658   7.645  -6.130  0.00  0.00    +0.000 HD
ATOM     22  H   UNL     1      -8.185   6.259  -5.132  0.00  0.00    +0.000 HD
ENDBRANCH  16  19
ENDBRANCH  13  16
ENDBRANCH  10  13
ENDBRANCH   7  10
ENDBRANCH   4   7
ENDBRANCH   1   4
BRANCH   1  23
ATOM     23  C   UNL     1      -3.085   8.017  -8.674  0.00  0.00    +0.000 C 
ATOM     24  H   UNL     1      -4.094   8.313  -8.357  0.00  0.00    +0.000 HD
ATOM     25  H   UNL     1      -2.578   7.621  -7.785  0.00  0.00    +0.000 HD
BRANCH  23  26
ATOM     26  C   UNL     1      -2.335   9.261  -9.159  0.00  0.00    +0.000 C 
ATOM     27  H   UNL     1      -2.173   9.927  -8.301  0.00  0.00    +0.000 HD
ATOM     28  H   UNL     1      -1.338   8.956  -9.504  0.00  0.00    +0.000 HD
BRANCH  26  29
ATOM     29  C   UNL     1      -3.016  10.061 -10.272  0.00  0.00    +0.000 C 
ATOM     30  H   UNL     1      -3.009  11.125 -10.001  0.00  0.00    +0.000 HD
ATOM     31  H   UNL     1      -4.069   9.758 -10.333  0.00  0.00    +0.000 HD
BRANCH  29  32
ATOM     32  C   UNL     1      -2.357   9.885 -11.642  0.00  0.00    +0.000 C 
ATOM     33  H   UNL     1      -2.886   9.105 -12.202  0.00  0.00    +0.000 HD
ATOM     34  H   UNL     1      -2.452  10.816 -12.214  0.00  0.00    +0.000 HD
BRANCH  32  36
ATOM     35 CL   UNL     1      -0.575   7.917 -12.211  0.00  0.00    +0.000 Cl
ATOM     36  C   UNL     1      -0.886   9.514 -11.497  0.00  0.00    +0.000 C 
ATOM     37  H   UNL     1      -0.592   9.470 -10.443  0.00  0.00    +0.000 HD
ATOM     38  H   UNL     1      -0.243  10.239 -12.007  0.00  0.00    +0.000 HD
ENDBRANCH  32  36
ENDBRANCH  29  32
ENDBRANCH  26  29
ENDBRANCH  23  26
ENDBRANCH   1  23
TORSDOF 11
ENDMDL
MODEL 6
REMARK VINA RESULT:    -4.202      2.112      2.995
REMARK INTER + INTRA:          -8.004
REMARK INTER:                  -7.400
REMARK INTRA:                  -0.604
REMARK UNBOUND:                -1.222
REMARK  Name = 8192
REMARK  11 active torsions:
REMARK  status: ('A' for Active; 'I' for Inactive)
REMARK    1  A    between atoms: C_2  and  C_3
REMARK    2  A    between atoms: C_2  and  C_4
REMARK    3  A    between atoms: C_3  and  C_5
REMARK    4  A    between atoms: C_4  and  C_6
REMARK    5  A    between atoms: C_5  and  C_7
REMARK    6  A    between atoms: C_6  and  C_8
REMARK    7  A    between atoms: C_7  and  C_9
REMARK    8  A    between atoms: C_8  and  C_10
REMARK    9  A    between atoms: C_9  and  C_11
REMARK   10  A    between atoms: C_10  and  C_12
REMARK   11  A    between atoms: C_11  and  C_13
REMARK                            x       y       z     vdW  Elec       q    Type
REMARK                         _______ _______ _______ _____ _____    ______ ____
ROOT
ATOM      1  C   UNL     1      -2.795   8.826  -8.805  0.00  0.00    +0.000 C 
ATOM      2  H   UNL     1      -1.866   8.929  -8.235  0.00  0.00    +0.000 HD
ATOM      3  H   UNL     1      -3.597   9.272  -8.203  0.00  0.00    +0.000 HD
ENDROOT
BRANCH   1   4
ATOM      4  C   UNL     1      -3.094   7.342  -9.041  0.00  0.00    +0.000 C 
ATOM      5  H   UNL     1      -2.155   6.776  -9.065  0.00  0.00    +0.000 HD
ATOM      6  H   UNL     1      -3.689   6.947  -8.209  0.00  0.00    +0.000 HD
BRANCH   4   7
ATOM      7  C   UNL     1      -3.853   7.132 -10.353  0.00  0.00    +0.000 C 
ATOM      8  H   UNL     1      -3.228   6.546 -11.039  0.00  0.00    +0.000 HD
ATOM      9  H   UNL     1      -4.026   8.103 -10.834  0.00  0.00    +0.000 HD
BRANCH   7  10
ATOM     10  C   UNL     1      -5.195   6.418 -10.172  0.00  0.00    +0.000 C 
ATOM     11  H   UNL     1      -6.003   7.086 -10.496  0.00  0.00    +0.000 HD
ATOM     12  H   UNL     1      -5.226   5.542 -10.830  0.00  0.00    +0.000 HD
BRANCH  10  13
ATOM     13  C   UNL     1      -5.460   5.979  -8.730  0.00  0.00    +0.000 C 
ATOM     14  H   UNL     1      -5.383   6.846  -8.062  0.00  0.00    +0.000 HD
ATOM     15  H   UNL     1      -4.689   5.264  -8.420  0.00  0.00    +0.000 HD
BRANCH  13  16
ATOM     16  C   UNL     1      -6.842   5.341  -8.590  0.00  0.00    +0.000 C 
ATOM     17  H   UNL     1      -7.380   5.406  -9.542  0.00  0.00    +0.000 HD
ATOM     18  H   UNL     1      -6.739   4.277  -8.347  0.00  0.00    +0.000 HD
BRANCH  16  19
ATOM     19  C   UNL     1      -7.662   6.019  -7.504  0.00  0.00    +0.000 C 
ATOM     20  H   UNL     1      -8.703   6.143  -7.818  0.00  0.00    +0.000 HD
ATOM     21  H   UNL     1      -7.650   5.431  -6.580  0.00  0.00    +0.000 HD
ATOM     22  H   UNL     1      -7.253   7.009  -7.281  0.00  0.00    +0.000 HD
ENDBRANCH  16  19
ENDBRANCH  13  16
ENDBRANCH  10  13
ENDBRANCH   7  10
ENDBRANCH   4   7
ENDBRANCH   1   4
BRANCH   1  23
ATOM     23  C   UNL     1      -2.668   9.582 -10.129  0.00  0.00    +0.000 C 
ATOM     24  H   UNL     1      -3.003   8.938 -10.951  0.00  0.00    +0.000 HD
ATOM     25  H   UNL     1      -3.337  10.451 -10.115  0.00  0.00    +0.000 HD
BRANCH  23  26
ATOM     26  C   UNL     1      -1.242  10.059 -10.425  0.00  0.00    +0.000 C 
ATOM     27  H   UNL     1      -1.108  11.052  -9.977  0.00  0.00    +0.000 HD
ATOM     28  H   UNL     1      -0.536   9.392  -9.912  0.00  0.00    +0.000 HD
BRANCH  26  29
ATOM     29  C   UNL     1      -0.857  10.138 -11.904  0.00  0.00    +0.000 C 
ATOM     30  H   UNL     1      -0.138  10.955 -12.042  0.00  0.00    +0.000 HD
ATOM     31  H   UNL     1      -1.747  10.399 -12.489  0.00  0.00    +0.000 HD
BRANCH  29  32
ATOM     32  C   UNL     1      -0.255   8.840 -12.449  0.00  0.00    +0.000 C 
ATOM     33  H   UNL     1       0.653   8.596 -11.885  0.00  0.00    +0.000 HD
ATOM     34  H   UNL     1      -0.964   8.017 -12.294  0.00  0.00    +0.000 HD
BRANCH  32  36
ATOM     35 CL   UNL     1      -1.191   9.900 -14.768  0.00  0.00    +0.000 Cl
ATOM     36  C   UNL     1       0.073   8.970 -13.931  0.00  0.00    +0.000 C 
ATOM     37  H   UNL     1       0.135   7.988 -14.410  0.00  0.00    +0.000 HD
ATOM     38  H   UNL     1       1.024   9.491 -14.082  0.00  0.00    +0.000 HD
ENDBRANCH  32  36
ENDBRANCH  29  32
ENDBRANCH  26  29
ENDBRANCH  23  26
ENDBRANCH   1  23
TORSDOF 11
ENDMDL
MODEL 7
REMARK VINA RESULT:    -4.200     18.717     21.309
REMARK INTER + INTRA:          -8.001
REMARK INTER:                  -7.501
REMARK INTRA:                  -0.500
REMARK UNBOUND:                -1.222
REMARK  Name = 8192
REMARK  11 active torsions:
REMARK  status: ('A' for Active; 'I' for Inactive)
REMARK    1  A    between atoms: C_2  and  C_3
REMARK    2  A    between atoms: C_2  and  C_4
REMARK    3  A    between atoms: C_3  and  C_5
REMARK    4  A    between atoms: C_4  and  C_6
REMARK    5  A    between atoms: C_5  and  C_7
REMARK    6  A    between atoms: C_6  and  C_8
REMARK    7  A    between atoms: C_7  and  C_9
REMARK    8  A    between atoms: C_8  and  C_10
REMARK    9  A    between atoms: C_9  and  C_11
REMARK   10  A    between atoms: C_10  and  C_12
REMARK   11  A    between atoms: C_11  and  C_13
REMARK                            x       y       z     vdW  Elec       q    Type
REMARK                         _______ _______ _______ _____ _____    ______ ____
ROOT
ATOM      1  C   UNL     1      -8.716  11.102   6.444  0.00  0.00    +0.000 C 
ATOM      2  H   UNL     1      -9.723  11.488   6.247  0.00  0.00    +0.000 HD
ATOM      3  H   UNL     1      -8.175  11.876   7.002  0.00  0.00    +0.000 HD
ENDROOT
BRANCH   1   4
ATOM      4  C   UNL     1      -8.000  10.827   5.118  0.00  0.00    +0.000 C 
ATOM      5  H   UNL     1      -7.355   9.947   5.222  0.00  0.00    +0.000 HD
ATOM      6  H   UNL     1      -8.738  10.598   4.340  0.00  0.00    +0.000 HD
BRANCH   4   7
ATOM      7  C   UNL     1      -7.161  12.030   4.682  0.00  0.00    +0.000 C 
ATOM      8  H   UNL     1      -7.681  12.556   3.871  0.00  0.00    +0.000 HD
ATOM      9  H   UNL     1      -6.207  11.679   4.269  0.00  0.00    +0.000 HD
BRANCH   7  10
ATOM     10  C   UNL     1      -6.880  13.019   5.817  0.00  0.00    +0.000 C 
ATOM     11  H   UNL     1      -7.834  13.397   6.206  0.00  0.00    +0.000 HD
ATOM     12  H   UNL     1      -6.392  12.486   6.642  0.00  0.00    +0.000 HD
BRANCH  10  13
ATOM     13  C   UNL     1      -6.011  14.204   5.390  0.00  0.00    +0.000 C 
ATOM     14  H   UNL     1      -5.697  14.073   4.347  0.00  0.00    +0.000 HD
ATOM     15  H   UNL     1      -5.100  14.225   6.001  0.00  0.00    +0.000 HD
BRANCH  13  16
ATOM     16  C   UNL     1      -6.763  15.526   5.541  0.00  0.00    +0.000 C 
ATOM     17  H   UNL     1      -7.293  15.546   6.501  0.00  0.00    +0.000 HD
ATOM     18  H   UNL     1      -6.053  16.361   5.545  0.00  0.00    +0.000 HD
BRANCH  16  19
ATOM     19  C   UNL     1      -7.763  15.731   4.413  0.00  0.00    +0.000 C 
ATOM     20  H   UNL     1      -7.333  16.343   3.614  0.00  0.00    +0.000 HD
ATOM     21  H   UNL     1      -8.071  14.771   3.984  0.00  0.00    +0.000 HD
ATOM     22  H   UNL     1      -8.657  16.238   4.787  0.00  0.00    +0.000 HD
ENDBRANCH  16  19
ENDBRANCH  13  16
ENDBRANCH  10  13
ENDBRANCH   7  10
ENDBRANCH   4   7
ENDBRANCH   1   4
BRANCH   1  23
ATOM     23  C   UNL     1      -8.814   9.833   7.293  0.00  0.00    +0.000 C 
ATOM     24  H   UNL     1      -9.791   9.360   7.131  0.00  0.00    +0.000 HD
ATOM     25  H   UNL     1      -8.055   9.114   6.957  0.00  0.00    +0.000 HD
BRANCH  23  26
ATOM     26  C   UNL     1      -8.628  10.085   8.792  0.00  0.00    +0.000 C 
ATOM     27  H   UNL     1      -8.235  11.101   8.928  0.00  0.00    +0.000 HD
ATOM     28  H   UNL     1      -9.614  10.069   9.275  0.00  0.00    +0.000 HD
BRANCH  26  29
ATOM     29  C   UNL     1      -7.706   9.107   9.526  0.00  0.00    +0.000 C 
ATOM     30  H   UNL     1      -6.917   9.675  10.034  0.00  0.00    +0.000 HD
ATOM     31  H   UNL     1      -7.209   8.467   8.787  0.00  0.00    +0.000 HD
BRANCH  29  32
ATOM     32  C   UNL     1      -8.435   8.231  10.548  0.00  0.00    +0.000 C 
ATOM     33  H   UNL     1      -8.792   7.319  10.055  0.00  0.00    +0.000 HD
ATOM     34  H   UNL     1      -7.731   7.923  11.330  0.00  0.00    +0.000 HD
BRANCH  32  36
ATOM     35 CL   UNL     1     -10.953   7.864  11.495  0.00  0.00    +0.000 Cl
ATOM     36  C   UNL     1      -9.608   8.979  11.170  0.00  0.00    +0.000 C 
ATOM     37  H   UNL     1      -9.979   9.761  10.500  0.00  0.00    +0.000 HD
ATOM     38  H   UNL     1      -9.322   9.442  12.119  0.00  0.00    +0.000 HD
ENDBRANCH  32  36
ENDBRANCH  29  32
ENDBRANCH  26  29
ENDBRANCH  23  26
ENDBRANCH   1  23
TORSDOF 11
ENDMDL
MODEL 8
REMARK VINA RESULT:    -4.184     18.219     20.812
REMARK INTER + INTRA:          -7.974
REMARK INTER:                  -6.755
REMARK INTRA:                  -1.219
REMARK UNBOUND:                -1.222
REMARK  Name = 8192
REMARK  11 active torsions:
REMARK  status: ('A' for Active; 'I' for Inactive)
REMARK    1  A    between atoms: C_2  and  C_3
REMARK    2  A    between atoms: C_2  and  C_4
REMARK    3  A    between atoms: C_3  and  C_5
REMARK    4  A    between atoms: C_4  and  C_6
REMARK    5  A    between atoms: C_5  and  C_7
REMARK    6  A    between atoms: C_6  and  C_8
REMARK    7  A    between atoms: C_7  and  C_9
REMARK    8  A    between atoms: C_8  and  C_10
REMARK    9  A    between atoms: C_9  and  C_11
REMARK   10  A    between atoms: C_10  and  C_12
REMARK   11  A    between atoms: C_11  and  C_13
REMARK                            x       y       z     vdW  Elec       q    Type
REMARK                         _______ _______ _______ _____ _____    ______ ____
ROOT
ATOM      1  C   UNL     1      -8.985  12.089   8.169  0.00  0.00    +0.000 C 
ATOM      2  H   UNL     1      -9.076  13.165   7.986  0.00  0.00    +0.000 HD
ATOM      3  H   UNL     1      -9.648  11.845   9.008  0.00  0.00    +0.000 HD
ENDROOT
BRANCH   1   4
ATOM      4  C   UNL     1      -7.538  11.750   8.540  0.00  0.00    +0.000 C 
ATOM      5  H   UNL     1      -7.144  11.002   7.842  0.00  0.00    +0.000 HD
ATOM      6  H   UNL     1      -6.912  12.645   8.443  0.00  0.00    +0.000 HD
BRANCH   4   7
ATOM      7  C   UNL     1      -7.443  11.216   9.971  0.00  0.00    +0.000 C 
ATOM      8  H   UNL     1      -8.433  11.278  10.442  0.00  0.00    +0.000 HD
ATOM      9  H   UNL     1      -6.774  11.859  10.556  0.00  0.00    +0.000 HD
BRANCH   7  10
ATOM     10  C   UNL     1      -6.944   9.771  10.049  0.00  0.00    +0.000 C 
ATOM     11  H   UNL     1      -6.035   9.673   9.443  0.00  0.00    +0.000 HD
ATOM     12  H   UNL     1      -6.659   9.547  11.084  0.00  0.00    +0.000 HD
BRANCH  10  13
ATOM     13  C   UNL     1      -7.974   8.745   9.572  0.00  0.00    +0.000 C 
ATOM     14  H   UNL     1      -7.458   7.875   9.149  0.00  0.00    +0.000 HD
ATOM     15  H   UNL     1      -8.579   9.183   8.769  0.00  0.00    +0.000 HD
BRANCH  13  16
ATOM     16  C   UNL     1      -8.883   8.299  10.717  0.00  0.00    +0.000 C 
ATOM     17  H   UNL     1      -8.996   7.209  10.699  0.00  0.00    +0.000 HD
ATOM     18  H   UNL     1      -8.428   8.562  11.679  0.00  0.00    +0.000 HD
BRANCH  16  19
ATOM     19  C   UNL     1     -10.256   8.946  10.625  0.00  0.00    +0.000 C 
ATOM     20  H   UNL     1     -10.924   8.561  11.402  0.00  0.00    +0.000 HD
ATOM     21  H   UNL     1     -10.185  10.033  10.741  0.00  0.00    +0.000 HD
ATOM     22  H   UNL     1     -10.709   8.737   9.652  0.00  0.00    +0.000 HD
ENDBRANCH  16  19
ENDBRANCH  13  16
ENDBRANCH  10  13
ENDBRANCH   7  10
ENDBRANCH   4   7
ENDBRANCH   1   4
BRANCH   1  23
ATOM     23  C   UNL     1      -9.431  11.321   6.923  0.00  0.00    +0.000 C 
ATOM     24  H   UNL     1     -10.224  10.613   7.195  0.00  0.00    +0.000 HD
ATOM     25  H   UNL     1      -9.867  12.023   6.202  0.00  0.00    +0.000 HD
BRANCH  23  26
ATOM     26  C   UNL     1      -8.295  10.552   6.241  0.00  0.00    +0.000 C 
ATOM     27  H   UNL     1      -7.471  10.439   6.958  0.00  0.00    +0.000 HD
ATOM     28  H   UNL     1      -8.647   9.537   6.014  0.00  0.00    +0.000 HD
BRANCH  26  29
ATOM     29  C   UNL     1      -7.739  11.178   4.959  0.00  0.00    +0.000 C 
ATOM     30  H   UNL     1      -7.670  10.403   4.185  0.00  0.00    +0.000 HD
ATOM     31  H   UNL     1      -6.717  11.526   5.149  0.00  0.00    +0.000 HD
BRANCH  29  32
ATOM     32  C   UNL     1      -8.583  12.342   4.433  0.00  0.00    +0.000 C 
ATOM     33  H   UNL     1      -8.784  12.190   3.365  0.00  0.00    +0.000 HD
ATOM     34  H   UNL     1      -9.551  12.352   4.948  0.00  0.00    +0.000 HD
BRANCH  32  36
ATOM     35 CL   UNL     1      -6.197  13.401   5.183  0.00  0.00    +0.000 Cl
ATOM     36  C   UNL     1      -7.869  13.672   4.643  0.00  0.00    +0.000 C 
ATOM     37  H   UNL     1      -8.372  14.273   5.407  0.00  0.00    +0.000 HD
ATOM     38  H   UNL     1      -7.830  14.251   3.715  0.00  0.00    +0.000 HD
ENDBRANCH  32  36
ENDBRANCH  29  32
ENDBRANCH  26  29
ENDBRANCH  23  26
ENDBRANCH   1  23
TORSDOF 11
ENDMDL
MODEL 9
REMARK VINA RESULT:    -4.182      1.485      3.301
REMARK INTER + INTRA:          -7.971
REMARK INTER:                  -6.688
REMARK INTRA:                  -1.283
REMARK UNBOUND:                -1.222
REMARK  Name = 8192
REMARK  11 active torsions:
REMARK  status: ('A' for Active; 'I' for Inactive)
REMARK    1  A    between atoms: C_2  and  C_3
REMARK    2  A    between atoms: C_2  and  C_4
REMARK    3  A    between atoms: C_3  and  C_5
REMARK    4  A    between atoms: C_4  and  C_6
REMARK    5  A    between atoms: C_5  and  C_7
REMARK    6  A    between atoms: C_6  and  C_8
REMARK    7  A    between atoms: C_7  and  C_9
REMARK    8  A    between atoms: C_8  and  C_10
REMARK    9  A    between atoms: C_9  and  C_11
REMARK   10  A    between atoms: C_10  and  C_12
REMARK   11  A    between atoms: C_11  and  C_13
REMARK                            x       y       z     vdW  Elec       q    Type
REMARK                         _______ _______ _______ _____ _____    ______ ____
ROOT
ATOM      1  C   UNL     1      -3.233   7.000 -10.195  0.00  0.00    +0.000 C 
ATOM      2  H   UNL     1      -2.738   7.673 -10.904  0.00  0.00    +0.000 HD
ATOM      3  H   UNL     1      -2.659   6.065 -10.180  0.00  0.00    +0.000 HD
ENDROOT
BRANCH   1   4
ATOM      4  C   UNL     1      -4.664   6.719 -10.664  0.00  0.00    +0.000 C 
ATOM      5  H   UNL     1      -4.990   5.742 -10.287  0.00  0.00    +0.000 HD
ATOM      6  H   UNL     1      -5.344   7.470 -10.247  0.00  0.00    +0.000 HD
BRANCH   4   7
ATOM      7  C   UNL     1      -4.760   6.738 -12.191  0.00  0.00    +0.000 C 
ATOM      8  H   UNL     1      -5.659   7.294 -12.486  0.00  0.00    +0.000 HD
ATOM      9  H   UNL     1      -4.886   5.713 -12.561  0.00  0.00    +0.000 HD
BRANCH   7  10
ATOM     10  C   UNL     1      -3.541   7.368 -12.869  0.00  0.00    +0.000 C 
ATOM     11  H   UNL     1      -2.973   7.941 -12.125  0.00  0.00    +0.000 HD
ATOM     12  H   UNL     1      -2.878   6.570 -13.226  0.00  0.00    +0.000 HD
BRANCH  10  13
ATOM     13  C   UNL     1      -3.902   8.288 -14.037  0.00  0.00    +0.000 C 
ATOM     14  H   UNL     1      -4.906   8.040 -14.404  0.00  0.00    +0.000 HD
ATOM     15  H   UNL     1      -3.204   8.117 -14.865  0.00  0.00    +0.000 HD
BRANCH  13  16
ATOM     16  C   UNL     1      -3.856   9.758 -13.619  0.00  0.00    +0.000 C 
ATOM     17  H   UNL     1      -3.153   9.887 -12.788  0.00  0.00    +0.000 HD
ATOM     18  H   UNL     1      -3.490  10.371 -14.452  0.00  0.00    +0.000 HD
BRANCH  16  19
ATOM     19  C   UNL     1      -5.227  10.263 -13.198  0.00  0.00    +0.000 C 
ATOM     20  H   UNL     1      -5.629   9.665 -12.374  0.00  0.00    +0.000 HD
ATOM     21  H   UNL     1      -5.176  11.307 -12.873  0.00  0.00    +0.000 HD
ATOM     22  H   UNL     1      -5.927  10.201 -14.036  0.00  0.00    +0.000 HD
ENDBRANCH  16  19
ENDBRANCH  13  16
ENDBRANCH  10  13
ENDBRANCH   7  10
ENDBRANCH   4   7
ENDBRANCH   1   4
BRANCH   1  23
ATOM     23  C   UNL     1      -3.221   7.630  -8.801  0.00  0.00    +0.000 C 
ATOM     24  H   UNL     1      -4.215   7.529  -8.346  0.00  0.00    +0.000 HD
ATOM     25  H   UNL     1      -2.522   7.078  -8.161  0.00  0.00    +0.000 HD
BRANCH  23  26
ATOM     26  C   UNL     1      -2.827   9.111  -8.804  0.00  0.00    +0.000 C 
ATOM     27  H   UNL     1      -3.599   9.677  -8.266  0.00  0.00    +0.000 HD
ATOM     28  H   UNL     1      -1.901   9.227  -8.226  0.00  0.00    +0.000 HD
BRANCH  26  29
ATOM     29  C   UNL     1      -2.630   9.748 -10.181  0.00  0.00    +0.000 C 
ATOM     30  H   UNL     1      -3.253  10.649 -10.249  0.00  0.00    +0.000 HD
ATOM     31  H   UNL     1      -2.995   9.055 -10.948  0.00  0.00    +0.000 HD
BRANCH  29  32
ATOM     32  C   UNL     1      -1.175  10.118 -10.481  0.00  0.00    +0.000 C 
ATOM     33  H   UNL     1      -1.093  11.205 -10.598  0.00  0.00    +0.000 HD
ATOM     34  H   UNL     1      -0.545   9.835  -9.628  0.00  0.00    +0.000 HD
BRANCH  32  36
ATOM     35 CL   UNL     1      -0.516  10.587 -13.073  0.00  0.00    +0.000 Cl
ATOM     36  C   UNL     1      -0.683   9.419 -11.743  0.00  0.00    +0.000 C 
ATOM     37  H   UNL     1      -1.386   8.646 -12.066  0.00  0.00    +0.000 HD
ATOM     38  H   UNL     1       0.295   8.955 -11.582  0.00  0.00    +0.000 HD
ENDBRANCH  32  36
ENDBRANCH  29  32
ENDBRANCH  26  29
ENDBRANCH  23  26
ENDBRANCH   1  23
TORSDOF 11
ENDMDL
MODEL 10
REMARK VINA RESULT:    -4.115     27.219     28.772
REMARK INTER + INTRA:          -7.864
REMARK INTER:                  -6.641
REMARK INTRA:                  -1.222
REMARK UNBOUND:                -1.222
REMARK  Name = 8192
REMARK  11 active torsions:
REMARK  status: ('A' for Active; 'I' for Inactive)
REMARK    1  A    between atoms: C_2  and  C_3
REMARK    2  A    between atoms: C_2  and  C_4
REMARK    3  A    between atoms: C_3  and  C_5
REMARK    4  A    between atoms: C_4  and  C_6
REMARK    5  A    between atoms: C_5  and  C_7
REMARK    6  A    between atoms: C_6  and  C_8
REMARK    7  A    between atoms: C_7  and  C_9
REMARK    8  A    between atoms: C_8  and  C_10
REMARK    9  A    between atoms: C_9  and  C_11
REMARK   10  A    between atoms: C_10  and  C_12
REMARK   11  A    between atoms: C_11  and  C_13
REMARK                            x       y       z     vdW  Elec       q    Type
REMARK                         _______ _______ _______ _____ _____    ______ ____
ROOT
ATOM      1  C   UNL     1     -20.470  -1.928   6.280  0.00  0.00    +0.000 C 
ATOM      2  H   UNL     1     -21.205  -2.604   6.733  0.00  0.00    +0.000 HD
ATOM      3  H   UNL     1     -19.506  -2.452   6.277  0.00  0.00    +0.000 HD
ENDROOT
BRANCH   1   4
ATOM      4  C   UNL     1     -20.361  -0.650   7.117  0.00  0.00    +0.000 C 
ATOM      5  H   UNL     1     -19.391  -0.626   7.628  0.00  0.00    +0.000 HD
ATOM      6  H   UNL     1     -20.402   0.227   6.460  0.00  0.00    +0.000 HD
BRANCH   4   7
ATOM      7  C   UNL     1     -21.487  -0.565   8.149  0.00  0.00    +0.000 C 
ATOM      8  H   UNL     1     -22.111   0.310   7.928  0.00  0.00    +0.000 HD
ATOM      9  H   UNL     1     -21.057  -0.404   9.145  0.00  0.00    +0.000 HD
BRANCH   7  10
ATOM     10  C   UNL     1     -22.375  -1.812   8.184  0.00  0.00    +0.000 C 
ATOM     11  H   UNL     1     -22.003  -2.537   7.449  0.00  0.00    +0.000 HD
ATOM     12  H   UNL     1     -22.285  -2.287   9.168  0.00  0.00    +0.000 HD
BRANCH  10  13
ATOM     13  C   UNL     1     -23.848  -1.518   7.893  0.00  0.00    +0.000 C 
ATOM     14  H   UNL     1     -24.057  -0.459   8.090  0.00  0.00    +0.000 HD
ATOM     15  H   UNL     1     -24.477  -2.103   8.574  0.00  0.00    +0.000 HD
BRANCH  13  16
ATOM     16  C   UNL     1     -24.205  -1.854   6.445  0.00  0.00    +0.000 C 
ATOM     17  H   UNL     1     -25.154  -1.376   6.175  0.00  0.00    +0.000 HD
ATOM     18  H   UNL     1     -23.438  -1.456   5.770  0.00  0.00    +0.000 HD
BRANCH  16  19
ATOM     19  C   UNL     1     -24.322  -3.355   6.233  0.00  0.00    +0.000 C 
ATOM     20  H   UNL     1     -24.227  -3.610   5.172  0.00  0.00    +0.000 HD
ATOM     21  H   UNL     1     -23.543  -3.890   6.786  0.00  0.00    +0.000 HD
ATOM     22  H   UNL     1     -25.295  -3.713   6.583  0.00  0.00    +0.000 HD
ENDBRANCH  16  19
ENDBRANCH  13  16
ENDBRANCH  10  13
ENDBRANCH   7  10
ENDBRANCH   4   7
ENDBRANCH   1   4
BRANCH   1  23
ATOM     23  C   UNL     1     -20.886  -1.614   4.842  0.00  0.00    +0.000 C 
ATOM     24  H   UNL     1     -21.753  -0.941   4.851  0.00  0.00    +0.000 HD
ATOM     25  H   UNL     1     -20.073  -1.075   4.340  0.00  0.00    +0.000 HD
BRANCH  23  26
ATOM     26  C   UNL     1     -21.237  -2.859   4.021  0.00  0.00    +0.000 C 
ATOM     27  H   UNL     1     -22.287  -2.785   3.708  0.00  0.00    +0.000 HD
ATOM     28  H   UNL     1     -20.640  -2.850   3.099  0.00  0.00    +0.000 HD
BRANCH  26  29
ATOM     29  C   UNL     1     -21.034  -4.203   4.725  0.00  0.00    +0.000 C 
ATOM     30  H   UNL     1     -22.011  -4.588   5.045  0.00  0.00    +0.000 HD
ATOM     31  H   UNL     1     -20.445  -4.041   5.635  0.00  0.00    +0.000 HD
BRANCH  29  32
ATOM     32  C   UNL     1     -20.341  -5.251   3.851  0.00  0.00    +0.000 C 
ATOM     33  H   UNL     1     -20.809  -6.229   4.017  0.00  0.00    +0.000 HD
ATOM     34  H   UNL     1     -20.487  -4.998   2.794  0.00  0.00    +0.000 HD
BRANCH  32  36
ATOM     35 CL   UNL     1     -17.891  -4.936   2.722  0.00  0.00    +0.000 Cl
ATOM     36  C   UNL     1     -18.852  -5.327   4.166  0.00  0.00    +0.000 C 
ATOM     37  H   UNL     1     -18.567  -6.331   4.493  0.00  0.00    +0.000 HD
ATOM     38  H   UNL     1     -18.578  -4.615   4.951  0.00  0.00    +0.000 HD
ENDBRANCH  32  36
ENDBRANCH  29  32
ENDBRANCH  26  29
ENDBRANCH  23  26
ENDBRANCH   1  23
TORSDOF 11
ENDMDL
