MODEL 1
REMARK VINA RESULT:    -3.887      0.000      0.000
REMARK INTER + INTRA:          -5.212
REMARK INTER:                  -5.155
REMARK INTRA:                  -0.057
REMARK UNBOUND:                -0.189
REMARK  Name = 8103
REMARK  6 active torsions:
REMARK  status: ('A' for Active; 'I' for Inactive)
REMARK    1  A    between atoms: O_1  and  C_6
REMARK    2  A    between atoms: C_2  and  C_3
REMARK    3  A    between atoms: C_2  and  C_4
REMARK    4  A    between atoms: C_3  and  C_5
REMARK    5  A    between atoms: C_4  and  C_6
REMARK    6  A    between atoms: C_5  and  C_7
REMARK                            x       y       z     vdW  Elec       q    Type
REMARK                         _______ _______ _______ _____ _____    ______ ____
ROOT
ATOM      1  C   UNL     1     -20.410  -3.730   5.591  0.00  0.00    +0.000 C 
ATOM      2  H   UNL     1     -20.727  -4.304   6.470  0.00  0.00    +0.000 HD
ATOM      3  H   UNL     1     -19.431  -3.298   5.832  0.00  0.00    +0.000 HD
ENDROOT
BRANCH   1   4
ATOM      4  C   UNL     1     -21.412  -2.597   5.350  0.00  0.00    +0.000 C 
ATOM      5  H   UNL     1     -21.957  -2.790   4.419  0.00  0.00    +0.000 HD
ATOM      6  H   UNL     1     -22.153  -2.602   6.159  0.00  0.00    +0.000 HD
BRANCH   4   7
ATOM      7  C   UNL     1     -20.759  -1.216   5.272  0.00  0.00    +0.000 C 
ATOM      8  H   UNL     1     -19.905  -1.247   4.586  0.00  0.00    +0.000 HD
ATOM      9  H   UNL     1     -21.474  -0.489   4.870  0.00  0.00    +0.000 HD
BRANCH   7  10
ATOM     10  C   UNL     1     -20.282  -0.750   6.640  0.00  0.00    +0.000 C 
ATOM     11  H   UNL     1     -20.000  -1.610   7.256  0.00  0.00    +0.000 HD
ATOM     12  H   UNL     1     -19.408  -0.097   6.549  0.00  0.00    +0.000 HD
ATOM     13  H   UNL     1     -21.070  -0.200   7.164  0.00  0.00    +0.000 HD
ENDBRANCH   7  10
ENDBRANCH   4   7
ENDBRANCH   1   4
BRANCH   1  14
ATOM     14  C   UNL     1     -20.262  -4.673   4.399  0.00  0.00    +0.000 C 
ATOM     15  H   UNL     1     -20.353  -4.111   3.461  0.00  0.00    +0.000 HD
ATOM     16  H   UNL     1     -21.080  -5.405   4.390  0.00  0.00    +0.000 HD
BRANCH  14  17
ATOM     17  C   UNL     1     -18.929  -5.407   4.429  0.00  0.00    +0.000 C 
ATOM     18  H   UNL     1     -19.002  -6.395   3.964  0.00  0.00    +0.000 HD
ATOM     19  H   UNL     1     -18.153  -4.835   3.909  0.00  0.00    +0.000 HD
BRANCH  17  20
ATOM     20  O   UNL     1     -18.526  -5.573   5.781  0.00  0.00    +0.000 OA
ATOM     21  H   UNL     1     -19.265  -5.293   6.345  0.00  0.00    +0.000 HD
ENDBRANCH  17  20
ENDBRANCH  14  17
ENDBRANCH   1  14
TORSDOF 6
ENDMDL
MODEL 2
REMARK VINA RESULT:    -3.786     26.715     27.225
REMARK INTER + INTRA:          -5.082
REMARK INTER:                  -4.961
REMARK INTRA:                  -0.121
REMARK UNBOUND:                -0.189
REMARK  Name = 8103
REMARK  6 active torsions:
REMARK  status: ('A' for Active; 'I' for Inactive)
REMARK    1  A    between atoms: O_1  and  C_6
REMARK    2  A    between atoms: C_2  and  C_3
REMARK    3  A    between atoms: C_2  and  C_4
REMARK    4  A    between atoms: C_3  and  C_5
REMARK    5  A    between atoms: C_4  and  C_6
REMARK    6  A    between atoms: C_5  and  C_7
REMARK                            x       y       z     vdW  Elec       q    Type
REMARK                         _______ _______ _______ _____ _____    ______ ____
ROOT
ATOM      1  C   UNL     1      -2.529   9.630 -10.274  0.00  0.00    +0.000 C 
ATOM      2  H   UNL     1      -3.161  10.527 -10.263  0.00  0.00    +0.000 HD
ATOM      3  H   UNL     1      -2.921   8.978 -11.064  0.00  0.00    +0.000 HD
ENDROOT
BRANCH   1   4
ATOM      4  C   UNL     1      -2.659   8.915  -8.925  0.00  0.00    +0.000 C 
ATOM      5  H   UNL     1      -1.670   8.850  -8.457  0.00  0.00    +0.000 HD
ATOM      6  H   UNL     1      -3.285   9.523  -8.261  0.00  0.00    +0.000 HD
BRANCH   4   7
ATOM      7  C   UNL     1      -3.255   7.511  -9.037  0.00  0.00    +0.000 C 
ATOM      8  H   UNL     1      -2.954   6.910  -8.171  0.00  0.00    +0.000 HD
ATOM      9  H   UNL     1      -4.349   7.571  -9.027  0.00  0.00    +0.000 HD
BRANCH   7  10
ATOM     10  C   UNL     1      -2.799   6.814 -10.310  0.00  0.00    +0.000 C 
ATOM     11  H   UNL     1      -3.385   7.165 -11.165  0.00  0.00    +0.000 HD
ATOM     12  H   UNL     1      -1.743   7.021 -10.514  0.00  0.00    +0.000 HD
ATOM     13  H   UNL     1      -2.927   5.730 -10.231  0.00  0.00    +0.000 HD
ENDBRANCH   7  10
ENDBRANCH   4   7
ENDBRANCH   1   4
BRANCH   1  14
ATOM     14  C   UNL     1      -1.095  10.027 -10.616  0.00  0.00    +0.000 C 
ATOM     15  H   UNL     1      -0.391   9.474  -9.982  0.00  0.00    +0.000 HD
ATOM     16  H   UNL     1      -0.931  11.089 -10.392  0.00  0.00    +0.000 HD
BRANCH  14  17
ATOM     17  C   UNL     1      -0.778   9.766 -12.082  0.00  0.00    +0.000 C 
ATOM     18  H   UNL     1      -1.682   9.543 -12.657  0.00  0.00    +0.000 HD
ATOM     19  H   UNL     1      -0.282  10.630 -12.537  0.00  0.00    +0.000 HD
BRANCH  17  20
ATOM     20  O   UNL     1       0.102   8.653 -12.171  0.00  0.00    +0.000 OA
ATOM     21  H   UNL     1       0.927   8.963 -12.579  0.00  0.00    +0.000 HD
ENDBRANCH  17  20
ENDBRANCH  14  17
ENDBRANCH   1  14
TORSDOF 6
ENDMDL
MODEL 3
REMARK VINA RESULT:    -3.636     26.396     26.780
REMARK INTER + INTRA:          -4.887
REMARK INTER:                  -4.806
REMARK INTRA:                  -0.081
REMARK UNBOUND:                -0.189
REMARK  Name = 8103
REMARK  6 active torsions:
REMARK  status: ('A' for Active; 'I' for Inactive)
REMARK    1  A    between atoms: O_1  and  C_6
REMARK    2  A    between atoms: C_2  and  C_3
REMARK    3  A    between atoms: C_2  and  C_4
REMARK    4  A    between atoms: C_3  and  C_5
REMARK    5  A    between atoms: C_4  and  C_6
REMARK    6  A    between atoms: C_5  and  C_7
REMARK                            x       y       z     vdW  Elec       q    Type
REMARK                         _______ _______ _______ _____ _____    ______ ____
ROOT
ATOM      1  C   UNL     1      -2.963   7.238 -11.159  0.00  0.00    +0.000 C 
ATOM      2  H   UNL     1      -3.113   8.320 -11.258  0.00  0.00    +0.000 HD
ATOM      3  H   UNL     1      -3.773   6.754 -11.718  0.00  0.00    +0.000 HD
ENDROOT
BRANCH   1   4
ATOM      4  C   UNL     1      -3.079   6.855  -9.680  0.00  0.00    +0.000 C 
ATOM      5  H   UNL     1      -3.959   6.215  -9.542  0.00  0.00    +0.000 HD
ATOM      6  H   UNL     1      -2.204   6.255  -9.400  0.00  0.00    +0.000 HD
BRANCH   4   7
ATOM      7  C   UNL     1      -3.184   8.061  -8.746  0.00  0.00    +0.000 C 
ATOM      8  H   UNL     1      -4.238   8.294  -8.557  0.00  0.00    +0.000 HD
ATOM      9  H   UNL     1      -2.724   7.823  -7.780  0.00  0.00    +0.000 HD
BRANCH   7  10
ATOM     10  C   UNL     1      -2.503   9.284  -9.342  0.00  0.00    +0.000 C 
ATOM     11  H   UNL     1      -3.108   9.695 -10.156  0.00  0.00    +0.000 HD
ATOM     12  H   UNL     1      -2.373  10.067  -8.588  0.00  0.00    +0.000 HD
ATOM     13  H   UNL     1      -1.518   9.028  -9.745  0.00  0.00    +0.000 HD
ENDBRANCH   7  10
ENDBRANCH   4   7
ENDBRANCH   1   4
BRANCH   1  14
ATOM     14  C   UNL     1      -1.624   6.854 -11.783  0.00  0.00    +0.000 C 
ATOM     15  H   UNL     1      -1.729   5.925 -12.358  0.00  0.00    +0.000 HD
ATOM     16  H   UNL     1      -0.887   6.638 -10.998  0.00  0.00    +0.000 HD
BRANCH  14  17
ATOM     17  C   UNL     1      -1.091   7.957 -12.686  0.00  0.00    +0.000 C 
ATOM     18  H   UNL     1      -0.980   7.615 -13.719  0.00  0.00    +0.000 HD
ATOM     19  H   UNL     1      -1.756   8.827 -12.678  0.00  0.00    +0.000 HD
BRANCH  17  20
ATOM     20  O   UNL     1       0.182   8.369 -12.206  0.00  0.00    +0.000 OA
ATOM     21  H   UNL     1       0.661   8.769 -12.951  0.00  0.00    +0.000 HD
ENDBRANCH  17  20
ENDBRANCH  14  17
ENDBRANCH   1  14
TORSDOF 6
ENDMDL
MODEL 4
REMARK VINA RESULT:    -3.497     27.063     27.802
REMARK INTER + INTRA:          -4.708
REMARK INTER:                  -4.575
REMARK INTRA:                  -0.133
REMARK UNBOUND:                -0.189
REMARK  Name = 8103
REMARK  6 active torsions:
REMARK  status: ('A' for Active; 'I' for Inactive)
REMARK    1  A    between atoms: O_1  and  C_6
REMARK    2  A    between atoms: C_2  and  C_3
REMARK    3  A    between atoms: C_2  and  C_4
REMARK    4  A    between atoms: C_3  and  C_5
REMARK    5  A    between atoms: C_4  and  C_6
REMARK    6  A    between atoms: C_5  and  C_7
REMARK                            x       y       z     vdW  Elec       q    Type
REMARK                         _______ _______ _______ _____ _____    ______ ____
ROOT
ATOM      1  C   UNL     1       3.981   9.524   0.444  0.00  0.00    +0.000 C 
ATOM      2  H   UNL     1       4.994   9.260   0.116  0.00  0.00    +0.000 HD
ATOM      3  H   UNL     1       3.316   9.339  -0.408  0.00  0.00    +0.000 HD
ENDROOT
BRANCH   1   4
ATOM      4  C   UNL     1       3.944  11.015   0.793  0.00  0.00    +0.000 C 
ATOM      5  H   UNL     1       3.458  11.144   1.767  0.00  0.00    +0.000 HD
ATOM      6  H   UNL     1       4.974  11.379   0.901  0.00  0.00    +0.000 HD
BRANCH   4   7
ATOM      7  C   UNL     1       3.215  11.865  -0.248  0.00  0.00    +0.000 C 
ATOM      8  H   UNL     1       2.178  12.031   0.067  0.00  0.00    +0.000 HD
ATOM      9  H   UNL     1       3.693  12.848  -0.326  0.00  0.00    +0.000 HD
BRANCH   7  10
ATOM     10  C   UNL     1       3.218  11.193  -1.613  0.00  0.00    +0.000 C 
ATOM     11  H   UNL     1       3.752  11.813  -2.339  0.00  0.00    +0.000 HD
ATOM     12  H   UNL     1       3.714  10.218  -1.569  0.00  0.00    +0.000 HD
ATOM     13  H   UNL     1       2.197  11.044  -1.979  0.00  0.00    +0.000 HD
ENDBRANCH   7  10
ENDBRANCH   4   7
ENDBRANCH   1   4
BRANCH   1  14
ATOM     14  C   UNL     1       3.573   8.618   1.604  0.00  0.00    +0.000 C 
ATOM     15  H   UNL     1       4.277   7.781   1.692  0.00  0.00    +0.000 HD
ATOM     16  H   UNL     1       2.593   8.166   1.406  0.00  0.00    +0.000 HD
BRANCH  14  17
ATOM     17  C   UNL     1       3.520   9.383   2.919  0.00  0.00    +0.000 C 
ATOM     18  H   UNL     1       3.638  10.460   2.763  0.00  0.00    +0.000 HD
ATOM     19  H   UNL     1       2.571   9.210   3.437  0.00  0.00    +0.000 HD
BRANCH  17  20
ATOM     20  O   UNL     1       4.572   8.929   3.758  0.00  0.00    +0.000 OA
ATOM     21  H   UNL     1       5.136   8.339   3.230  0.00  0.00    +0.000 HD
ENDBRANCH  17  20
ENDBRANCH  14  17
ENDBRANCH   1  14
TORSDOF 6
ENDMDL
MODEL 5
REMARK VINA RESULT:    -3.496      3.105      4.529
REMARK INTER + INTRA:          -4.707
REMARK INTER:                  -4.560
REMARK INTRA:                  -0.147
REMARK UNBOUND:                -0.189
REMARK  Name = 8103
REMARK  6 active torsions:
REMARK  status: ('A' for Active; 'I' for Inactive)
REMARK    1  A    between atoms: O_1  and  C_6
REMARK    2  A    between atoms: C_2  and  C_3
REMARK    3  A    between atoms: C_2  and  C_4
REMARK    4  A    between atoms: C_3  and  C_5
REMARK    5  A    between atoms: C_4  and  C_6
REMARK    6  A    between atoms: C_5  and  C_7
REMARK                            x       y       z     vdW  Elec       q    Type
REMARK                         _______ _______ _______ _____ _____    ______ ____
ROOT
ATOM      1  C   UNL     1     -20.458  -0.510   5.700  0.00  0.00    +0.000 C 
ATOM      2  H   UNL     1     -20.893   0.487   5.556  0.00  0.00    +0.000 HD
ATOM      3  H   UNL     1     -19.422  -0.457   5.342  0.00  0.00    +0.000 HD
ENDROOT
BRANCH   1   4
ATOM      4  C   UNL     1     -21.231  -1.518   4.844  0.00  0.00    +0.000 C 
ATOM      5  H   UNL     1     -22.267  -1.572   5.201  0.00  0.00    +0.000 HD
ATOM      6  H   UNL     1     -21.271  -1.149   3.812  0.00  0.00    +0.000 HD
BRANCH   4   7
ATOM      7  C   UNL     1     -20.622  -2.920   4.857  0.00  0.00    +0.000 C 
ATOM      8  H   UNL     1     -20.210  -3.155   3.869  0.00  0.00    +0.000 HD
ATOM      9  H   UNL     1     -19.792  -2.958   5.573  0.00  0.00    +0.000 HD
BRANCH   7  10
ATOM     10  C   UNL     1     -21.657  -3.971   5.228  0.00  0.00    +0.000 C 
ATOM     11  H   UNL     1     -22.599  -3.775   4.707  0.00  0.00    +0.000 HD
ATOM     12  H   UNL     1     -21.317  -4.973   4.948  0.00  0.00    +0.000 HD
ATOM     13  H   UNL     1     -21.856  -3.964   6.305  0.00  0.00    +0.000 HD
ENDBRANCH   7  10
ENDBRANCH   4   7
ENDBRANCH   1   4
BRANCH   1  14
ATOM     14  C   UNL     1     -20.457  -0.851   7.188  0.00  0.00    +0.000 C 
ATOM     15  H   UNL     1     -19.869  -0.109   7.743  0.00  0.00    +0.000 HD
ATOM     16  H   UNL     1     -19.959  -1.815   7.357  0.00  0.00    +0.000 HD
BRANCH  14  17
ATOM     17  C   UNL     1     -21.870  -0.909   7.750  0.00  0.00    +0.000 C 
ATOM     18  H   UNL     1     -22.613  -0.611   7.003  0.00  0.00    +0.000 HD
ATOM     19  H   UNL     1     -22.114  -1.918   8.098  0.00  0.00    +0.000 HD
BRANCH  17  20
ATOM     20  O   UNL     1     -21.962  -0.023   8.857  0.00  0.00    +0.000 OA
ATOM     21  H   UNL     1     -22.336  -0.523   9.602  0.00  0.00    +0.000 HD
ENDBRANCH  17  20
ENDBRANCH  14  17
ENDBRANCH   1  14
TORSDOF 6
ENDMDL
MODEL 6
REMARK VINA RESULT:    -3.484     29.814     30.438
REMARK INTER + INTRA:          -4.691
REMARK INTER:                  -4.593
REMARK INTRA:                  -0.098
REMARK UNBOUND:                -0.189
REMARK  Name = 8103
REMARK  6 active torsions:
REMARK  status: ('A' for Active; 'I' for Inactive)
REMARK    1  A    between atoms: O_1  and  C_6
REMARK    2  A    between atoms: C_2  and  C_3
REMARK    3  A    between atoms: C_2  and  C_4
REMARK    4  A    between atoms: C_3  and  C_5
REMARK    5  A    between atoms: C_4  and  C_6
REMARK    6  A    between atoms: C_5  and  C_7
REMARK                            x       y       z     vdW  Elec       q    Type
REMARK                         _______ _______ _______ _____ _____    ______ ____
ROOT
ATOM      1  C   UNL     1       6.462  10.968  -1.311  0.00  0.00    +0.000 C 
ATOM      2  H   UNL     1       6.606  11.687  -2.127  0.00  0.00    +0.000 HD
ATOM      3  H   UNL     1       5.649  10.300  -1.619  0.00  0.00    +0.000 HD
ENDROOT
BRANCH   1   4
ATOM      4  C   UNL     1       6.036  11.728  -0.051  0.00  0.00    +0.000 C 
ATOM      5  H   UNL     1       6.671  11.418   0.788  0.00  0.00    +0.000 HD
ATOM      6  H   UNL     1       6.214  12.799  -0.206  0.00  0.00    +0.000 HD
BRANCH   4   7
ATOM      7  C   UNL     1       4.569  11.509   0.323  0.00  0.00    +0.000 C 
ATOM      8  H   UNL     1       4.488  10.687   1.043  0.00  0.00    +0.000 HD
ATOM      9  H   UNL     1       4.172  12.408   0.809  0.00  0.00    +0.000 HD
BRANCH   7  10
ATOM     10  C   UNL     1       3.728  11.183  -0.902  0.00  0.00    +0.000 C 
ATOM     11  H   UNL     1       4.227  11.536  -1.809  0.00  0.00    +0.000 HD
ATOM     12  H   UNL     1       3.575  10.103  -0.996  0.00  0.00    +0.000 HD
ATOM     13  H   UNL     1       2.747  11.666  -0.844  0.00  0.00    +0.000 HD
ENDBRANCH   7  10
ENDBRANCH   4   7
ENDBRANCH   1   4
BRANCH   1  14
ATOM     14  C   UNL     1       7.740  10.152  -1.125  0.00  0.00    +0.000 C 
ATOM     15  H   UNL     1       8.353  10.590  -0.328  0.00  0.00    +0.000 HD
ATOM     16  H   UNL     1       8.354  10.196  -2.034  0.00  0.00    +0.000 HD
BRANCH  14  17
ATOM     17  C   UNL     1       7.431   8.699  -0.795  0.00  0.00    +0.000 C 
ATOM     18  H   UNL     1       7.607   8.479   0.262  0.00  0.00    +0.000 HD
ATOM     19  H   UNL     1       6.390   8.454  -1.031  0.00  0.00    +0.000 HD
BRANCH  17  20
ATOM     20  O   UNL     1       8.271   7.861  -1.577  0.00  0.00    +0.000 OA
ATOM     21  H   UNL     1       9.171   8.225  -1.536  0.00  0.00    +0.000 HD
ENDBRANCH  17  20
ENDBRANCH  14  17
ENDBRANCH   1  14
TORSDOF 6
ENDMDL
MODEL 7
REMARK VINA RESULT:    -3.453     27.133     27.879
REMARK INTER + INTRA:          -4.652
REMARK INTER:                  -4.585
REMARK INTRA:                  -0.066
REMARK UNBOUND:                -0.189
REMARK  Name = 8103
REMARK  6 active torsions:
REMARK  status: ('A' for Active; 'I' for Inactive)
REMARK    1  A    between atoms: O_1  and  C_6
REMARK    2  A    between atoms: C_2  and  C_3
REMARK    3  A    between atoms: C_2  and  C_4
REMARK    4  A    between atoms: C_3  and  C_5
REMARK    5  A    between atoms: C_4  and  C_6
REMARK    6  A    between atoms: C_5  and  C_7
REMARK                            x       y       z     vdW  Elec       q    Type
REMARK                         _______ _______ _______ _____ _____    ______ ____
ROOT
ATOM      1  C   UNL     1       3.580   8.607   2.016  0.00  0.00    +0.000 C 
ATOM      2  H   UNL     1       2.854   9.249   2.529  0.00  0.00    +0.000 HD
ATOM      3  H   UNL     1       3.107   7.624   1.903  0.00  0.00    +0.000 HD
ENDROOT
BRANCH   1   4
ATOM      4  C   UNL     1       4.826   8.464   2.894  0.00  0.00    +0.000 C 
ATOM      5  H   UNL     1       5.715   8.702   2.298  0.00  0.00    +0.000 HD
ATOM      6  H   UNL     1       4.778   9.206   3.701  0.00  0.00    +0.000 HD
BRANCH   4   7
ATOM      7  C   UNL     1       4.986   7.069   3.500  0.00  0.00    +0.000 C 
ATOM      8  H   UNL     1       4.104   6.822   4.103  0.00  0.00    +0.000 HD
ATOM      9  H   UNL     1       5.054   6.323   2.700  0.00  0.00    +0.000 HD
BRANCH   7  10
ATOM     10  C   UNL     1       6.227   6.984   4.376  0.00  0.00    +0.000 C 
ATOM     11  H   UNL     1       6.147   7.682   5.215  0.00  0.00    +0.000 HD
ATOM     12  H   UNL     1       6.352   5.976   4.783  0.00  0.00    +0.000 HD
ATOM     13  H   UNL     1       7.127   7.239   3.807  0.00  0.00    +0.000 HD
ENDBRANCH   7  10
ENDBRANCH   4   7
ENDBRANCH   1   4
BRANCH   1  14
ATOM     14  C   UNL     1       3.874   9.182   0.632  0.00  0.00    +0.000 C 
ATOM     15  H   UNL     1       2.991   9.085  -0.011  0.00  0.00    +0.000 HD
ATOM     16  H   UNL     1       4.668   8.605   0.141  0.00  0.00    +0.000 HD
BRANCH  14  17
ATOM     17  C   UNL     1       4.291  10.644   0.712  0.00  0.00    +0.000 C 
ATOM     18  H   UNL     1       5.212  10.770   1.289  0.00  0.00    +0.000 HD
ATOM     19  H   UNL     1       4.448  11.064  -0.287  0.00  0.00    +0.000 HD
BRANCH  17  20
ATOM     20  O   UNL     1       3.256  11.384   1.346  0.00  0.00    +0.000 OA
ATOM     21  H   UNL     1       3.403  12.323   1.148  0.00  0.00    +0.000 HD
ENDBRANCH  17  20
ENDBRANCH  14  17
ENDBRANCH   1  14
TORSDOF 6
ENDMDL
MODEL 8
REMARK VINA RESULT:    -3.361     27.410     28.119
REMARK INTER + INTRA:          -4.533
REMARK INTER:                  -4.311
REMARK INTRA:                  -0.222
REMARK UNBOUND:                -0.189
REMARK  Name = 8103
REMARK  6 active torsions:
REMARK  status: ('A' for Active; 'I' for Inactive)
REMARK    1  A    between atoms: O_1  and  C_6
REMARK    2  A    between atoms: C_2  and  C_3
REMARK    3  A    between atoms: C_2  and  C_4
REMARK    4  A    between atoms: C_3  and  C_5
REMARK    5  A    between atoms: C_4  and  C_6
REMARK    6  A    between atoms: C_5  and  C_7
REMARK                            x       y       z     vdW  Elec       q    Type
REMARK                         _______ _______ _______ _____ _____    ______ ____
ROOT
ATOM      1  C   UNL     1       5.329   7.162   3.316  0.00  0.00    +0.000 C 
ATOM      2  H   UNL     1       5.263   6.113   3.002  0.00  0.00    +0.000 HD
ATOM      3  H   UNL     1       4.301   7.509   3.474  0.00  0.00    +0.000 HD
ENDROOT
BRANCH   1   4
ATOM      4  C   UNL     1       5.966   7.979   2.189  0.00  0.00    +0.000 C 
ATOM      5  H   UNL     1       6.729   8.643   2.612  0.00  0.00    +0.000 HD
ATOM      6  H   UNL     1       6.485   7.295   1.506  0.00  0.00    +0.000 HD
BRANCH   4   7
ATOM      7  C   UNL     1       4.957   8.813   1.398  0.00  0.00    +0.000 C 
ATOM      8  H   UNL     1       5.299   9.853   1.339  0.00  0.00    +0.000 HD
ATOM      9  H   UNL     1       4.886   8.435   0.372  0.00  0.00    +0.000 HD
BRANCH   7  10
ATOM     10  C   UNL     1       3.581   8.778   2.045  0.00  0.00    +0.000 C 
ATOM     11  H   UNL     1       3.651   8.386   3.064  0.00  0.00    +0.000 HD
ATOM     12  H   UNL     1       3.146   9.782   2.097  0.00  0.00    +0.000 HD
ATOM     13  H   UNL     1       2.898   8.136   1.480  0.00  0.00    +0.000 HD
ENDBRANCH   7  10
ENDBRANCH   4   7
ENDBRANCH   1   4
BRANCH   1  14
ATOM     14  C   UNL     1       6.094   7.247   4.635  0.00  0.00    +0.000 C 
ATOM     15  H   UNL     1       7.126   6.902   4.494  0.00  0.00    +0.000 HD
ATOM     16  H   UNL     1       5.650   6.569   5.376  0.00  0.00    +0.000 HD
BRANCH  14  17
ATOM     17  C   UNL     1       6.099   8.665   5.188  0.00  0.00    +0.000 C 
ATOM     18  H   UNL     1       6.637   8.725   6.139  0.00  0.00    +0.000 HD
ATOM     19  H   UNL     1       6.564   9.361   4.482  0.00  0.00    +0.000 HD
BRANCH  17  20
ATOM     20  O   UNL     1       4.757   9.081   5.401  0.00  0.00    +0.000 OA
ATOM     21  H   UNL     1       4.735   9.592   6.227  0.00  0.00    +0.000 HD
ENDBRANCH  17  20
ENDBRANCH  14  17
ENDBRANCH   1  14
TORSDOF 6
ENDMDL
MODEL 9
REMARK VINA RESULT:    -3.333     28.186     28.794
REMARK INTER + INTRA:          -4.497
REMARK INTER:                  -4.272
REMARK INTRA:                  -0.224
REMARK UNBOUND:                -0.189
REMARK  Name = 8103
REMARK  6 active torsions:
REMARK  status: ('A' for Active; 'I' for Inactive)
REMARK    1  A    between atoms: O_1  and  C_6
REMARK    2  A    between atoms: C_2  and  C_3
REMARK    3  A    between atoms: C_2  and  C_4
REMARK    4  A    between atoms: C_3  and  C_5
REMARK    5  A    between atoms: C_4  and  C_6
REMARK    6  A    between atoms: C_5  and  C_7
REMARK                            x       y       z     vdW  Elec       q    Type
REMARK                         _______ _______ _______ _____ _____    ______ ____
ROOT
ATOM      1  C   UNL     1       4.086   9.181   0.508  0.00  0.00    +0.000 C 
ATOM      2  H   UNL     1       4.087   9.281  -0.584  0.00  0.00    +0.000 HD
ATOM      3  H   UNL     1       3.350   8.406   0.754  0.00  0.00    +0.000 HD
ENDROOT
BRANCH   1   4
ATOM      4  C   UNL     1       3.640  10.508   1.128  0.00  0.00    +0.000 C 
ATOM      5  H   UNL     1       2.624  10.397   1.524  0.00  0.00    +0.000 HD
ATOM      6  H   UNL     1       4.290  10.737   1.982  0.00  0.00    +0.000 HD
BRANCH   4   7
ATOM      7  C   UNL     1       3.670  11.679   0.144  0.00  0.00    +0.000 C 
ATOM      8  H   UNL     1       2.892  12.406   0.408  0.00  0.00    +0.000 HD
ATOM      9  H   UNL     1       4.634  12.195   0.210  0.00  0.00    +0.000 HD
BRANCH   7  10
ATOM     10  C   UNL     1       3.446  11.207  -1.285  0.00  0.00    +0.000 C 
ATOM     11  H   UNL     1       2.782  11.898  -1.812  0.00  0.00    +0.000 HD
ATOM     12  H   UNL     1       4.392  11.160  -1.834  0.00  0.00    +0.000 HD
ATOM     13  H   UNL     1       2.987  10.213  -1.303  0.00  0.00    +0.000 HD
ENDBRANCH   7  10
ENDBRANCH   4   7
ENDBRANCH   1   4
BRANCH   1  14
ATOM     14  C   UNL     1       5.467   8.726   0.975  0.00  0.00    +0.000 C 
ATOM     15  H   UNL     1       5.390   7.762   1.492  0.00  0.00    +0.000 HD
ATOM     16  H   UNL     1       5.870   9.431   1.713  0.00  0.00    +0.000 HD
BRANCH  14  17
ATOM     17  C   UNL     1       6.439   8.606  -0.190  0.00  0.00    +0.000 C 
ATOM     18  H   UNL     1       7.360   8.092   0.104  0.00  0.00    +0.000 HD
ATOM     19  H   UNL     1       5.988   8.059  -1.025  0.00  0.00    +0.000 HD
BRANCH  17  20
ATOM     20  O   UNL     1       6.775   9.910  -0.645  0.00  0.00    +0.000 OA
ATOM     21  H   UNL     1       5.990  10.280  -1.082  0.00  0.00    +0.000 HD
ENDBRANCH  17  20
ENDBRANCH  14  17
ENDBRANCH   1  14
TORSDOF 6
ENDMDL
MODEL 10
REMARK VINA RESULT:    -3.270     27.678     28.325
REMARK INTER + INTRA:          -4.415
REMARK INTER:                  -4.226
REMARK INTRA:                  -0.189
REMARK UNBOUND:                -0.189
REMARK  Name = 8103
REMARK  6 active torsions:
REMARK  status: ('A' for Active; 'I' for Inactive)
REMARK    1  A    between atoms: O_1  and  C_6
REMARK    2  A    between atoms: C_2  and  C_3
REMARK    3  A    between atoms: C_2  and  C_4
REMARK    4  A    between atoms: C_3  and  C_5
REMARK    5  A    between atoms: C_4  and  C_6
REMARK    6  A    between atoms: C_5  and  C_7
REMARK                            x       y       z     vdW  Elec       q    Type
REMARK                         _______ _______ _______ _____ _____    ______ ____
ROOT
ATOM      1  C   UNL     1       6.263   8.869   1.474  0.00  0.00    +0.000 C 
ATOM      2  H   UNL     1       6.851   8.435   0.655  0.00  0.00    +0.000 HD
ATOM      3  H   UNL     1       6.490   9.942   1.490  0.00  0.00    +0.000 HD
ENDROOT
BRANCH   1   4
ATOM      4  C   UNL     1       6.715   8.242   2.796  0.00  0.00    +0.000 C 
ATOM      5  H   UNL     1       7.761   7.926   2.706  0.00  0.00    +0.000 HD
ATOM      6  H   UNL     1       6.682   9.008   3.581  0.00  0.00    +0.000 HD
BRANCH   4   7
ATOM      7  C   UNL     1       5.864   7.045   3.223  0.00  0.00    +0.000 C 
ATOM      8  H   UNL     1       4.940   7.017   2.633  0.00  0.00    +0.000 HD
ATOM      9  H   UNL     1       6.406   6.114   3.023  0.00  0.00    +0.000 HD
BRANCH   7  10
ATOM     10  C   UNL     1       5.509   7.116   4.700  0.00  0.00    +0.000 C 
ATOM     11  H   UNL     1       4.835   7.956   4.888  0.00  0.00    +0.000 HD
ATOM     12  H   UNL     1       5.009   6.199   5.028  0.00  0.00    +0.000 HD
ATOM     13  H   UNL     1       6.406   7.256   5.313  0.00  0.00    +0.000 HD
ENDBRANCH   7  10
ENDBRANCH   4   7
ENDBRANCH   1   4
BRANCH   1  14
ATOM     14  C   UNL     1       4.776   8.675   1.186  0.00  0.00    +0.000 C 
ATOM     15  H   UNL     1       4.382   7.845   1.786  0.00  0.00    +0.000 HD
ATOM     16  H   UNL     1       4.627   8.384   0.138  0.00  0.00    +0.000 HD
BRANCH  14  17
ATOM     17  C   UNL     1       3.981   9.940   1.476  0.00  0.00    +0.000 C 
ATOM     18  H   UNL     1       4.636  10.805   1.617  0.00  0.00    +0.000 HD
ATOM     19  H   UNL     1       3.284  10.162   0.662  0.00  0.00    +0.000 HD
BRANCH  17  20
ATOM     20  O   UNL     1       3.226   9.746   2.664  0.00  0.00    +0.000 OA
ATOM     21  H   UNL     1       2.662   8.966   2.530  0.00  0.00    +0.000 HD
ENDBRANCH  17  20
ENDBRANCH  14  17
ENDBRANCH   1  14
TORSDOF 6
ENDMDL
