MODEL 1
REMARK VINA RESULT:    -4.602      0.000      0.000
REMARK INTER + INTRA:          -7.060
REMARK INTER:                  -6.401
REMARK INTRA:                  -0.658
REMARK UNBOUND:                -0.305
REMARK  Name = 8914
REMARK  9 active torsions:
REMARK  status: ('A' for Active; 'I' for Inactive)
REMARK    1  A    between atoms: O_1  and  C_9
REMARK    2  A    between atoms: C_2  and  C_3
REMARK    3  A    between atoms: C_2  and  C_4
REMARK    4  A    between atoms: C_3  and  C_5
REMARK    5  A    between atoms: C_4  and  C_6
REMARK    6  A    between atoms: C_5  and  C_7
REMARK    7  A    between atoms: C_6  and  C_8
REMARK    8  A    between atoms: C_7  and  C_9
REMARK    9  A    between atoms: C_8  and  C_10
REMARK                            x       y       z     vdW  Elec       q    Type
REMARK                         _______ _______ _______ _____ _____    ______ ____
ROOT
ATOM      1  C   UNL     1      -4.139   6.796 -10.677  0.00  0.00    +0.000 C 
ATOM      2  H   UNL     1      -4.712   5.867 -10.562  0.00  0.00    +0.000 HD
ATOM      3  H   UNL     1      -4.850   7.623 -10.556  0.00  0.00    +0.000 HD
ENDROOT
BRANCH   1   4
ATOM      4  C   UNL     1      -3.534   6.849 -12.081  0.00  0.00    +0.000 C 
ATOM      5  H   UNL     1      -3.900   7.742 -12.603  0.00  0.00    +0.000 HD
ATOM      6  H   UNL     1      -3.870   5.978 -12.656  0.00  0.00    +0.000 HD
BRANCH   4   7
ATOM      7  C   UNL     1      -2.005   6.872 -12.027  0.00  0.00    +0.000 C 
ATOM      8  H   UNL     1      -1.677   7.198 -11.032  0.00  0.00    +0.000 HD
ATOM      9  H   UNL     1      -1.615   5.858 -12.180  0.00  0.00    +0.000 HD
BRANCH   7  10
ATOM     10  C   UNL     1      -1.425   7.807 -13.091  0.00  0.00    +0.000 C 
ATOM     11  H   UNL     1      -1.078   7.228 -13.956  0.00  0.00    +0.000 HD
ATOM     12  H   UNL     1      -2.211   8.472 -13.472  0.00  0.00    +0.000 HD
BRANCH  10  13
ATOM     13  C   UNL     1      -0.273   8.647 -12.554  0.00  0.00    +0.000 C 
ATOM     14  H   UNL     1      -0.638   9.543 -12.042  0.00  0.00    +0.000 HD
ATOM     15  H   UNL     1       0.331   8.070 -11.845  0.00  0.00    +0.000 HD
BRANCH  13  16
ATOM     16  O   UNL     1       0.571   9.052 -13.622  0.00  0.00    +0.000 OA
ATOM     17  H   UNL     1       0.091   8.891 -14.452  0.00  0.00    +0.000 HD
ENDBRANCH  13  16
ENDBRANCH  10  13
ENDBRANCH   7  10
ENDBRANCH   4   7
ENDBRANCH   1   4
BRANCH   1  18
ATOM     18  C   UNL     1      -3.094   6.875  -9.558  0.00  0.00    +0.000 C 
ATOM     19  H   UNL     1      -3.199   5.992  -8.916  0.00  0.00    +0.000 HD
ATOM     20  H   UNL     1      -2.097   6.810 -10.011  0.00  0.00    +0.000 HD
BRANCH  18  21
ATOM     21  C   UNL     1      -3.149   8.128  -8.679  0.00  0.00    +0.000 C 
ATOM     22  H   UNL     1      -2.884   7.855  -7.650  0.00  0.00    +0.000 HD
ATOM     23  H   UNL     1      -4.184   8.493  -8.653  0.00  0.00    +0.000 HD
BRANCH  21  24
ATOM     24  C   UNL     1      -2.231   9.251  -9.161  0.00  0.00    +0.000 C 
ATOM     25  H   UNL     1      -1.966   9.900  -8.319  0.00  0.00    +0.000 HD
ATOM     26  H   UNL     1      -1.299   8.827  -9.551  0.00  0.00    +0.000 HD
BRANCH  24  27
ATOM     27  C   UNL     1      -2.894  10.080 -10.251  0.00  0.00    +0.000 C 
ATOM     28  H   UNL     1      -2.193  10.824 -10.641  0.00  0.00    +0.000 HD
ATOM     29  H   UNL     1      -3.216   9.448 -11.085  0.00  0.00    +0.000 HD
ATOM     30  H   UNL     1      -3.770  10.610  -9.863  0.00  0.00    +0.000 HD
ENDBRANCH  24  27
ENDBRANCH  21  24
ENDBRANCH  18  21
ENDBRANCH   1  18
TORSDOF 9
ENDMDL
MODEL 2
REMARK VINA RESULT:    -4.592      1.155      2.868
REMARK INTER + INTRA:          -7.045
REMARK INTER:                  -6.395
REMARK INTRA:                  -0.650
REMARK UNBOUND:                -0.305
REMARK  Name = 8914
REMARK  9 active torsions:
REMARK  status: ('A' for Active; 'I' for Inactive)
REMARK    1  A    between atoms: O_1  and  C_9
REMARK    2  A    between atoms: C_2  and  C_3
REMARK    3  A    between atoms: C_2  and  C_4
REMARK    4  A    between atoms: C_3  and  C_5
REMARK    5  A    between atoms: C_4  and  C_6
REMARK    6  A    between atoms: C_5  and  C_7
REMARK    7  A    between atoms: C_6  and  C_8
REMARK    8  A    between atoms: C_7  and  C_9
REMARK    9  A    between atoms: C_8  and  C_10
REMARK                            x       y       z     vdW  Elec       q    Type
REMARK                         _______ _______ _______ _____ _____    ______ ____
ROOT
ATOM      1  C   UNL     1      -2.663   8.886  -8.702  0.00  0.00    +0.000 C 
ATOM      2  H   UNL     1      -3.092   9.392  -7.828  0.00  0.00    +0.000 HD
ATOM      3  H   UNL     1      -1.614   8.674  -8.460  0.00  0.00    +0.000 HD
ENDROOT
BRANCH   1   4
ATOM      4  C   UNL     1      -2.724   9.821  -9.911  0.00  0.00    +0.000 C 
ATOM      5  H   UNL     1      -3.100  10.803  -9.597  0.00  0.00    +0.000 HD
ATOM      6  H   UNL     1      -3.434   9.422 -10.645  0.00  0.00    +0.000 HD
BRANCH   4   7
ATOM      7  C   UNL     1      -1.347   9.979 -10.561  0.00  0.00    +0.000 C 
ATOM      8  H   UNL     1      -0.954  10.981 -10.350  0.00  0.00    +0.000 HD
ATOM      9  H   UNL     1      -0.647   9.258 -10.122  0.00  0.00    +0.000 HD
BRANCH   7  10
ATOM     10  C   UNL     1      -1.419   9.763 -12.075  0.00  0.00    +0.000 C 
ATOM     11  H   UNL     1      -2.324   9.200 -12.335  0.00  0.00    +0.000 HD
ATOM     12  H   UNL     1      -1.512  10.731 -12.586  0.00  0.00    +0.000 HD
BRANCH  10  13
ATOM     13  C   UNL     1      -0.198   9.028 -12.611  0.00  0.00    +0.000 C 
ATOM     14  H   UNL     1      -0.236   8.932 -13.701  0.00  0.00    +0.000 HD
ATOM     15  H   UNL     1       0.723   9.559 -12.346  0.00  0.00    +0.000 HD
BRANCH  13  16
ATOM     16  O   UNL     1      -0.131   7.725 -12.048  0.00  0.00    +0.000 OA
ATOM     17  H   UNL     1      -0.931   7.246 -12.323  0.00  0.00    +0.000 HD
ENDBRANCH  13  16
ENDBRANCH  10  13
ENDBRANCH   7  10
ENDBRANCH   4   7
ENDBRANCH   1   4
BRANCH   1  18
ATOM     18  C   UNL     1      -3.399   7.559  -8.917  0.00  0.00    +0.000 C 
ATOM     19  H   UNL     1      -3.204   6.906  -8.057  0.00  0.00    +0.000 HD
ATOM     20  H   UNL     1      -4.478   7.758  -8.915  0.00  0.00    +0.000 HD
BRANCH  18  21
ATOM     21  C   UNL     1      -3.046   6.799 -10.199  0.00  0.00    +0.000 C 
ATOM     22  H   UNL     1      -2.789   5.763  -9.942  0.00  0.00    +0.000 HD
ATOM     23  H   UNL     1      -2.145   7.248 -10.637  0.00  0.00    +0.000 HD
BRANCH  21  24
ATOM     24  C   UNL     1      -4.167   6.803 -11.237  0.00  0.00    +0.000 C 
ATOM     25  H   UNL     1      -4.774   5.895 -11.132  0.00  0.00    +0.000 HD
ATOM     26  H   UNL     1      -4.830   7.659 -11.065  0.00  0.00    +0.000 HD
BRANCH  24  27
ATOM     27  C   UNL     1      -3.613   6.881 -12.652  0.00  0.00    +0.000 C 
ATOM     28  H   UNL     1      -2.670   7.436 -12.660  0.00  0.00    +0.000 HD
ATOM     29  H   UNL     1      -3.422   5.881 -13.054  0.00  0.00    +0.000 HD
ATOM     30  H   UNL     1      -4.314   7.392 -13.320  0.00  0.00    +0.000 HD
ENDBRANCH  24  27
ENDBRANCH  21  24
ENDBRANCH  18  21
ENDBRANCH   1  18
TORSDOF 9
ENDMDL
MODEL 3
REMARK VINA RESULT:    -4.458     13.051     14.509
REMARK INTER + INTRA:          -6.847
REMARK INTER:                  -6.182
REMARK INTRA:                  -0.665
REMARK UNBOUND:                -0.305
REMARK  Name = 8914
REMARK  9 active torsions:
REMARK  status: ('A' for Active; 'I' for Inactive)
REMARK    1  A    between atoms: O_1  and  C_9
REMARK    2  A    between atoms: C_2  and  C_3
REMARK    3  A    between atoms: C_2  and  C_4
REMARK    4  A    between atoms: C_3  and  C_5
REMARK    5  A    between atoms: C_4  and  C_6
REMARK    6  A    between atoms: C_5  and  C_7
REMARK    7  A    between atoms: C_6  and  C_8
REMARK    8  A    between atoms: C_7  and  C_9
REMARK    9  A    between atoms: C_8  and  C_10
REMARK                            x       y       z     vdW  Elec       q    Type
REMARK                         _______ _______ _______ _____ _____    ______ ____
ROOT
ATOM      1  C   UNL     1       5.377   8.146   2.467  0.00  0.00    +0.000 C 
ATOM      2  H   UNL     1       5.696   8.367   3.494  0.00  0.00    +0.000 HD
ATOM      3  H   UNL     1       4.777   7.228   2.514  0.00  0.00    +0.000 HD
ENDROOT
BRANCH   1   4
ATOM      4  C   UNL     1       6.609   7.902   1.594  0.00  0.00    +0.000 C 
ATOM      5  H   UNL     1       6.291   7.598   0.589  0.00  0.00    +0.000 HD
ATOM      6  H   UNL     1       7.194   7.074   2.012  0.00  0.00    +0.000 HD
BRANCH   4   7
ATOM      7  C   UNL     1       7.483   9.155   1.504  0.00  0.00    +0.000 C 
ATOM      8  H   UNL     1       6.905  10.030   1.825  0.00  0.00    +0.000 HD
ATOM      9  H   UNL     1       8.335   9.061   2.187  0.00  0.00    +0.000 HD
BRANCH   7  10
ATOM     10  C   UNL     1       7.996   9.373   0.077  0.00  0.00    +0.000 C 
ATOM     11  H   UNL     1       7.803  10.406  -0.240  0.00  0.00    +0.000 HD
ATOM     12  H   UNL     1       9.086   9.251   0.050  0.00  0.00    +0.000 HD
BRANCH  10  13
ATOM     13  C   UNL     1       7.357   8.413  -0.918  0.00  0.00    +0.000 C 
ATOM     14  H   UNL     1       6.714   7.685  -0.413  0.00  0.00    +0.000 HD
ATOM     15  H   UNL     1       6.750   8.958  -1.648  0.00  0.00    +0.000 HD
BRANCH  13  16
ATOM     16  O   UNL     1       8.367   7.707  -1.626  0.00  0.00    +0.000 OA
ATOM     17  H   UNL     1       7.922   7.099  -2.240  0.00  0.00    +0.000 HD
ENDBRANCH  13  16
ENDBRANCH  10  13
ENDBRANCH   7  10
ENDBRANCH   4   7
ENDBRANCH   1   4
BRANCH   1  18
ATOM     18  C   UNL     1       4.489   9.290   1.967  0.00  0.00    +0.000 C 
ATOM     19  H   UNL     1       3.703   9.476   2.709  0.00  0.00    +0.000 HD
ATOM     20  H   UNL     1       5.095  10.205   1.924  0.00  0.00    +0.000 HD
BRANCH  18  21
ATOM     21  C   UNL     1       3.831   9.078   0.600  0.00  0.00    +0.000 C 
ATOM     22  H   UNL     1       2.757   8.903   0.744  0.00  0.00    +0.000 HD
ATOM     23  H   UNL     1       4.242   8.165   0.151  0.00  0.00    +0.000 HD
BRANCH  21  24
ATOM     24  C   UNL     1       4.033  10.248  -0.361  0.00  0.00    +0.000 C 
ATOM     25  H   UNL     1       5.079  10.282  -0.689  0.00  0.00    +0.000 HD
ATOM     26  H   UNL     1       3.416  10.105  -1.256  0.00  0.00    +0.000 HD
BRANCH  24  27
ATOM     27  C   UNL     1       3.663  11.572   0.291  0.00  0.00    +0.000 C 
ATOM     28  H   UNL     1       2.939  12.110  -0.328  0.00  0.00    +0.000 HD
ATOM     29  H   UNL     1       3.216  11.413   1.277  0.00  0.00    +0.000 HD
ATOM     30  H   UNL     1       4.545  12.210   0.412  0.00  0.00    +0.000 HD
ENDBRANCH  24  27
ENDBRANCH  21  24
ENDBRANCH  18  21
ENDBRANCH   1  18
TORSDOF 9
ENDMDL
MODEL 4
REMARK VINA RESULT:    -4.374     13.625     15.222
REMARK INTER + INTRA:          -6.725
REMARK INTER:                  -6.306
REMARK INTRA:                  -0.419
REMARK UNBOUND:                -0.305
REMARK  Name = 8914
REMARK  9 active torsions:
REMARK  status: ('A' for Active; 'I' for Inactive)
REMARK    1  A    between atoms: O_1  and  C_9
REMARK    2  A    between atoms: C_2  and  C_3
REMARK    3  A    between atoms: C_2  and  C_4
REMARK    4  A    between atoms: C_3  and  C_5
REMARK    5  A    between atoms: C_4  and  C_6
REMARK    6  A    between atoms: C_5  and  C_7
REMARK    7  A    between atoms: C_6  and  C_8
REMARK    8  A    between atoms: C_7  and  C_9
REMARK    9  A    between atoms: C_8  and  C_10
REMARK                            x       y       z     vdW  Elec       q    Type
REMARK                         _______ _______ _______ _____ _____    ______ ____
ROOT
ATOM      1  C   UNL     1       5.818   8.864   1.116  0.00  0.00    +0.000 C 
ATOM      2  H   UNL     1       6.090   9.926   1.068  0.00  0.00    +0.000 HD
ATOM      3  H   UNL     1       6.095   8.423   0.150  0.00  0.00    +0.000 HD
ENDROOT
BRANCH   1   4
ATOM      4  C   UNL     1       4.306   8.736   1.315  0.00  0.00    +0.000 C 
ATOM      5  H   UNL     1       4.103   8.090   2.178  0.00  0.00    +0.000 HD
ATOM      6  H   UNL     1       3.863   8.250   0.437  0.00  0.00    +0.000 HD
BRANCH   4   7
ATOM      7  C   UNL     1       3.656  10.105   1.528  0.00  0.00    +0.000 C 
ATOM      8  H   UNL     1       2.579  10.035   1.332  0.00  0.00    +0.000 HD
ATOM      9  H   UNL     1       3.776  10.412   2.574  0.00  0.00    +0.000 HD
BRANCH   7  10
ATOM     10  C   UNL     1       4.277  11.163   0.612  0.00  0.00    +0.000 C 
ATOM     11  H   UNL     1       4.693  11.984   1.210  0.00  0.00    +0.000 HD
ATOM     12  H   UNL     1       5.125  10.732   0.064  0.00  0.00    +0.000 HD
BRANCH  10  13
ATOM     13  C   UNL     1       3.270  11.727  -0.383  0.00  0.00    +0.000 C 
ATOM     14  H   UNL     1       2.249  11.419  -0.133  0.00  0.00    +0.000 HD
ATOM     15  H   UNL     1       3.305  12.821  -0.393  0.00  0.00    +0.000 HD
BRANCH  13  16
ATOM     16  O   UNL     1       3.572  11.264  -1.692  0.00  0.00    +0.000 OA
ATOM     17  H   UNL     1       4.468  10.888  -1.670  0.00  0.00    +0.000 HD
ENDBRANCH  13  16
ENDBRANCH  10  13
ENDBRANCH   7  10
ENDBRANCH   4   7
ENDBRANCH   1   4
BRANCH   1  18
ATOM     18  C   UNL     1       6.639   8.190   2.221  0.00  0.00    +0.000 C 
ATOM     19  H   UNL     1       7.565   7.799   1.781  0.00  0.00    +0.000 HD
ATOM     20  H   UNL     1       6.942   8.958   2.944  0.00  0.00    +0.000 HD
BRANCH  18  21
ATOM     21  C   UNL     1       5.940   7.057   2.978  0.00  0.00    +0.000 C 
ATOM     22  H   UNL     1       6.333   6.095   2.624  0.00  0.00    +0.000 HD
ATOM     23  H   UNL     1       4.872   7.074   2.725  0.00  0.00    +0.000 HD
BRANCH  21  24
ATOM     24  C   UNL     1       6.102   7.148   4.494  0.00  0.00    +0.000 C 
ATOM     25  H   UNL     1       5.121   7.291   4.964  0.00  0.00    +0.000 HD
ATOM     26  H   UNL     1       6.513   6.209   4.881  0.00  0.00    +0.000 HD
BRANCH  24  27
ATOM     27  C   UNL     1       7.023   8.293   4.887  0.00  0.00    +0.000 C 
ATOM     28  H   UNL     1       6.667   9.232   4.452  0.00  0.00    +0.000 HD
ATOM     29  H   UNL     1       7.058   8.414   5.974  0.00  0.00    +0.000 HD
ATOM     30  H   UNL     1       8.042   8.118   4.527  0.00  0.00    +0.000 HD
ENDBRANCH  24  27
ENDBRANCH  21  24
ENDBRANCH  18  21
ENDBRANCH   1  18
TORSDOF 9
ENDMDL
MODEL 5
REMARK VINA RESULT:    -4.359     13.941     15.565
REMARK INTER + INTRA:          -6.702
REMARK INTER:                  -6.187
REMARK INTRA:                  -0.515
REMARK UNBOUND:                -0.305
REMARK  Name = 8914
REMARK  9 active torsions:
REMARK  status: ('A' for Active; 'I' for Inactive)
REMARK    1  A    between atoms: O_1  and  C_9
REMARK    2  A    between atoms: C_2  and  C_3
REMARK    3  A    between atoms: C_2  and  C_4
REMARK    4  A    between atoms: C_3  and  C_5
REMARK    5  A    between atoms: C_4  and  C_6
REMARK    6  A    between atoms: C_5  and  C_7
REMARK    7  A    between atoms: C_6  and  C_8
REMARK    8  A    between atoms: C_7  and  C_9
REMARK    9  A    between atoms: C_8  and  C_10
REMARK                            x       y       z     vdW  Elec       q    Type
REMARK                         _______ _______ _______ _____ _____    ______ ____
ROOT
ATOM      1  C   UNL     1       7.188   8.921   0.823  0.00  0.00    +0.000 C 
ATOM      2  H   UNL     1       7.821   8.199   0.291  0.00  0.00    +0.000 HD
ATOM      3  H   UNL     1       6.183   8.484   0.873  0.00  0.00    +0.000 HD
ENDROOT
BRANCH   1   4
ATOM      4  C   UNL     1       7.132  10.228   0.031  0.00  0.00    +0.000 C 
ATOM      5  H   UNL     1       7.395  10.034  -1.016  0.00  0.00    +0.000 HD
ATOM      6  H   UNL     1       7.878  10.928   0.427  0.00  0.00    +0.000 HD
BRANCH   4   7
ATOM      7  C   UNL     1       5.742  10.863   0.105  0.00  0.00    +0.000 C 
ATOM      8  H   UNL     1       5.717  11.601   0.916  0.00  0.00    +0.000 HD
ATOM      9  H   UNL     1       5.530  11.400  -0.828  0.00  0.00    +0.000 HD
BRANCH   7  10
ATOM     10  C   UNL     1       4.659   9.806   0.340  0.00  0.00    +0.000 C 
ATOM     11  H   UNL     1       4.162   9.555  -0.605  0.00  0.00    +0.000 HD
ATOM     12  H   UNL     1       5.119   8.873   0.693  0.00  0.00    +0.000 HD
BRANCH  10  13
ATOM     13  C   UNL     1       3.615  10.265   1.350  0.00  0.00    +0.000 C 
ATOM     14  H   UNL     1       2.705   9.660   1.285  0.00  0.00    +0.000 HD
ATOM     15  H   UNL     1       4.003  10.190   2.371  0.00  0.00    +0.000 HD
BRANCH  13  16
ATOM     16  O   UNL     1       3.272  11.622   1.109  0.00  0.00    +0.000 OA
ATOM     17  H   UNL     1       2.391  11.633   0.698  0.00  0.00    +0.000 HD
ENDBRANCH  13  16
ENDBRANCH  10  13
ENDBRANCH   7  10
ENDBRANCH   4   7
ENDBRANCH   1   4
BRANCH   1  18
ATOM     18  C   UNL     1       7.723   9.093   2.249  0.00  0.00    +0.000 C 
ATOM     19  H   UNL     1       8.761   8.740   2.280  0.00  0.00    +0.000 HD
ATOM     20  H   UNL     1       7.755  10.165   2.480  0.00  0.00    +0.000 HD
BRANCH  18  21
ATOM     21  C   UNL     1       6.931   8.381   3.350  0.00  0.00    +0.000 C 
ATOM     22  H   UNL     1       6.256   9.102   3.828  0.00  0.00    +0.000 HD
ATOM     23  H   UNL     1       7.633   8.045   4.125  0.00  0.00    +0.000 HD
BRANCH  21  24
ATOM     24  C   UNL     1       6.126   7.185   2.846  0.00  0.00    +0.000 C 
ATOM     25  H   UNL     1       5.649   7.436   1.890  0.00  0.00    +0.000 HD
ATOM     26  H   UNL     1       6.795   6.337   2.663  0.00  0.00    +0.000 HD
BRANCH  24  27
ATOM     27  C   UNL     1       5.061   6.770   3.850  0.00  0.00    +0.000 C 
ATOM     28  H   UNL     1       5.348   5.837   4.343  0.00  0.00    +0.000 HD
ATOM     29  H   UNL     1       4.929   7.535   4.621  0.00  0.00    +0.000 HD
ATOM     30  H   UNL     1       4.097   6.610   3.355  0.00  0.00    +0.000 HD
ENDBRANCH  24  27
ENDBRANCH  21  24
ENDBRANCH  18  21
ENDBRANCH   1  18
TORSDOF 9
ENDMDL
MODEL 6
REMARK VINA RESULT:    -4.350     26.089     27.811
REMARK INTER + INTRA:          -6.690
REMARK INTER:                  -6.317
REMARK INTRA:                  -0.373
REMARK UNBOUND:                -0.305
REMARK  Name = 8914
REMARK  9 active torsions:
REMARK  status: ('A' for Active; 'I' for Inactive)
REMARK    1  A    between atoms: O_1  and  C_9
REMARK    2  A    between atoms: C_2  and  C_3
REMARK    3  A    between atoms: C_2  and  C_4
REMARK    4  A    between atoms: C_3  and  C_5
REMARK    5  A    between atoms: C_4  and  C_6
REMARK    6  A    between atoms: C_5  and  C_7
REMARK    7  A    between atoms: C_6  and  C_8
REMARK    8  A    between atoms: C_7  and  C_9
REMARK    9  A    between atoms: C_8  and  C_10
REMARK                            x       y       z     vdW  Elec       q    Type
REMARK                         _______ _______ _______ _____ _____    ______ ____
ROOT
ATOM      1  C   UNL     1     -21.511  -1.898   5.127  0.00  0.00    +0.000 C 
ATOM      2  H   UNL     1     -22.309  -1.429   4.535  0.00  0.00    +0.000 HD
ATOM      3  H   UNL     1     -22.002  -2.435   5.948  0.00  0.00    +0.000 HD
ENDROOT
BRANCH   1   4
ATOM      4  C   UNL     1     -20.603  -0.811   5.704  0.00  0.00    +0.000 C 
ATOM      5  H   UNL     1     -21.001   0.177   5.444  0.00  0.00    +0.000 HD
ATOM      6  H   UNL     1     -19.607  -0.888   5.251  0.00  0.00    +0.000 HD
BRANCH   4   7
ATOM      7  C   UNL     1     -20.485  -0.936   7.225  0.00  0.00    +0.000 C 
ATOM      8  H   UNL     1     -19.466  -1.243   7.491  0.00  0.00    +0.000 HD
ATOM      9  H   UNL     1     -20.661   0.041   7.691  0.00  0.00    +0.000 HD
BRANCH   7  10
ATOM     10  C   UNL     1     -21.488  -1.953   7.778  0.00  0.00    +0.000 C 
ATOM     11  H   UNL     1     -22.108  -2.353   6.967  0.00  0.00    +0.000 HD
ATOM     12  H   UNL     1     -20.953  -2.814   8.198  0.00  0.00    +0.000 HD
BRANCH  10  13
ATOM     13  C   UNL     1     -22.388  -1.350   8.849  0.00  0.00    +0.000 C 
ATOM     14  H   UNL     1     -23.446  -1.455   8.585  0.00  0.00    +0.000 HD
ATOM     15  H   UNL     1     -22.226  -1.839   9.814  0.00  0.00    +0.000 HD
BRANCH  13  16
ATOM     16  O   UNL     1     -22.099   0.033   9.003  0.00  0.00    +0.000 OA
ATOM     17  H   UNL     1     -21.235   0.104   9.441  0.00  0.00    +0.000 HD
ENDBRANCH  13  16
ENDBRANCH  10  13
ENDBRANCH   7  10
ENDBRANCH   4   7
ENDBRANCH   1   4
BRANCH   1  18
ATOM     18  C   UNL     1     -20.771  -2.910   4.247  0.00  0.00    +0.000 C 
ATOM     19  H   UNL     1     -21.440  -3.229   3.438  0.00  0.00    +0.000 HD
ATOM     20  H   UNL     1     -19.927  -2.399   3.766  0.00  0.00    +0.000 HD
BRANCH  18  21
ATOM     21  C   UNL     1     -20.240  -4.156   4.962  0.00  0.00    +0.000 C 
ATOM     22  H   UNL     1     -20.995  -4.506   5.678  0.00  0.00    +0.000 HD
ATOM     23  H   UNL     1     -19.356  -3.874   5.549  0.00  0.00    +0.000 HD
BRANCH  21  24
ATOM     24  C   UNL     1     -19.873  -5.294   4.011  0.00  0.00    +0.000 C 
ATOM     25  H   UNL     1     -19.762  -6.228   4.576  0.00  0.00    +0.000 HD
ATOM     26  H   UNL     1     -20.680  -5.447   3.286  0.00  0.00    +0.000 HD
BRANCH  24  27
ATOM     27  C   UNL     1     -18.582  -4.998   3.264  0.00  0.00    +0.000 C 
ATOM     28  H   UNL     1     -18.246  -5.887   2.720  0.00  0.00    +0.000 HD
ATOM     29  H   UNL     1     -18.725  -4.191   2.539  0.00  0.00    +0.000 HD
ATOM     30  H   UNL     1     -17.787  -4.703   3.956  0.00  0.00    +0.000 HD
ENDBRANCH  24  27
ENDBRANCH  21  24
ENDBRANCH  18  21
ENDBRANCH   1  18
TORSDOF 9
ENDMDL
MODEL 7
REMARK VINA RESULT:    -4.328      5.389      7.014
REMARK INTER + INTRA:          -6.657
REMARK INTER:                  -6.366
REMARK INTRA:                  -0.292
REMARK UNBOUND:                -0.305
REMARK  Name = 8914
REMARK  9 active torsions:
REMARK  status: ('A' for Active; 'I' for Inactive)
REMARK    1  A    between atoms: O_1  and  C_9
REMARK    2  A    between atoms: C_2  and  C_3
REMARK    3  A    between atoms: C_2  and  C_4
REMARK    4  A    between atoms: C_3  and  C_5
REMARK    5  A    between atoms: C_4  and  C_6
REMARK    6  A    between atoms: C_5  and  C_7
REMARK    7  A    between atoms: C_6  and  C_8
REMARK    8  A    between atoms: C_7  and  C_9
REMARK    9  A    between atoms: C_8  and  C_10
REMARK                            x       y       z     vdW  Elec       q    Type
REMARK                         _______ _______ _______ _____ _____    ______ ____
ROOT
ATOM      1  C   UNL     1      -5.921   5.862  -8.587  0.00  0.00    +0.000 C 
ATOM      2  H   UNL     1      -4.993   5.505  -8.122  0.00  0.00    +0.000 HD
ATOM      3  H   UNL     1      -6.223   6.763  -8.037  0.00  0.00    +0.000 HD
ENDROOT
BRANCH   1   4
ATOM      4  C   UNL     1      -7.006   4.794  -8.440  0.00  0.00    +0.000 C 
ATOM      5  H   UNL     1      -6.549   3.798  -8.484  0.00  0.00    +0.000 HD
ATOM      6  H   UNL     1      -7.706   4.866  -9.282  0.00  0.00    +0.000 HD
BRANCH   4   7
ATOM      7  C   UNL     1      -7.770   4.955  -7.124  0.00  0.00    +0.000 C 
ATOM      8  H   UNL     1      -8.766   4.506  -7.219  0.00  0.00    +0.000 HD
ATOM      9  H   UNL     1      -7.246   4.415  -6.325  0.00  0.00    +0.000 HD
BRANCH   7  10
ATOM     10  C   UNL     1      -7.907   6.430  -6.737  0.00  0.00    +0.000 C 
ATOM     11  H   UNL     1      -6.921   6.910  -6.720  0.00  0.00    +0.000 HD
ATOM     12  H   UNL     1      -8.486   6.964  -7.502  0.00  0.00    +0.000 HD
BRANCH  10  13
ATOM     13  C   UNL     1      -8.577   6.611  -5.382  0.00  0.00    +0.000 C 
ATOM     14  H   UNL     1      -9.022   7.607  -5.286  0.00  0.00    +0.000 HD
ATOM     15  H   UNL     1      -9.369   5.868  -5.237  0.00  0.00    +0.000 HD
BRANCH  13  16
ATOM     16  O   UNL     1      -7.623   6.443  -4.343  0.00  0.00    +0.000 OA
ATOM     17  H   UNL     1      -6.918   7.098  -4.484  0.00  0.00    +0.000 HD
ENDBRANCH  13  16
ENDBRANCH  10  13
ENDBRANCH   7  10
ENDBRANCH   4   7
ENDBRANCH   1   4
BRANCH   1  18
ATOM     18  C   UNL     1      -5.632   6.245 -10.042  0.00  0.00    +0.000 C 
ATOM     19  H   UNL     1      -5.802   5.366 -10.677  0.00  0.00    +0.000 HD
ATOM     20  H   UNL     1      -6.368   6.997 -10.354  0.00  0.00    +0.000 HD
BRANCH  18  21
ATOM     21  C   UNL     1      -4.229   6.789 -10.325  0.00  0.00    +0.000 C 
ATOM     22  H   UNL     1      -4.317   7.760 -10.828  0.00  0.00    +0.000 HD
ATOM     23  H   UNL     1      -3.726   6.113 -11.028  0.00  0.00    +0.000 HD
BRANCH  21  24
ATOM     24  C   UNL     1      -3.371   6.941  -9.070  0.00  0.00    +0.000 C 
ATOM     25  H   UNL     1      -3.934   6.603  -8.192  0.00  0.00    +0.000 HD
ATOM     26  H   UNL     1      -2.481   6.307  -9.149  0.00  0.00    +0.000 HD
BRANCH  24  27
ATOM     27  C   UNL     1      -2.936   8.385  -8.867  0.00  0.00    +0.000 C 
ATOM     28  H   UNL     1      -2.240   8.686  -9.656  0.00  0.00    +0.000 HD
ATOM     29  H   UNL     1      -3.795   9.062  -8.896  0.00  0.00    +0.000 HD
ATOM     30  H   UNL     1      -2.432   8.511  -7.903  0.00  0.00    +0.000 HD
ENDBRANCH  24  27
ENDBRANCH  21  24
ENDBRANCH  18  21
ENDBRANCH   1  18
TORSDOF 9
ENDMDL
MODEL 8
REMARK VINA RESULT:    -4.205      1.303      2.680
REMARK INTER + INTRA:          -6.476
REMARK INTER:                  -5.943
REMARK INTRA:                  -0.533
REMARK UNBOUND:                -0.305
REMARK  Name = 8914
REMARK  9 active torsions:
REMARK  status: ('A' for Active; 'I' for Inactive)
REMARK    1  A    between atoms: O_1  and  C_9
REMARK    2  A    between atoms: C_2  and  C_3
REMARK    3  A    between atoms: C_2  and  C_4
REMARK    4  A    between atoms: C_3  and  C_5
REMARK    5  A    between atoms: C_4  and  C_6
REMARK    6  A    between atoms: C_5  and  C_7
REMARK    7  A    between atoms: C_6  and  C_8
REMARK    8  A    between atoms: C_7  and  C_9
REMARK    9  A    between atoms: C_8  and  C_10
REMARK                            x       y       z     vdW  Elec       q    Type
REMARK                         _______ _______ _______ _____ _____    ______ ____
ROOT
ATOM      1  C   UNL     1      -1.745  10.136 -11.400  0.00  0.00    +0.000 C 
ATOM      2  H   UNL     1      -2.068  10.289 -12.438  0.00  0.00    +0.000 HD
ATOM      3  H   UNL     1      -1.463  11.122 -11.010  0.00  0.00    +0.000 HD
ENDROOT
BRANCH   1   4
ATOM      4  C   UNL     1      -0.524   9.215 -11.379  0.00  0.00    +0.000 C 
ATOM      5  H   UNL     1      -0.497   8.665 -10.430  0.00  0.00    +0.000 HD
ATOM      6  H   UNL     1       0.390   9.820 -11.428  0.00  0.00    +0.000 HD
BRANCH   4   7
ATOM      7  C   UNL     1      -0.552   8.229 -12.549  0.00  0.00    +0.000 C 
ATOM      8  H   UNL     1       0.387   7.662 -12.573  0.00  0.00    +0.000 HD
ATOM      9  H   UNL     1      -1.364   7.506 -12.404  0.00  0.00    +0.000 HD
BRANCH   7  10
ATOM     10  C   UNL     1      -0.747   8.955 -13.883  0.00  0.00    +0.000 C 
ATOM     11  H   UNL     1      -1.260   8.300 -14.598  0.00  0.00    +0.000 HD
ATOM     12  H   UNL     1      -1.407   9.821 -13.743  0.00  0.00    +0.000 HD
BRANCH  10  13
ATOM     13  C   UNL     1       0.572   9.420 -14.485  0.00  0.00    +0.000 C 
ATOM     14  H   UNL     1       0.501  10.449 -14.855  0.00  0.00    +0.000 HD
ATOM     15  H   UNL     1       1.374   9.380 -13.741  0.00  0.00    +0.000 HD
BRANCH  13  16
ATOM     16  O   UNL     1       0.935   8.576 -15.568  0.00  0.00    +0.000 OA
ATOM     17  H   UNL     1       0.895   7.658 -15.250  0.00  0.00    +0.000 HD
ENDBRANCH  13  16
ENDBRANCH  10  13
ENDBRANCH   7  10
ENDBRANCH   4   7
ENDBRANCH   1   4
BRANCH   1  18
ATOM     18  C   UNL     1      -2.928   9.603 -10.586  0.00  0.00    +0.000 C 
ATOM     19  H   UNL     1      -3.730  10.352 -10.598  0.00  0.00    +0.000 HD
ATOM     20  H   UNL     1      -3.328   8.717 -11.096  0.00  0.00    +0.000 HD
BRANCH  18  21
ATOM     21  C   UNL     1      -2.626   9.233  -9.131  0.00  0.00    +0.000 C 
ATOM     22  H   UNL     1      -3.083   9.980  -8.469  0.00  0.00    +0.000 HD
ATOM     23  H   UNL     1      -1.542   9.291  -8.972  0.00  0.00    +0.000 HD
BRANCH  21  24
ATOM     24  C   UNL     1      -3.119   7.839  -8.742  0.00  0.00    +0.000 C 
ATOM     25  H   UNL     1      -2.480   7.428  -7.951  0.00  0.00    +0.000 HD
ATOM     26  H   UNL     1      -4.136   7.903  -8.339  0.00  0.00    +0.000 HD
BRANCH  24  27
ATOM     27  C   UNL     1      -3.116   6.897  -9.937  0.00  0.00    +0.000 C 
ATOM     28  H   UNL     1      -2.963   7.459 -10.863  0.00  0.00    +0.000 HD
ATOM     29  H   UNL     1      -2.314   6.157  -9.852  0.00  0.00    +0.000 HD
ATOM     30  H   UNL     1      -4.069   6.363 -10.017  0.00  0.00    +0.000 HD
ENDBRANCH  24  27
ENDBRANCH  21  24
ENDBRANCH  18  21
ENDBRANCH   1  18
TORSDOF 9
ENDMDL
MODEL 9
REMARK VINA RESULT:    -4.140     15.641     17.137
REMARK INTER + INTRA:          -6.381
REMARK INTER:                  -6.041
REMARK INTRA:                  -0.340
REMARK UNBOUND:                -0.305
REMARK  Name = 8914
REMARK  9 active torsions:
REMARK  status: ('A' for Active; 'I' for Inactive)
REMARK    1  A    between atoms: O_1  and  C_9
REMARK    2  A    between atoms: C_2  and  C_3
REMARK    3  A    between atoms: C_2  and  C_4
REMARK    4  A    between atoms: C_3  and  C_5
REMARK    5  A    between atoms: C_4  and  C_6
REMARK    6  A    between atoms: C_5  and  C_7
REMARK    7  A    between atoms: C_6  and  C_8
REMARK    8  A    between atoms: C_7  and  C_9
REMARK    9  A    between atoms: C_8  and  C_10
REMARK                            x       y       z     vdW  Elec       q    Type
REMARK                         _______ _______ _______ _____ _____    ______ ____
ROOT
ATOM      1  C   UNL     1       5.712   7.020   4.299  0.00  0.00    +0.000 C 
ATOM      2  H   UNL     1       5.975   5.961   4.183  0.00  0.00    +0.000 HD
ATOM      3  H   UNL     1       4.733   7.050   4.793  0.00  0.00    +0.000 HD
ENDROOT
BRANCH   1   4
ATOM      4  C   UNL     1       5.601   7.670   2.918  0.00  0.00    +0.000 C 
ATOM      5  H   UNL     1       6.061   7.016   2.167  0.00  0.00    +0.000 HD
ATOM      6  H   UNL     1       6.159   8.613   2.912  0.00  0.00    +0.000 HD
BRANCH   4   7
ATOM      7  C   UNL     1       4.140   7.936   2.546  0.00  0.00    +0.000 C 
ATOM      8  H   UNL     1       3.944   7.557   1.535  0.00  0.00    +0.000 HD
ATOM      9  H   UNL     1       3.479   7.390   3.230  0.00  0.00    +0.000 HD
BRANCH   7  10
ATOM     10  C   UNL     1       3.814   9.431   2.606  0.00  0.00    +0.000 C 
ATOM     11  H   UNL     1       2.808   9.583   3.017  0.00  0.00    +0.000 HD
ATOM     12  H   UNL     1       4.500   9.934   3.299  0.00  0.00    +0.000 HD
BRANCH  10  13
ATOM     13  C   UNL     1       3.904  10.095   1.238  0.00  0.00    +0.000 C 
ATOM     14  H   UNL     1       4.946  10.248   0.937  0.00  0.00    +0.000 HD
ATOM     15  H   UNL     1       3.413   9.483   0.475  0.00  0.00    +0.000 HD
BRANCH  13  16
ATOM     16  O   UNL     1       3.256  11.359   1.270  0.00  0.00    +0.000 OA
ATOM     17  H   UNL     1       3.730  11.915   1.912  0.00  0.00    +0.000 HD
ENDBRANCH  13  16
ENDBRANCH  10  13
ENDBRANCH   7  10
ENDBRANCH   4   7
ENDBRANCH   1   4
BRANCH   1  18
ATOM     18  C   UNL     1       6.745   7.692   5.209  0.00  0.00    +0.000 C 
ATOM     19  H   UNL     1       6.230   8.085   6.095  0.00  0.00    +0.000 HD
ATOM     20  H   UNL     1       7.438   6.923   5.572  0.00  0.00    +0.000 HD
BRANCH  18  21
ATOM     21  C   UNL     1       7.560   8.823   4.576  0.00  0.00    +0.000 C 
ATOM     22  H   UNL     1       6.890   9.458   3.982  0.00  0.00    +0.000 HD
ATOM     23  H   UNL     1       8.283   8.385   3.875  0.00  0.00    +0.000 HD
BRANCH  21  24
ATOM     24  C   UNL     1       8.304   9.683   5.597  0.00  0.00    +0.000 C 
ATOM     25  H   UNL     1       9.239   9.188   5.887  0.00  0.00    +0.000 HD
ATOM     26  H   UNL     1       8.573  10.645   5.147  0.00  0.00    +0.000 HD
BRANCH  24  27
ATOM     27  C   UNL     1       7.456   9.932   6.835  0.00  0.00    +0.000 C 
ATOM     28  H   UNL     1       8.098  10.093   7.707  0.00  0.00    +0.000 HD
ATOM     29  H   UNL     1       6.827  10.819   6.708  0.00  0.00    +0.000 HD
ATOM     30  H   UNL     1       6.807   9.076   7.045  0.00  0.00    +0.000 HD
ENDBRANCH  24  27
ENDBRANCH  21  24
ENDBRANCH  18  21
ENDBRANCH   1  18
TORSDOF 9
ENDMDL
MODEL 10
REMARK VINA RESULT:    -4.114     25.512     26.694
REMARK INTER + INTRA:          -6.342
REMARK INTER:                  -6.038
REMARK INTRA:                  -0.305
REMARK UNBOUND:                -0.305
REMARK  Name = 8914
REMARK  9 active torsions:
REMARK  status: ('A' for Active; 'I' for Inactive)
REMARK    1  A    between atoms: O_1  and  C_9
REMARK    2  A    between atoms: C_2  and  C_3
REMARK    3  A    between atoms: C_2  and  C_4
REMARK    4  A    between atoms: C_3  and  C_5
REMARK    5  A    between atoms: C_4  and  C_6
REMARK    6  A    between atoms: C_5  and  C_7
REMARK    7  A    between atoms: C_6  and  C_8
REMARK    8  A    between atoms: C_7  and  C_9
REMARK    9  A    between atoms: C_8  and  C_10
REMARK                            x       y       z     vdW  Elec       q    Type
REMARK                         _______ _______ _______ _____ _____    ______ ____
ROOT
ATOM      1  C   UNL     1     -20.505  -3.720   5.326  0.00  0.00    +0.000 C 
ATOM      2  H   UNL     1     -19.593  -3.604   5.926  0.00  0.00    +0.000 HD
ATOM      3  H   UNL     1     -21.319  -3.940   6.029  0.00  0.00    +0.000 HD
ENDROOT
BRANCH   1   4
ATOM      4  C   UNL     1     -20.334  -4.899   4.366  0.00  0.00    +0.000 C 
ATOM      5  H   UNL     1     -21.114  -4.859   3.595  0.00  0.00    +0.000 HD
ATOM      6  H   UNL     1     -20.469  -5.839   4.915  0.00  0.00    +0.000 HD
BRANCH   4   7
ATOM      7  C   UNL     1     -18.953  -4.882   3.707  0.00  0.00    +0.000 C 
ATOM      8  H   UNL     1     -18.478  -3.907   3.874  0.00  0.00    +0.000 HD
ATOM      9  H   UNL     1     -18.312  -5.640   4.173  0.00  0.00    +0.000 HD
BRANCH   7  10
ATOM     10  C   UNL     1     -19.052  -5.153   2.203  0.00  0.00    +0.000 C 
ATOM     11  H   UNL     1     -19.810  -4.502   1.750  0.00  0.00    +0.000 HD
ATOM     12  H   UNL     1     -18.104  -4.893   1.714  0.00  0.00    +0.000 HD
BRANCH  10  13
ATOM     13  C   UNL     1     -19.391  -6.607   1.901  0.00  0.00    +0.000 C 
ATOM     14  H   UNL     1     -18.684  -7.041   1.186  0.00  0.00    +0.000 HD
ATOM     15  H   UNL     1     -19.369  -7.209   2.814  0.00  0.00    +0.000 HD
BRANCH  13  16
ATOM     16  O   UNL     1     -20.698  -6.694   1.349  0.00  0.00    +0.000 OA
ATOM     17  H   UNL     1     -21.304  -6.936   2.069  0.00  0.00    +0.000 HD
ENDBRANCH  13  16
ENDBRANCH  10  13
ENDBRANCH   7  10
ENDBRANCH   4   7
ENDBRANCH   1   4
BRANCH   1  18
ATOM     18  C   UNL     1     -20.806  -2.394   4.620  0.00  0.00    +0.000 C 
ATOM     19  H   UNL     1     -20.103  -2.272   3.787  0.00  0.00    +0.000 HD
ATOM     20  H   UNL     1     -21.806  -2.461   4.172  0.00  0.00    +0.000 HD
BRANCH  18  21
ATOM     21  C   UNL     1     -20.749  -1.141   5.497  0.00  0.00    +0.000 C 
ATOM     22  H   UNL     1     -21.723  -0.637   5.467  0.00  0.00    +0.000 HD
ATOM     23  H   UNL     1     -20.020  -0.443   5.065  0.00  0.00    +0.000 HD
BRANCH  21  24
ATOM     24  C   UNL     1     -20.369  -1.430   6.949  0.00  0.00    +0.000 C 
ATOM     25  H   UNL     1     -20.441  -2.507   7.143  0.00  0.00    +0.000 HD
ATOM     26  H   UNL     1     -19.329  -1.136   7.127  0.00  0.00    +0.000 HD
BRANCH  24  27
ATOM     27  C   UNL     1     -21.271  -0.680   7.918  0.00  0.00    +0.000 C 
ATOM     28  H   UNL     1     -20.733  -0.464   8.846  0.00  0.00    +0.000 HD
ATOM     29  H   UNL     1     -21.603   0.271   7.489  0.00  0.00    +0.000 HD
ATOM     30  H   UNL     1     -22.156  -1.273   8.169  0.00  0.00    +0.000 HD
ENDBRANCH  24  27
ENDBRANCH  21  24
ENDBRANCH  18  21
ENDBRANCH   1  18
TORSDOF 9
ENDMDL
