MODEL 1
REMARK VINA RESULT:    -4.397      0.000      0.000
REMARK INTER + INTRA:          -6.139
REMARK INTER:                  -5.609
REMARK INTRA:                  -0.529
REMARK UNBOUND:                -0.200
REMARK  Name = 18827
REMARK  7 active torsions:
REMARK  status: ('A' for Active; 'I' for Inactive)
REMARK    1  A    between atoms: O_1  and  C_6
REMARK    2  A    between atoms: C_2  and  C_3
REMARK    3  A    between atoms: C_2  and  C_4
REMARK    4  A    between atoms: C_3  and  C_5
REMARK    5  A    between atoms: C_4  and  C_6
REMARK    6  A    between atoms: C_5  and  C_7
REMARK    7  A    between atoms: C_6  and  C_8
REMARK                            x       y       z     vdW  Elec       q    Type
REMARK                         _______ _______ _______ _____ _____    ______ ____
ROOT
ATOM      1  C   UNL     1      -1.362   9.927 -10.351  0.00  0.00    +0.000 C 
ATOM      2  H   UNL     1      -1.027  10.958 -10.183  0.00  0.00    +0.000 HD
ATOM      3  H   UNL     1      -0.686   9.271  -9.789  0.00  0.00    +0.000 HD
ENDROOT
BRANCH   1   4
ATOM      4  C   UNL     1      -2.789   9.761  -9.824  0.00  0.00    +0.000 C 
ATOM      5  H   UNL     1      -3.441   9.397 -10.628  0.00  0.00    +0.000 HD
ATOM      6  H   UNL     1      -3.179  10.737  -9.510  0.00  0.00    +0.000 HD
BRANCH   4   7
ATOM      7  C   UNL     1      -2.839   8.785  -8.648  0.00  0.00    +0.000 C 
ATOM      8  H   UNL     1      -1.851   8.718  -8.178  0.00  0.00    +0.000 HD
ATOM      9  H   UNL     1      -3.537   9.153  -7.888  0.00  0.00    +0.000 HD
BRANCH   7  10
ATOM     10  C   UNL     1      -3.276   7.399  -9.095  0.00  0.00    +0.000 C 
ATOM     11  H   UNL     1      -4.055   7.001  -8.437  0.00  0.00    +0.000 HD
ATOM     12  H   UNL     1      -3.667   7.421 -10.117  0.00  0.00    +0.000 HD
ATOM     13  H   UNL     1      -2.426   6.708  -9.071  0.00  0.00    +0.000 HD
ENDBRANCH   7  10
ENDBRANCH   4   7
ENDBRANCH   1   4
BRANCH   1  14
ATOM     14  C   UNL     1      -1.279   9.586 -11.842  0.00  0.00    +0.000 C 
ATOM     15  H   UNL     1      -0.844  10.447 -12.367  0.00  0.00    +0.000 HD
ATOM     16  H   UNL     1      -2.294   9.449 -12.237  0.00  0.00    +0.000 HD
BRANCH  14  17
ATOM     17  C   UNL     1      -0.447   8.331 -12.145  0.00  0.00    +0.000 C 
ATOM     18  H   UNL     1       0.267   8.180 -11.326  0.00  0.00    +0.000 HD
BRANCH  17  19
ATOM     19  C   UNL     1      -1.288   7.093 -12.317  0.00  0.00    +0.000 C 
ATOM     20  C   UNL     1      -2.574   7.048 -12.690  0.00  0.00    +0.000 C 
ATOM     21  H   UNL     1      -0.795   6.148 -12.104  0.00  0.00    +0.000 HD
ATOM     22  H   UNL     1      -3.089   6.099 -12.777  0.00  0.00    +0.000 HD
ATOM     23  H   UNL     1      -3.128   7.954 -12.912  0.00  0.00    +0.000 HD
ENDBRANCH  17  19
BRANCH  17  24
ATOM     24  O   UNL     1       0.323   8.584 -13.321  0.00  0.00    +0.000 OA
ATOM     25  H   UNL     1       0.083   7.911 -13.980  0.00  0.00    +0.000 HD
ENDBRANCH  17  24
ENDBRANCH  14  17
ENDBRANCH   1  14
TORSDOF 7
ENDMDL
MODEL 2
REMARK VINA RESULT:    -4.322     12.855     14.121
REMARK INTER + INTRA:          -6.038
REMARK INTER:                  -5.554
REMARK INTRA:                  -0.483
REMARK UNBOUND:                -0.200
REMARK  Name = 18827
REMARK  7 active torsions:
REMARK  status: ('A' for Active; 'I' for Inactive)
REMARK    1  A    between atoms: O_1  and  C_6
REMARK    2  A    between atoms: C_2  and  C_3
REMARK    3  A    between atoms: C_2  and  C_4
REMARK    4  A    between atoms: C_3  and  C_5
REMARK    5  A    between atoms: C_4  and  C_6
REMARK    6  A    between atoms: C_5  and  C_7
REMARK    7  A    between atoms: C_6  and  C_8
REMARK                            x       y       z     vdW  Elec       q    Type
REMARK                         _______ _______ _______ _____ _____    ______ ____
ROOT
ATOM      1  C   UNL     1       5.960  11.432  -0.105  0.00  0.00    +0.000 C 
ATOM      2  H   UNL     1       5.958  11.178   0.962  0.00  0.00    +0.000 HD
ATOM      3  H   UNL     1       5.996  12.526  -0.177  0.00  0.00    +0.000 HD
ENDROOT
BRANCH   1   4
ATOM      4  C   UNL     1       7.203  10.836  -0.770  0.00  0.00    +0.000 C 
ATOM      5  H   UNL     1       8.073  11.473  -0.566  0.00  0.00    +0.000 HD
ATOM      6  H   UNL     1       7.064  10.820  -1.858  0.00  0.00    +0.000 HD
BRANCH   4   7
ATOM      7  C   UNL     1       7.480   9.420  -0.264  0.00  0.00    +0.000 C 
ATOM      8  H   UNL     1       6.629   8.769  -0.493  0.00  0.00    +0.000 HD
ATOM      9  H   UNL     1       8.354   9.005  -0.779  0.00  0.00    +0.000 HD
BRANCH   7  10
ATOM     10  C   UNL     1       7.733   9.405   1.235  0.00  0.00    +0.000 C 
ATOM     11  H   UNL     1       8.764   9.115   1.457  0.00  0.00    +0.000 HD
ATOM     12  H   UNL     1       7.551  10.392   1.674  0.00  0.00    +0.000 HD
ATOM     13  H   UNL     1       7.065   8.688   1.725  0.00  0.00    +0.000 HD
ENDBRANCH   7  10
ENDBRANCH   4   7
ENDBRANCH   1   4
BRANCH   1  14
ATOM     14  C   UNL     1       4.678  10.920  -0.767  0.00  0.00    +0.000 C 
ATOM     15  H   UNL     1       4.934  10.046  -1.380  0.00  0.00    +0.000 HD
ATOM     16  H   UNL     1       4.292  11.689  -1.448  0.00  0.00    +0.000 HD
BRANCH  14  17
ATOM     17  C   UNL     1       3.576  10.534   0.232  0.00  0.00    +0.000 C 
ATOM     18  H   UNL     1       2.649  10.351  -0.326  0.00  0.00    +0.000 HD
BRANCH  17  19
ATOM     19  C   UNL     1       3.923   9.318   1.051  0.00  0.00    +0.000 C 
ATOM     20  C   UNL     1       3.726   9.160   2.366  0.00  0.00    +0.000 C 
ATOM     21  H   UNL     1       4.390   8.497   0.512  0.00  0.00    +0.000 HD
ATOM     22  H   UNL     1       4.020   8.241   2.860  0.00  0.00    +0.000 HD
ATOM     23  H   UNL     1       3.272   9.941   2.965  0.00  0.00    +0.000 HD
ENDBRANCH  17  19
BRANCH  17  24
ATOM     24  O   UNL     1       3.333  11.658   1.079  0.00  0.00    +0.000 OA
ATOM     25  H   UNL     1       3.103  12.412   0.510  0.00  0.00    +0.000 HD
ENDBRANCH  17  24
ENDBRANCH  14  17
ENDBRANCH   1  14
TORSDOF 7
ENDMDL
MODEL 3
REMARK VINA RESULT:    -4.310     13.321     14.615
REMARK INTER + INTRA:          -6.022
REMARK INTER:                  -5.915
REMARK INTRA:                  -0.107
REMARK UNBOUND:                -0.200
REMARK  Name = 18827
REMARK  7 active torsions:
REMARK  status: ('A' for Active; 'I' for Inactive)
REMARK    1  A    between atoms: O_1  and  C_6
REMARK    2  A    between atoms: C_2  and  C_3
REMARK    3  A    between atoms: C_2  and  C_4
REMARK    4  A    between atoms: C_3  and  C_5
REMARK    5  A    between atoms: C_4  and  C_6
REMARK    6  A    between atoms: C_5  and  C_7
REMARK    7  A    between atoms: C_6  and  C_8
REMARK                            x       y       z     vdW  Elec       q    Type
REMARK                         _______ _______ _______ _____ _____    ______ ____
ROOT
ATOM      1  C   UNL     1       5.029   8.842   2.248  0.00  0.00    +0.000 C 
ATOM      2  H   UNL     1       5.480   9.565   2.938  0.00  0.00    +0.000 HD
ATOM      3  H   UNL     1       5.762   8.648   1.455  0.00  0.00    +0.000 HD
ENDROOT
BRANCH   1   4
ATOM      4  C   UNL     1       4.730   7.540   2.995  0.00  0.00    +0.000 C 
ATOM      5  H   UNL     1       4.202   6.845   2.331  0.00  0.00    +0.000 HD
ATOM      6  H   UNL     1       4.063   7.748   3.840  0.00  0.00    +0.000 HD
BRANCH   4   7
ATOM      7  C   UNL     1       6.014   6.882   3.502  0.00  0.00    +0.000 C 
ATOM      8  H   UNL     1       5.834   5.820   3.704  0.00  0.00    +0.000 HD
ATOM      9  H   UNL     1       6.790   6.938   2.730  0.00  0.00    +0.000 HD
BRANCH   7  10
ATOM     10  C   UNL     1       6.522   7.554   4.767  0.00  0.00    +0.000 C 
ATOM     11  H   UNL     1       6.533   8.642   4.657  0.00  0.00    +0.000 HD
ATOM     12  H   UNL     1       5.891   7.302   5.626  0.00  0.00    +0.000 HD
ATOM     13  H   UNL     1       7.543   7.224   4.988  0.00  0.00    +0.000 HD
ENDBRANCH   7  10
ENDBRANCH   4   7
ENDBRANCH   1   4
BRANCH   1  14
ATOM     14  C   UNL     1       3.757   9.431   1.632  0.00  0.00    +0.000 C 
ATOM     15  H   UNL     1       3.051   9.650   2.444  0.00  0.00    +0.000 HD
ATOM     16  H   UNL     1       3.284   8.676   0.990  0.00  0.00    +0.000 HD
BRANCH  14  17
ATOM     17  C   UNL     1       3.999  10.707   0.813  0.00  0.00    +0.000 C 
ATOM     18  H   UNL     1       4.990  11.103   1.068  0.00  0.00    +0.000 HD
BRANCH  17  19
ATOM     19  C   UNL     1       3.914  10.478  -0.674  0.00  0.00    +0.000 C 
ATOM     20  C   UNL     1       3.235  11.220  -1.558  0.00  0.00    +0.000 C 
ATOM     21  H   UNL     1       4.454   9.614  -1.055  0.00  0.00    +0.000 HD
ATOM     22  H   UNL     1       3.236  10.962  -2.610  0.00  0.00    +0.000 HD
ATOM     23  H   UNL     1       2.670  12.092  -1.246  0.00  0.00    +0.000 HD
ENDBRANCH  17  19
BRANCH  17  24
ATOM     24  O   UNL     1       3.045  11.687   1.225  0.00  0.00    +0.000 OA
ATOM     25  H   UNL     1       3.152  12.463   0.651  0.00  0.00    +0.000 HD
ENDBRANCH  17  24
ENDBRANCH  14  17
ENDBRANCH   1  14
TORSDOF 7
ENDMDL
MODEL 4
REMARK VINA RESULT:    -4.304     12.722     14.063
REMARK INTER + INTRA:          -6.013
REMARK INTER:                  -5.514
REMARK INTRA:                  -0.499
REMARK UNBOUND:                -0.200
REMARK  Name = 18827
REMARK  7 active torsions:
REMARK  status: ('A' for Active; 'I' for Inactive)
REMARK    1  A    between atoms: O_1  and  C_6
REMARK    2  A    between atoms: C_2  and  C_3
REMARK    3  A    between atoms: C_2  and  C_4
REMARK    4  A    between atoms: C_3  and  C_5
REMARK    5  A    between atoms: C_4  and  C_6
REMARK    6  A    between atoms: C_5  and  C_7
REMARK    7  A    between atoms: C_6  and  C_8
REMARK                            x       y       z     vdW  Elec       q    Type
REMARK                         _______ _______ _______ _____ _____    ______ ____
ROOT
ATOM      1  C   UNL     1       6.124   8.617   0.999  0.00  0.00    +0.000 C 
ATOM      2  H   UNL     1       6.217   7.684   1.568  0.00  0.00    +0.000 HD
ATOM      3  H   UNL     1       6.528   9.421   1.627  0.00  0.00    +0.000 HD
ENDROOT
BRANCH   1   4
ATOM      4  C   UNL     1       6.945   8.513  -0.289  0.00  0.00    +0.000 C 
ATOM      5  H   UNL     1       6.273   8.518  -1.157  0.00  0.00    +0.000 HD
ATOM      6  H   UNL     1       7.483   7.558  -0.304  0.00  0.00    +0.000 HD
BRANCH   4   7
ATOM      7  C   UNL     1       7.939   9.668  -0.410  0.00  0.00    +0.000 C 
ATOM      8  H   UNL     1       8.238  10.009   0.589  0.00  0.00    +0.000 HD
ATOM      9  H   UNL     1       8.847   9.326  -0.921  0.00  0.00    +0.000 HD
BRANCH   7  10
ATOM     10  C   UNL     1       7.345  10.836  -1.180  0.00  0.00    +0.000 C 
ATOM     11  H   UNL     1       6.325  10.613  -1.507  0.00  0.00    +0.000 HD
ATOM     12  H   UNL     1       7.319  11.740  -0.564  0.00  0.00    +0.000 HD
ATOM     13  H   UNL     1       7.948  11.048  -2.070  0.00  0.00    +0.000 HD
ENDBRANCH   7  10
ENDBRANCH   4   7
ENDBRANCH   1   4
BRANCH   1  14
ATOM     14  C   UNL     1       4.650   8.901   0.696  0.00  0.00    +0.000 C 
ATOM     15  H   UNL     1       4.052   8.068   1.090  0.00  0.00    +0.000 HD
ATOM     16  H   UNL     1       4.503   8.916  -0.391  0.00  0.00    +0.000 HD
BRANCH  14  17
ATOM     17  C   UNL     1       4.138  10.220   1.292  0.00  0.00    +0.000 C 
ATOM     18  H   UNL     1       4.897  10.609   1.983  0.00  0.00    +0.000 HD
BRANCH  17  19
ATOM     19  C   UNL     1       3.828  11.258   0.245  0.00  0.00    +0.000 C 
ATOM     20  C   UNL     1       3.536  11.031  -1.042  0.00  0.00    +0.000 C 
ATOM     21  H   UNL     1       3.857  12.294   0.577  0.00  0.00    +0.000 HD
ATOM     22  H   UNL     1       3.334  11.856  -1.715  0.00  0.00    +0.000 HD
ATOM     23  H   UNL     1       3.495  10.023  -1.440  0.00  0.00    +0.000 HD
ENDBRANCH  17  19
BRANCH  17  24
ATOM     24  O   UNL     1       2.978   9.932   2.074  0.00  0.00    +0.000 OA
ATOM     25  H   UNL     1       3.091   9.045   2.453  0.00  0.00    +0.000 HD
ENDBRANCH  17  24
ENDBRANCH  14  17
ENDBRANCH   1  14
TORSDOF 7
ENDMDL
MODEL 5
REMARK VINA RESULT:    -4.241      9.152      9.931
REMARK INTER + INTRA:          -5.929
REMARK INTER:                  -5.826
REMARK INTRA:                  -0.102
REMARK UNBOUND:                -0.200
REMARK  Name = 18827
REMARK  7 active torsions:
REMARK  status: ('A' for Active; 'I' for Inactive)
REMARK    1  A    between atoms: O_1  and  C_6
REMARK    2  A    between atoms: C_2  and  C_3
REMARK    3  A    between atoms: C_2  and  C_4
REMARK    4  A    between atoms: C_3  and  C_5
REMARK    5  A    between atoms: C_4  and  C_6
REMARK    6  A    between atoms: C_5  and  C_7
REMARK    7  A    between atoms: C_6  and  C_8
REMARK                            x       y       z     vdW  Elec       q    Type
REMARK                         _______ _______ _______ _____ _____    ______ ____
ROOT
ATOM      1  C   UNL     1      -9.895   8.108  -5.920  0.00  0.00    +0.000 C 
ATOM      2  H   UNL     1      -9.482   9.018  -5.468  0.00  0.00    +0.000 HD
ATOM      3  H   UNL     1     -10.654   7.719  -5.230  0.00  0.00    +0.000 HD
ENDROOT
BRANCH   1   4
ATOM      4  C   UNL     1     -10.553   8.456  -7.258  0.00  0.00    +0.000 C 
ATOM      5  H   UNL     1     -11.558   8.017  -7.301  0.00  0.00    +0.000 HD
ATOM      6  H   UNL     1      -9.973   8.015  -8.077  0.00  0.00    +0.000 HD
BRANCH   4   7
ATOM      7  C   UNL     1     -10.652   9.970  -7.452  0.00  0.00    +0.000 C 
ATOM      8  H   UNL     1     -11.510  10.361  -6.895  0.00  0.00    +0.000 HD
ATOM      9  H   UNL     1      -9.754  10.455  -7.051  0.00  0.00    +0.000 HD
BRANCH   7  10
ATOM     10  C   UNL     1     -10.800  10.333  -8.921  0.00  0.00    +0.000 C 
ATOM     11  H   UNL     1     -10.511   9.497  -9.564  0.00  0.00    +0.000 HD
ATOM     12  H   UNL     1     -11.834  10.606  -9.155  0.00  0.00    +0.000 HD
ATOM     13  H   UNL     1     -10.160  11.188  -9.166  0.00  0.00    +0.000 HD
ENDBRANCH   7  10
ENDBRANCH   4   7
ENDBRANCH   1   4
BRANCH   1  14
ATOM     14  C   UNL     1      -8.789   7.065  -6.102  0.00  0.00    +0.000 C 
ATOM     15  H   UNL     1      -7.831   7.593  -6.194  0.00  0.00    +0.000 HD
ATOM     16  H   UNL     1      -8.952   6.527  -7.044  0.00  0.00    +0.000 HD
BRANCH  14  17
ATOM     17  C   UNL     1      -8.701   6.050  -4.953  0.00  0.00    +0.000 C 
ATOM     18  H   UNL     1      -9.573   6.183  -4.301  0.00  0.00    +0.000 HD
BRANCH  17  19
ATOM     19  C   UNL     1      -8.641   4.622  -5.431  0.00  0.00    +0.000 C 
ATOM     20  C   UNL     1      -8.792   3.522  -4.681  0.00  0.00    +0.000 C 
ATOM     21  H   UNL     1      -8.445   4.482  -6.492  0.00  0.00    +0.000 HD
ATOM     22  H   UNL     1      -8.724   2.538  -5.128  0.00  0.00    +0.000 HD
ATOM     23  H   UNL     1      -8.984   3.590  -3.616  0.00  0.00    +0.000 HD
ENDBRANCH  17  19
BRANCH  17  24
ATOM     24  O   UNL     1      -7.549   6.366  -4.170  0.00  0.00    +0.000 OA
ATOM     25  H   UNL     1      -7.779   7.116  -3.596  0.00  0.00    +0.000 HD
ENDBRANCH  17  24
ENDBRANCH  14  17
ENDBRANCH   1  14
TORSDOF 7
ENDMDL
MODEL 6
REMARK VINA RESULT:    -4.220      7.838      9.235
REMARK INTER + INTRA:          -5.901
REMARK INTER:                  -5.347
REMARK INTRA:                  -0.554
REMARK UNBOUND:                -0.200
REMARK  Name = 18827
REMARK  7 active torsions:
REMARK  status: ('A' for Active; 'I' for Inactive)
REMARK    1  A    between atoms: O_1  and  C_6
REMARK    2  A    between atoms: C_2  and  C_3
REMARK    3  A    between atoms: C_2  and  C_4
REMARK    4  A    between atoms: C_3  and  C_5
REMARK    5  A    between atoms: C_4  and  C_6
REMARK    6  A    between atoms: C_5  and  C_7
REMARK    7  A    between atoms: C_6  and  C_8
REMARK                            x       y       z     vdW  Elec       q    Type
REMARK                         _______ _______ _______ _____ _____    ______ ____
ROOT
ATOM      1  C   UNL     1      -8.655   6.294  -7.729  0.00  0.00    +0.000 C 
ATOM      2  H   UNL     1      -9.116   7.205  -8.129  0.00  0.00    +0.000 HD
ATOM      3  H   UNL     1      -9.470   5.613  -7.454  0.00  0.00    +0.000 HD
ENDROOT
BRANCH   1   4
ATOM      4  C   UNL     1      -7.789   5.643  -8.810  0.00  0.00    +0.000 C 
ATOM      5  H   UNL     1      -7.119   6.394  -9.248  0.00  0.00    +0.000 HD
ATOM      6  H   UNL     1      -8.430   5.271  -9.618  0.00  0.00    +0.000 HD
BRANCH   4   7
ATOM      7  C   UNL     1      -6.959   4.493  -8.239  0.00  0.00    +0.000 C 
ATOM      8  H   UNL     1      -5.955   4.504  -8.679  0.00  0.00    +0.000 HD
ATOM      9  H   UNL     1      -6.841   4.620  -7.157  0.00  0.00    +0.000 HD
BRANCH   7  10
ATOM     10  C   UNL     1      -7.610   3.147  -8.514  0.00  0.00    +0.000 C 
ATOM     11  H   UNL     1      -8.581   3.272  -9.001  0.00  0.00    +0.000 HD
ATOM     12  H   UNL     1      -6.978   2.530  -9.161  0.00  0.00    +0.000 HD
ATOM     13  H   UNL     1      -7.768   2.604  -7.576  0.00  0.00    +0.000 HD
ENDBRANCH   7  10
ENDBRANCH   4   7
ENDBRANCH   1   4
BRANCH   1  14
ATOM     14  C   UNL     1      -7.829   6.629  -6.484  0.00  0.00    +0.000 C 
ATOM     15  H   UNL     1      -7.615   7.706  -6.493  0.00  0.00    +0.000 HD
ATOM     16  H   UNL     1      -6.865   6.108  -6.541  0.00  0.00    +0.000 HD
BRANCH  14  17
ATOM     17  C   UNL     1      -8.522   6.261  -5.163  0.00  0.00    +0.000 C 
ATOM     18  H   UNL     1      -9.271   7.030  -4.936  0.00  0.00    +0.000 HD
BRANCH  17  19
ATOM     19  C   UNL     1      -9.184   4.907  -5.202  0.00  0.00    +0.000 C 
ATOM     20  C   UNL     1      -8.659   3.751  -4.776  0.00  0.00    +0.000 C 
ATOM     21  H   UNL     1     -10.183   4.876  -5.631  0.00  0.00    +0.000 HD
ATOM     22  H   UNL     1      -9.222   2.828  -4.857  0.00  0.00    +0.000 HD
ATOM     23  H   UNL     1      -7.666   3.709  -4.343  0.00  0.00    +0.000 HD
ENDBRANCH  17  19
BRANCH  17  24
ATOM     24  O   UNL     1      -7.547   6.314  -4.121  0.00  0.00    +0.000 OA
ATOM     25  H   UNL     1      -6.956   5.551  -4.231  0.00  0.00    +0.000 HD
ENDBRANCH  17  24
ENDBRANCH  14  17
ENDBRANCH   1  14
TORSDOF 7
ENDMDL
MODEL 7
REMARK VINA RESULT:    -4.199      1.396      1.978
REMARK INTER + INTRA:          -5.872
REMARK INTER:                  -5.459
REMARK INTRA:                  -0.413
REMARK UNBOUND:                -0.200
REMARK  Name = 18827
REMARK  7 active torsions:
REMARK  status: ('A' for Active; 'I' for Inactive)
REMARK    1  A    between atoms: O_1  and  C_6
REMARK    2  A    between atoms: C_2  and  C_3
REMARK    3  A    between atoms: C_2  and  C_4
REMARK    4  A    between atoms: C_3  and  C_5
REMARK    5  A    between atoms: C_4  and  C_6
REMARK    6  A    between atoms: C_5  and  C_7
REMARK    7  A    between atoms: C_6  and  C_8
REMARK                            x       y       z     vdW  Elec       q    Type
REMARK                         _______ _______ _______ _____ _____    ______ ____
ROOT
ATOM      1  C   UNL     1      -2.766   9.723  -9.821  0.00  0.00    +0.000 C 
ATOM      2  H   UNL     1      -3.376   9.398 -10.673  0.00  0.00    +0.000 HD
ATOM      3  H   UNL     1      -3.218  10.643  -9.431  0.00  0.00    +0.000 HD
ENDROOT
BRANCH   1   4
ATOM      4  C   UNL     1      -2.789   8.643  -8.736  0.00  0.00    +0.000 C 
ATOM      5  H   UNL     1      -3.275   9.036  -7.834  0.00  0.00    +0.000 HD
ATOM      6  H   UNL     1      -1.761   8.380  -8.460  0.00  0.00    +0.000 HD
BRANCH   4   7
ATOM      7  C   UNL     1      -3.531   7.394  -9.210  0.00  0.00    +0.000 C 
ATOM      8  H   UNL     1      -3.614   6.675  -8.387  0.00  0.00    +0.000 HD
ATOM      9  H   UNL     1      -4.551   7.659  -9.514  0.00  0.00    +0.000 HD
BRANCH   7  10
ATOM     10  C   UNL     1      -2.820   6.734 -10.381  0.00  0.00    +0.000 C 
ATOM     11  H   UNL     1      -1.792   6.469 -10.118  0.00  0.00    +0.000 HD
ATOM     12  H   UNL     1      -3.341   5.824 -10.694  0.00  0.00    +0.000 HD
ATOM     13  H   UNL     1      -2.787   7.417 -11.237  0.00  0.00    +0.000 HD
ENDBRANCH   7  10
ENDBRANCH   4   7
ENDBRANCH   1   4
BRANCH   1  14
ATOM     14  C   UNL     1      -1.336  10.014 -10.283  0.00  0.00    +0.000 C 
ATOM     15  H   UNL     1      -0.674   9.248  -9.857  0.00  0.00    +0.000 HD
ATOM     16  H   UNL     1      -1.014  10.980  -9.872  0.00  0.00    +0.000 HD
BRANCH  14  17
ATOM     17  C   UNL     1      -1.170  10.036 -11.809  0.00  0.00    +0.000 C 
ATOM     18  H   UNL     1      -0.715  10.993 -12.097  0.00  0.00    +0.000 HD
BRANCH  17  19
ATOM     19  C   UNL     1      -0.326   8.900 -12.327  0.00  0.00    +0.000 C 
ATOM     20  C   UNL     1      -0.722   7.927 -13.158  0.00  0.00    +0.000 C 
ATOM     21  H   UNL     1       0.703   8.871 -11.975  0.00  0.00    +0.000 HD
ATOM     22  H   UNL     1      -0.032   7.150 -13.464  0.00  0.00    +0.000 HD
ATOM     23  H   UNL     1      -1.735   7.893 -13.542  0.00  0.00    +0.000 HD
ENDBRANCH  17  19
BRANCH  17  24
ATOM     24  O   UNL     1      -2.471  10.005 -12.397  0.00  0.00    +0.000 OA
ATOM     25  H   UNL     1      -2.965   9.280 -11.980  0.00  0.00    +0.000 HD
ENDBRANCH  17  24
ENDBRANCH  14  17
ENDBRANCH   1  14
TORSDOF 7
ENDMDL
MODEL 8
REMARK VINA RESULT:    -4.144      2.463      4.522
REMARK INTER + INTRA:          -5.798
REMARK INTER:                  -5.445
REMARK INTRA:                  -0.353
REMARK UNBOUND:                -0.200
REMARK  Name = 18827
REMARK  7 active torsions:
REMARK  status: ('A' for Active; 'I' for Inactive)
REMARK    1  A    between atoms: O_1  and  C_6
REMARK    2  A    between atoms: C_2  and  C_3
REMARK    3  A    between atoms: C_2  and  C_4
REMARK    4  A    between atoms: C_3  and  C_5
REMARK    5  A    between atoms: C_4  and  C_6
REMARK    6  A    between atoms: C_5  and  C_7
REMARK    7  A    between atoms: C_6  and  C_8
REMARK                            x       y       z     vdW  Elec       q    Type
REMARK                         _______ _______ _______ _____ _____    ______ ____
ROOT
ATOM      1  C   UNL     1      -1.876   6.776 -11.328  0.00  0.00    +0.000 C 
ATOM      2  H   UNL     1      -1.765   5.693 -11.461  0.00  0.00    +0.000 HD
ATOM      3  H   UNL     1      -1.086   7.101 -10.641  0.00  0.00    +0.000 HD
ENDROOT
BRANCH   1   4
ATOM      4  C   UNL     1      -1.701   7.477 -12.677  0.00  0.00    +0.000 C 
ATOM      5  H   UNL     1      -2.593   8.075 -12.902  0.00  0.00    +0.000 HD
ATOM      6  H   UNL     1      -1.608   6.725 -13.470  0.00  0.00    +0.000 HD
BRANCH   4   7
ATOM      7  C   UNL     1      -0.469   8.382 -12.678  0.00  0.00    +0.000 C 
ATOM      8  H   UNL     1       0.350   7.897 -12.133  0.00  0.00    +0.000 HD
ATOM      9  H   UNL     1      -0.125   8.542 -13.706  0.00  0.00    +0.000 HD
BRANCH   7  10
ATOM     10  C   UNL     1      -0.767   9.728 -12.038  0.00  0.00    +0.000 C 
ATOM     11  H   UNL     1      -0.419  10.550 -12.671  0.00  0.00    +0.000 HD
ATOM     12  H   UNL     1      -1.842   9.854 -11.872  0.00  0.00    +0.000 HD
ATOM     13  H   UNL     1      -0.263   9.808 -11.069  0.00  0.00    +0.000 HD
ENDBRANCH   7  10
ENDBRANCH   4   7
ENDBRANCH   1   4
BRANCH   1  14
ATOM     14  C   UNL     1      -3.244   7.089 -10.714  0.00  0.00    +0.000 C 
ATOM     15  H   UNL     1      -3.972   6.370 -11.112  0.00  0.00    +0.000 HD
ATOM     16  H   UNL     1      -3.566   8.086 -11.042  0.00  0.00    +0.000 HD
BRANCH  14  17
ATOM     17  C   UNL     1      -3.262   7.034  -9.180  0.00  0.00    +0.000 C 
ATOM     18  H   UNL     1      -2.495   6.323  -8.847  0.00  0.00    +0.000 HD
BRANCH  17  19
ATOM     19  C   UNL     1      -3.020   8.375  -8.538  0.00  0.00    +0.000 C 
ATOM     20  C   UNL     1      -2.888   9.549  -9.169  0.00  0.00    +0.000 C 
ATOM     21  H   UNL     1      -2.934   8.377  -7.454  0.00  0.00    +0.000 HD
ATOM     22  H   UNL     1      -2.708  10.459  -8.608  0.00  0.00    +0.000 HD
ATOM     23  H   UNL     1      -2.957   9.618 -10.249  0.00  0.00    +0.000 HD
ENDBRANCH  17  19
BRANCH  17  24
ATOM     24  O   UNL     1      -4.522   6.501  -8.770  0.00  0.00    +0.000 OA
ATOM     25  H   UNL     1      -5.069   7.242  -8.461  0.00  0.00    +0.000 HD
ENDBRANCH  17  24
ENDBRANCH  14  17
ENDBRANCH   1  14
TORSDOF 7
ENDMDL
MODEL 9
REMARK VINA RESULT:    -4.068     12.656     13.619
REMARK INTER + INTRA:          -5.695
REMARK INTER:                  -5.499
REMARK INTRA:                  -0.196
REMARK UNBOUND:                -0.200
REMARK  Name = 18827
REMARK  7 active torsions:
REMARK  status: ('A' for Active; 'I' for Inactive)
REMARK    1  A    between atoms: O_1  and  C_6
REMARK    2  A    between atoms: C_2  and  C_3
REMARK    3  A    between atoms: C_2  and  C_4
REMARK    4  A    between atoms: C_3  and  C_5
REMARK    5  A    between atoms: C_4  and  C_6
REMARK    6  A    between atoms: C_5  and  C_7
REMARK    7  A    between atoms: C_6  and  C_8
REMARK                            x       y       z     vdW  Elec       q    Type
REMARK                         _______ _______ _______ _____ _____    ______ ____
ROOT
ATOM      1  C   UNL     1       4.459  10.429  -0.347  0.00  0.00    +0.000 C 
ATOM      2  H   UNL     1       4.413  10.279  -1.432  0.00  0.00    +0.000 HD
ATOM      3  H   UNL     1       3.805  11.278  -0.109  0.00  0.00    +0.000 HD
ENDROOT
BRANCH   1   4
ATOM      4  C   UNL     1       3.945   9.175   0.364  0.00  0.00    +0.000 C 
ATOM      5  H   UNL     1       4.705   8.384   0.313  0.00  0.00    +0.000 HD
ATOM      6  H   UNL     1       3.054   8.799  -0.153  0.00  0.00    +0.000 HD
BRANCH   4   7
ATOM      7  C   UNL     1       3.609   9.463   1.828  0.00  0.00    +0.000 C 
ATOM      8  H   UNL     1       3.886  10.493   2.078  0.00  0.00    +0.000 HD
ATOM      9  H   UNL     1       2.528   9.369   1.987  0.00  0.00    +0.000 HD
BRANCH   7  10
ATOM     10  C   UNL     1       4.333   8.508   2.763  0.00  0.00    +0.000 C 
ATOM     11  H   UNL     1       4.785   7.680   2.208  0.00  0.00    +0.000 HD
ATOM     12  H   UNL     1       5.125   9.024   3.315  0.00  0.00    +0.000 HD
ATOM     13  H   UNL     1       3.631   8.086   3.491  0.00  0.00    +0.000 HD
ENDBRANCH   7  10
ENDBRANCH   4   7
ENDBRANCH   1   4
BRANCH   1  14
ATOM     14  C   UNL     1       5.893  10.758   0.077  0.00  0.00    +0.000 C 
ATOM     15  H   UNL     1       6.268   9.929   0.692  0.00  0.00    +0.000 HD
ATOM     16  H   UNL     1       5.885  11.652   0.713  0.00  0.00    +0.000 HD
BRANCH  14  17
ATOM     17  C   UNL     1       6.850  10.989  -1.102  0.00  0.00    +0.000 C 
ATOM     18  H   UNL     1       7.334  11.965  -0.973  0.00  0.00    +0.000 HD
BRANCH  17  19
ATOM     19  C   UNL     1       7.900   9.916  -1.227  0.00  0.00    +0.000 C 
ATOM     20  C   UNL     1       9.228  10.092  -1.193  0.00  0.00    +0.000 C 
ATOM     21  H   UNL     1       7.533   8.903  -1.370  0.00  0.00    +0.000 HD
ATOM     22  H   UNL     1       9.898   9.247  -1.299  0.00  0.00    +0.000 HD
ATOM     23  H   UNL     1       9.662  11.077  -1.060  0.00  0.00    +0.000 HD
ENDBRANCH  17  19
BRANCH  17  24
ATOM     24  O   UNL     1       6.070  11.071  -2.296  0.00  0.00    +0.000 OA
ATOM     25  H   UNL     1       5.459  10.315  -2.301  0.00  0.00    +0.000 HD
ENDBRANCH  17  24
ENDBRANCH  14  17
ENDBRANCH   1  14
TORSDOF 7
ENDMDL
MODEL 10
REMARK VINA RESULT:    -4.004     13.307     14.236
REMARK INTER + INTRA:          -5.609
REMARK INTER:                  -5.409
REMARK INTRA:                  -0.200
REMARK UNBOUND:                -0.200
REMARK  Name = 18827
REMARK  7 active torsions:
REMARK  status: ('A' for Active; 'I' for Inactive)
REMARK    1  A    between atoms: O_1  and  C_6
REMARK    2  A    between atoms: C_2  and  C_3
REMARK    3  A    between atoms: C_2  and  C_4
REMARK    4  A    between atoms: C_3  and  C_5
REMARK    5  A    between atoms: C_4  and  C_6
REMARK    6  A    between atoms: C_5  and  C_7
REMARK    7  A    between atoms: C_6  and  C_8
REMARK                            x       y       z     vdW  Elec       q    Type
REMARK                         _______ _______ _______ _____ _____    ______ ____
ROOT
ATOM      1  C   UNL     1       3.584   9.935   1.361  0.00  0.00    +0.000 C 
ATOM      2  H   UNL     1       2.553  10.081   1.015  0.00  0.00    +0.000 HD
ATOM      3  H   UNL     1       3.812  10.753   2.055  0.00  0.00    +0.000 HD
ENDROOT
BRANCH   1   4
ATOM      4  C   UNL     1       3.692   8.597   2.096  0.00  0.00    +0.000 C 
ATOM      5  H   UNL     1       3.884   7.793   1.374  0.00  0.00    +0.000 HD
ATOM      6  H   UNL     1       2.737   8.370   2.585  0.00  0.00    +0.000 HD
BRANCH   4   7
ATOM      7  C   UNL     1       4.811   8.623   3.138  0.00  0.00    +0.000 C 
ATOM      8  H   UNL     1       5.212   9.639   3.229  0.00  0.00    +0.000 HD
ATOM      9  H   UNL     1       4.412   8.342   4.119  0.00  0.00    +0.000 HD
BRANCH   7  10
ATOM     10  C   UNL     1       5.938   7.672   2.768  0.00  0.00    +0.000 C 
ATOM     11  H   UNL     1       5.995   7.532   1.684  0.00  0.00    +0.000 HD
ATOM     12  H   UNL     1       6.903   8.052   3.117  0.00  0.00    +0.000 HD
ATOM     13  H   UNL     1       5.772   6.692   3.229  0.00  0.00    +0.000 HD
ENDBRANCH   7  10
ENDBRANCH   4   7
ENDBRANCH   1   4
BRANCH   1  14
ATOM     14  C   UNL     1       4.547   9.993   0.172  0.00  0.00    +0.000 C 
ATOM     15  H   UNL     1       3.954  10.112  -0.745  0.00  0.00    +0.000 HD
ATOM     16  H   UNL     1       5.077   9.035   0.090  0.00  0.00    +0.000 HD
BRANCH  14  17
ATOM     17  C   UNL     1       5.576  11.130   0.262  0.00  0.00    +0.000 C 
ATOM     18  H   UNL     1       6.205  10.962   1.145  0.00  0.00    +0.000 HD
BRANCH  17  19
ATOM     19  C   UNL     1       6.445  11.238  -0.964  0.00  0.00    +0.000 C 
ATOM     20  C   UNL     1       7.549  10.525  -1.225  0.00  0.00    +0.000 C 
ATOM     21  H   UNL     1       6.142  11.979  -1.700  0.00  0.00    +0.000 HD
ATOM     22  H   UNL     1       8.106  10.688  -2.139  0.00  0.00    +0.000 HD
ATOM     23  H   UNL     1       7.910   9.774  -0.531  0.00  0.00    +0.000 HD
ENDBRANCH  17  19
BRANCH  17  24
ATOM     24  O   UNL     1       4.869  12.350   0.485  0.00  0.00    +0.000 OA
ATOM     25  H   UNL     1       4.144  12.394  -0.161  0.00  0.00    +0.000 HD
ENDBRANCH  17  24
ENDBRANCH  14  17
ENDBRANCH   1  14
TORSDOF 7
ENDMDL
