MODEL 1
REMARK VINA RESULT:    -4.394      0.000      0.000
REMARK INTER + INTRA:          -6.467
REMARK INTER:                  -6.059
REMARK INTRA:                  -0.408
REMARK UNBOUND:                -0.275
REMARK  Name = 957
REMARK  8 active torsions:
REMARK  status: ('A' for Active; 'I' for Inactive)
REMARK    1  A    between atoms: O_1  and  C_8
REMARK    2  A    between atoms: C_2  and  C_3
REMARK    3  A    between atoms: C_2  and  C_4
REMARK    4  A    between atoms: C_3  and  C_5
REMARK    5  A    between atoms: C_4  and  C_6
REMARK    6  A    between atoms: C_5  and  C_7
REMARK    7  A    between atoms: C_6  and  C_8
REMARK    8  A    between atoms: C_7  and  C_9
REMARK                            x       y       z     vdW  Elec       q    Type
REMARK                         _______ _______ _______ _____ _____    ______ ____
ROOT
ATOM      1  C   UNL     1      -2.682   9.805  -9.901  0.00  0.00    +0.000 C 
ATOM      2  H   UNL     1      -3.348   9.465 -10.705  0.00  0.00    +0.000 HD
ATOM      3  H   UNL     1      -3.093  10.751  -9.529  0.00  0.00    +0.000 HD
ENDROOT
BRANCH   1   4
ATOM      4  C   UNL     1      -2.699   8.774  -8.769  0.00  0.00    +0.000 C 
ATOM      5  H   UNL     1      -1.666   8.518  -8.500  0.00  0.00    +0.000 HD
ATOM      6  H   UNL     1      -3.151   9.233  -7.881  0.00  0.00    +0.000 HD
BRANCH   4   7
ATOM      7  C   UNL     1      -3.466   7.497  -9.119  0.00  0.00    +0.000 C 
ATOM      8  H   UNL     1      -4.506   7.747  -9.357  0.00  0.00    +0.000 HD
ATOM      9  H   UNL     1      -3.484   6.833  -8.247  0.00  0.00    +0.000 HD
BRANCH   7  10
ATOM     10  C   UNL     1      -2.822   6.773 -10.301  0.00  0.00    +0.000 C 
ATOM     11  H   UNL     1      -1.858   7.236 -10.542  0.00  0.00    +0.000 HD
ATOM     12  H   UNL     1      -2.623   5.728 -10.036  0.00  0.00    +0.000 HD
BRANCH  10  13
ATOM     13  C   UNL     1      -3.715   6.811 -11.531  0.00  0.00    +0.000 C 
ATOM     14  H   UNL     1      -4.343   5.916 -11.587  0.00  0.00    +0.000 HD
ATOM     15  H   UNL     1      -3.120   6.871 -12.448  0.00  0.00    +0.000 HD
ATOM     16  H   UNL     1      -4.373   7.685 -11.495  0.00  0.00    +0.000 HD
ENDBRANCH  10  13
ENDBRANCH   7  10
ENDBRANCH   4   7
ENDBRANCH   1   4
BRANCH   1  17
ATOM     17  C   UNL     1      -1.284  10.059 -10.471  0.00  0.00    +0.000 C 
ATOM     18  H   UNL     1      -0.561   9.407  -9.967  0.00  0.00    +0.000 HD
ATOM     19  H   UNL     1      -0.986  11.094 -10.266  0.00  0.00    +0.000 HD
BRANCH  17  20
ATOM     20  C   UNL     1      -1.246   9.803 -11.978  0.00  0.00    +0.000 C 
ATOM     21  H   UNL     1      -0.931  10.711 -12.506  0.00  0.00    +0.000 HD
ATOM     22  H   UNL     1      -2.253   9.573 -12.350  0.00  0.00    +0.000 HD
BRANCH  20  23
ATOM     23  C   UNL     1      -0.308   8.657 -12.328  0.00  0.00    +0.000 C 
ATOM     24  H   UNL     1       0.384   8.438 -11.509  0.00  0.00    +0.000 HD
ATOM     25  H   UNL     1      -0.868   7.747 -12.563  0.00  0.00    +0.000 HD
BRANCH  23  26
ATOM     26  O   UNL     1       0.449   9.019 -13.476  0.00  0.00    +0.000 OA
ATOM     27  H   UNL     1       0.003   9.775 -13.895  0.00  0.00    +0.000 HD
ENDBRANCH  23  26
ENDBRANCH  20  23
ENDBRANCH  17  20
ENDBRANCH   1  17
TORSDOF 8
ENDMDL
MODEL 2
REMARK VINA RESULT:    -4.332     26.843     27.865
REMARK INTER + INTRA:          -6.380
REMARK INTER:                  -6.105
REMARK INTRA:                  -0.276
REMARK UNBOUND:                -0.275
REMARK  Name = 957
REMARK  8 active torsions:
REMARK  status: ('A' for Active; 'I' for Inactive)
REMARK    1  A    between atoms: O_1  and  C_8
REMARK    2  A    between atoms: C_2  and  C_3
REMARK    3  A    between atoms: C_2  and  C_4
REMARK    4  A    between atoms: C_3  and  C_5
REMARK    5  A    between atoms: C_4  and  C_6
REMARK    6  A    between atoms: C_5  and  C_7
REMARK    7  A    between atoms: C_6  and  C_8
REMARK    8  A    between atoms: C_7  and  C_9
REMARK                            x       y       z     vdW  Elec       q    Type
REMARK                         _______ _______ _______ _____ _____    ______ ____
ROOT
ATOM      1  C   UNL     1     -20.754  -2.214   4.853  0.00  0.00    +0.000 C 
ATOM      2  H   UNL     1     -21.780  -2.179   4.464  0.00  0.00    +0.000 HD
ATOM      3  H   UNL     1     -20.085  -2.132   3.987  0.00  0.00    +0.000 HD
ENDROOT
BRANCH   1   4
ATOM      4  C   UNL     1     -20.527  -1.012   5.773  0.00  0.00    +0.000 C 
ATOM      5  H   UNL     1     -19.540  -0.580   5.563  0.00  0.00    +0.000 HD
ATOM      6  H   UNL     1     -21.267  -0.239   5.533  0.00  0.00    +0.000 HD
BRANCH   4   7
ATOM      7  C   UNL     1     -20.626  -1.356   7.261  0.00  0.00    +0.000 C 
ATOM      8  H   UNL     1     -19.829  -0.841   7.811  0.00  0.00    +0.000 HD
ATOM      9  H   UNL     1     -20.469  -2.433   7.397  0.00  0.00    +0.000 HD
BRANCH   7  10
ATOM     10  C   UNL     1     -21.989  -0.961   7.830  0.00  0.00    +0.000 C 
ATOM     11  H   UNL     1     -21.915   0.010   8.333  0.00  0.00    +0.000 HD
ATOM     12  H   UNL     1     -22.716  -0.852   7.017  0.00  0.00    +0.000 HD
BRANCH  10  13
ATOM     13  C   UNL     1     -22.501  -1.998   8.817  0.00  0.00    +0.000 C 
ATOM     14  H   UNL     1     -23.596  -2.015   8.835  0.00  0.00    +0.000 HD
ATOM     15  H   UNL     1     -22.144  -1.787   9.830  0.00  0.00    +0.000 HD
ATOM     16  H   UNL     1     -22.151  -2.996   8.535  0.00  0.00    +0.000 HD
ENDBRANCH  10  13
ENDBRANCH   7  10
ENDBRANCH   4   7
ENDBRANCH   1   4
BRANCH   1  17
ATOM     17  C   UNL     1     -20.516  -3.561   5.541  0.00  0.00    +0.000 C 
ATOM     18  H   UNL     1     -21.335  -3.762   6.240  0.00  0.00    +0.000 HD
ATOM     19  H   UNL     1     -19.591  -3.515   6.128  0.00  0.00    +0.000 HD
BRANCH  17  20
ATOM     20  C   UNL     1     -20.419  -4.694   4.519  0.00  0.00    +0.000 C 
ATOM     21  H   UNL     1     -20.702  -4.329   3.524  0.00  0.00    +0.000 HD
ATOM     22  H   UNL     1     -21.136  -5.489   4.763  0.00  0.00    +0.000 HD
BRANCH  20  23
ATOM     23  C   UNL     1     -19.017  -5.283   4.466  0.00  0.00    +0.000 C 
ATOM     24  H   UNL     1     -18.997  -6.228   3.914  0.00  0.00    +0.000 HD
ATOM     25  H   UNL     1     -18.316  -4.590   3.992  0.00  0.00    +0.000 HD
BRANCH  23  26
ATOM     26  O   UNL     1     -18.570  -5.524   5.794  0.00  0.00    +0.000 OA
ATOM     27  H   UNL     1     -18.839  -4.764   6.337  0.00  0.00    +0.000 HD
ENDBRANCH  23  26
ENDBRANCH  20  23
ENDBRANCH  17  20
ENDBRANCH   1  17
TORSDOF 8
ENDMDL
MODEL 3
REMARK VINA RESULT:    -4.189     12.319     13.338
REMARK INTER + INTRA:          -6.178
REMARK INTER:                  -5.821
REMARK INTRA:                  -0.358
REMARK UNBOUND:                -0.275
REMARK  Name = 957
REMARK  8 active torsions:
REMARK  status: ('A' for Active; 'I' for Inactive)
REMARK    1  A    between atoms: O_1  and  C_8
REMARK    2  A    between atoms: C_2  and  C_3
REMARK    3  A    between atoms: C_2  and  C_4
REMARK    4  A    between atoms: C_3  and  C_5
REMARK    5  A    between atoms: C_4  and  C_6
REMARK    6  A    between atoms: C_5  and  C_7
REMARK    7  A    between atoms: C_6  and  C_8
REMARK    8  A    between atoms: C_7  and  C_9
REMARK                            x       y       z     vdW  Elec       q    Type
REMARK                         _______ _______ _______ _____ _____    ______ ____
ROOT
ATOM      1  C   UNL     1       5.550   8.599   1.202  0.00  0.00    +0.000 C 
ATOM      2  H   UNL     1       5.776   9.292   2.023  0.00  0.00    +0.000 HD
ATOM      3  H   UNL     1       5.189   7.671   1.662  0.00  0.00    +0.000 HD
ENDROOT
BRANCH   1   4
ATOM      4  C   UNL     1       4.433   9.194   0.339  0.00  0.00    +0.000 C 
ATOM      5  H   UNL     1       4.851   9.499  -0.629  0.00  0.00    +0.000 HD
ATOM      6  H   UNL     1       3.693   8.411   0.131  0.00  0.00    +0.000 HD
BRANCH   4   7
ATOM      7  C   UNL     1       3.732  10.388   0.989  0.00  0.00    +0.000 C 
ATOM      8  H   UNL     1       4.252  10.659   1.916  0.00  0.00    +0.000 HD
ATOM      9  H   UNL     1       2.709  10.104   1.263  0.00  0.00    +0.000 HD
BRANCH   7  10
ATOM     10  C   UNL     1       3.695  11.589   0.044  0.00  0.00    +0.000 C 
ATOM     11  H   UNL     1       2.942  12.308   0.386  0.00  0.00    +0.000 HD
ATOM     12  H   UNL     1       4.663  12.103   0.055  0.00  0.00    +0.000 HD
BRANCH  10  13
ATOM     13  C   UNL     1       3.374  11.167  -1.381  0.00  0.00    +0.000 C 
ATOM     14  H   UNL     1       3.679  11.937  -2.097  0.00  0.00    +0.000 HD
ATOM     15  H   UNL     1       2.301  10.987  -1.505  0.00  0.00    +0.000 HD
ATOM     16  H   UNL     1       3.904  10.243  -1.631  0.00  0.00    +0.000 HD
ENDBRANCH  10  13
ENDBRANCH   7  10
ENDBRANCH   4   7
ENDBRANCH   1   4
BRANCH   1  17
ATOM     17  C   UNL     1       6.831   8.301   0.419  0.00  0.00    +0.000 C 
ATOM     18  H   UNL     1       6.698   7.380  -0.160  0.00  0.00    +0.000 HD
ATOM     19  H   UNL     1       7.658   8.128   1.118  0.00  0.00    +0.000 HD
BRANCH  17  20
ATOM     20  C   UNL     1       7.186   9.454  -0.520  0.00  0.00    +0.000 C 
ATOM     21  H   UNL     1       7.840  10.170  -0.007  0.00  0.00    +0.000 HD
ATOM     22  H   UNL     1       6.283  10.015  -0.792  0.00  0.00    +0.000 HD
BRANCH  20  23
ATOM     23  C   UNL     1       7.868   8.957  -1.786  0.00  0.00    +0.000 C 
ATOM     24  H   UNL     1       7.264   9.160  -2.676  0.00  0.00    +0.000 HD
ATOM     25  H   UNL     1       8.847   9.428  -1.917  0.00  0.00    +0.000 HD
BRANCH  23  26
ATOM     26  O   UNL     1       8.063   7.553  -1.681  0.00  0.00    +0.000 OA
ATOM     27  H   UNL     1       8.039   7.185  -2.581  0.00  0.00    +0.000 HD
ENDBRANCH  23  26
ENDBRANCH  20  23
ENDBRANCH  17  20
ENDBRANCH   1  17
TORSDOF 8
ENDMDL
MODEL 4
REMARK VINA RESULT:    -4.146      1.079      2.772
REMARK INTER + INTRA:          -6.118
REMARK INTER:                  -5.825
REMARK INTRA:                  -0.293
REMARK UNBOUND:                -0.275
REMARK  Name = 957
REMARK  8 active torsions:
REMARK  status: ('A' for Active; 'I' for Inactive)
REMARK    1  A    between atoms: O_1  and  C_8
REMARK    2  A    between atoms: C_2  and  C_3
REMARK    3  A    between atoms: C_2  and  C_4
REMARK    4  A    between atoms: C_3  and  C_5
REMARK    5  A    between atoms: C_4  and  C_6
REMARK    6  A    between atoms: C_5  and  C_7
REMARK    7  A    between atoms: C_6  and  C_8
REMARK    8  A    between atoms: C_7  and  C_9
REMARK                            x       y       z     vdW  Elec       q    Type
REMARK                         _______ _______ _______ _____ _____    ______ ____
ROOT
ATOM      1  C   UNL     1      -2.563   6.702 -10.577  0.00  0.00    +0.000 C 
ATOM      2  H   UNL     1      -1.522   6.972 -10.356  0.00  0.00    +0.000 HD
ATOM      3  H   UNL     1      -2.632   5.610 -10.486  0.00  0.00    +0.000 HD
ENDROOT
BRANCH   1   4
ATOM      4  C   UNL     1      -3.478   7.347  -9.532  0.00  0.00    +0.000 C 
ATOM      5  H   UNL     1      -4.402   7.681 -10.022  0.00  0.00    +0.000 HD
ATOM      6  H   UNL     1      -3.769   6.585  -8.799  0.00  0.00    +0.000 HD
BRANCH   4   7
ATOM      7  C   UNL     1      -2.833   8.526  -8.802  0.00  0.00    +0.000 C 
ATOM      8  H   UNL     1      -1.815   8.257  -8.498  0.00  0.00    +0.000 HD
ATOM      9  H   UNL     1      -3.398   8.741  -7.887  0.00  0.00    +0.000 HD
BRANCH   7  10
ATOM     10  C   UNL     1      -2.799   9.772  -9.687  0.00  0.00    +0.000 C 
ATOM     11  H   UNL     1      -3.444   9.626 -10.561  0.00  0.00    +0.000 HD
ATOM     12  H   UNL     1      -3.192  10.634  -9.135  0.00  0.00    +0.000 HD
BRANCH  10  13
ATOM     13  C   UNL     1      -1.387  10.085 -10.155  0.00  0.00    +0.000 C 
ATOM     14  H   UNL     1      -0.979  10.950  -9.623  0.00  0.00    +0.000 HD
ATOM     15  H   UNL     1      -1.367  10.300 -11.228  0.00  0.00    +0.000 HD
ATOM     16  H   UNL     1      -0.728   9.231  -9.968  0.00  0.00    +0.000 HD
ENDBRANCH  10  13
ENDBRANCH   7  10
ENDBRANCH   4   7
ENDBRANCH   1   4
BRANCH   1  17
ATOM     17  C   UNL     1      -2.900   7.105 -12.014  0.00  0.00    +0.000 C 
ATOM     18  H   UNL     1      -3.175   8.166 -12.039  0.00  0.00    +0.000 HD
ATOM     19  H   UNL     1      -3.771   6.536 -12.361  0.00  0.00    +0.000 HD
BRANCH  17  20
ATOM     20  C   UNL     1      -1.718   6.856 -12.950  0.00  0.00    +0.000 C 
ATOM     21  H   UNL     1      -2.059   6.349 -13.861  0.00  0.00    +0.000 HD
ATOM     22  H   UNL     1      -0.996   6.176 -12.480  0.00  0.00    +0.000 HD
BRANCH  20  23
ATOM     23  C   UNL     1      -1.014   8.153 -13.322  0.00  0.00    +0.000 C 
ATOM     24  H   UNL     1      -0.718   8.164 -14.376  0.00  0.00    +0.000 HD
ATOM     25  H   UNL     1      -1.658   9.018 -13.134  0.00  0.00    +0.000 HD
BRANCH  23  26
ATOM     26  O   UNL     1       0.153   8.288 -12.521  0.00  0.00    +0.000 OA
ATOM     27  H   UNL     1      -0.127   8.611 -11.648  0.00  0.00    +0.000 HD
ENDBRANCH  23  26
ENDBRANCH  20  23
ENDBRANCH  17  20
ENDBRANCH   1  17
TORSDOF 8
ENDMDL
MODEL 5
REMARK VINA RESULT:    -4.088     12.901     13.663
REMARK INTER + INTRA:          -6.037
REMARK INTER:                  -5.613
REMARK INTRA:                  -0.424
REMARK UNBOUND:                -0.275
REMARK  Name = 957
REMARK  8 active torsions:
REMARK  status: ('A' for Active; 'I' for Inactive)
REMARK    1  A    between atoms: O_1  and  C_8
REMARK    2  A    between atoms: C_2  and  C_3
REMARK    3  A    between atoms: C_2  and  C_4
REMARK    4  A    between atoms: C_3  and  C_5
REMARK    5  A    between atoms: C_4  and  C_6
REMARK    6  A    between atoms: C_5  and  C_7
REMARK    7  A    between atoms: C_6  and  C_8
REMARK    8  A    between atoms: C_7  and  C_9
REMARK                            x       y       z     vdW  Elec       q    Type
REMARK                         _______ _______ _______ _____ _____    ______ ____
ROOT
ATOM      1  C   UNL     1       6.554  11.364  -0.608  0.00  0.00    +0.000 C 
ATOM      2  H   UNL     1       6.090  10.824  -1.442  0.00  0.00    +0.000 HD
ATOM      3  H   UNL     1       7.211  12.124  -1.049  0.00  0.00    +0.000 HD
ENDROOT
BRANCH   1   4
ATOM      4  C   UNL     1       5.460  12.064   0.204  0.00  0.00    +0.000 C 
ATOM      5  H   UNL     1       5.707  11.998   1.272  0.00  0.00    +0.000 HD
ATOM      6  H   UNL     1       5.456  13.131  -0.053  0.00  0.00    +0.000 HD
BRANCH   4   7
ATOM      7  C   UNL     1       4.063  11.487  -0.032  0.00  0.00    +0.000 C 
ATOM      8  H   UNL     1       4.010  11.051  -1.037  0.00  0.00    +0.000 HD
ATOM      9  H   UNL     1       3.323  12.296   0.009  0.00  0.00    +0.000 HD
BRANCH   7  10
ATOM     10  C   UNL     1       3.720  10.425   1.013  0.00  0.00    +0.000 C 
ATOM     11  H   UNL     1       4.416  10.495   1.857  0.00  0.00    +0.000 HD
ATOM     12  H   UNL     1       2.712  10.602   1.408  0.00  0.00    +0.000 HD
BRANCH  10  13
ATOM     13  C   UNL     1       3.784   9.024   0.426  0.00  0.00    +0.000 C 
ATOM     14  H   UNL     1       2.886   8.803  -0.161  0.00  0.00    +0.000 HD
ATOM     15  H   UNL     1       3.873   8.271   1.215  0.00  0.00    +0.000 HD
ATOM     16  H   UNL     1       4.652   8.929  -0.234  0.00  0.00    +0.000 HD
ENDBRANCH  10  13
ENDBRANCH   7  10
ENDBRANCH   4   7
ENDBRANCH   1   4
BRANCH   1  17
ATOM     17  C   UNL     1       7.399  10.394   0.221  0.00  0.00    +0.000 C 
ATOM     18  H   UNL     1       6.990  10.330   1.236  0.00  0.00    +0.000 HD
ATOM     19  H   UNL     1       8.422  10.778   0.306  0.00  0.00    +0.000 HD
BRANCH  17  20
ATOM     20  C   UNL     1       7.424   9.003  -0.413  0.00  0.00    +0.000 C 
ATOM     21  H   UNL     1       6.401   8.655  -0.597  0.00  0.00    +0.000 HD
ATOM     22  H   UNL     1       7.869   8.277   0.279  0.00  0.00    +0.000 HD
BRANCH  20  23
ATOM     23  C   UNL     1       8.208   8.996  -1.718  0.00  0.00    +0.000 C 
ATOM     24  H   UNL     1       7.580   8.696  -2.563  0.00  0.00    +0.000 HD
ATOM     25  H   UNL     1       8.628   9.984  -1.931  0.00  0.00    +0.000 HD
BRANCH  23  26
ATOM     26  O   UNL     1       9.284   8.074  -1.602  0.00  0.00    +0.000 OA
ATOM     27  H   UNL     1       8.911   7.178  -1.669  0.00  0.00    +0.000 HD
ENDBRANCH  23  26
ENDBRANCH  20  23
ENDBRANCH  17  20
ENDBRANCH   1  17
TORSDOF 8
ENDMDL
MODEL 6
REMARK VINA RESULT:    -4.067     13.552     14.902
REMARK INTER + INTRA:          -6.006
REMARK INTER:                  -5.808
REMARK INTRA:                  -0.198
REMARK UNBOUND:                -0.275
REMARK  Name = 957
REMARK  8 active torsions:
REMARK  status: ('A' for Active; 'I' for Inactive)
REMARK    1  A    between atoms: O_1  and  C_8
REMARK    2  A    between atoms: C_2  and  C_3
REMARK    3  A    between atoms: C_2  and  C_4
REMARK    4  A    between atoms: C_3  and  C_5
REMARK    5  A    between atoms: C_4  and  C_6
REMARK    6  A    between atoms: C_5  and  C_7
REMARK    7  A    between atoms: C_6  and  C_8
REMARK    8  A    between atoms: C_7  and  C_9
REMARK                            x       y       z     vdW  Elec       q    Type
REMARK                         _______ _______ _______ _____ _____    ______ ____
ROOT
ATOM      1  C   UNL     1       3.537   8.651   1.862  0.00  0.00    +0.000 C 
ATOM      2  H   UNL     1       2.728   9.215   2.344  0.00  0.00    +0.000 HD
ATOM      3  H   UNL     1       3.198   7.610   1.793  0.00  0.00    +0.000 HD
ENDROOT
BRANCH   1   4
ATOM      4  C   UNL     1       3.753   9.199   0.448  0.00  0.00    +0.000 C 
ATOM      5  H   UNL     1       4.396   8.506  -0.111  0.00  0.00    +0.000 HD
ATOM      6  H   UNL     1       2.787   9.223  -0.073  0.00  0.00    +0.000 HD
BRANCH   4   7
ATOM      7  C   UNL     1       4.370  10.598   0.424  0.00  0.00    +0.000 C 
ATOM      8  H   UNL     1       5.300  10.580  -0.157  0.00  0.00    +0.000 HD
ATOM      9  H   UNL     1       4.633  10.898   1.446  0.00  0.00    +0.000 HD
BRANCH   7  10
ATOM     10  C   UNL     1       3.403  11.619  -0.176  0.00  0.00    +0.000 C 
ATOM     11  H   UNL     1       2.465  11.621   0.391  0.00  0.00    +0.000 HD
ATOM     12  H   UNL     1       3.829  12.626  -0.102  0.00  0.00    +0.000 HD
BRANCH  10  13
ATOM     13  C   UNL     1       3.104  11.313  -1.635  0.00  0.00    +0.000 C 
ATOM     14  H   UNL     1       3.233  12.204  -2.257  0.00  0.00    +0.000 HD
ATOM     15  H   UNL     1       2.078  10.953  -1.759  0.00  0.00    +0.000 HD
ATOM     16  H   UNL     1       3.783  10.539  -2.007  0.00  0.00    +0.000 HD
ENDBRANCH  10  13
ENDBRANCH   7  10
ENDBRANCH   4   7
ENDBRANCH   1   4
BRANCH   1  17
ATOM     17  C   UNL     1       4.792   8.711   2.736  0.00  0.00    +0.000 C 
ATOM     18  H   UNL     1       4.715   9.560   3.425  0.00  0.00    +0.000 HD
ATOM     19  H   UNL     1       5.672   8.884   2.105  0.00  0.00    +0.000 HD
BRANCH  17  20
ATOM     20  C   UNL     1       4.975   7.418   3.529  0.00  0.00    +0.000 C 
ATOM     21  H   UNL     1       5.798   6.829   3.106  0.00  0.00    +0.000 HD
ATOM     22  H   UNL     1       4.080   6.788   3.444  0.00  0.00    +0.000 HD
BRANCH  20  23
ATOM     23  C   UNL     1       5.252   7.696   5.000  0.00  0.00    +0.000 C 
ATOM     24  H   UNL     1       4.748   6.973   5.649  0.00  0.00    +0.000 HD
ATOM     25  H   UNL     1       6.326   7.663   5.211  0.00  0.00    +0.000 HD
BRANCH  23  26
ATOM     26  O   UNL     1       4.779   8.999   5.317  0.00  0.00    +0.000 OA
ATOM     27  H   UNL     1       4.375   8.957   6.200  0.00  0.00    +0.000 HD
ENDBRANCH  23  26
ENDBRANCH  20  23
ENDBRANCH  17  20
ENDBRANCH   1  17
TORSDOF 8
ENDMDL
MODEL 7
REMARK VINA RESULT:    -4.063     13.477     14.540
REMARK INTER + INTRA:          -6.000
REMARK INTER:                  -5.575
REMARK INTRA:                  -0.426
REMARK UNBOUND:                -0.275
REMARK  Name = 957
REMARK  8 active torsions:
REMARK  status: ('A' for Active; 'I' for Inactive)
REMARK    1  A    between atoms: O_1  and  C_8
REMARK    2  A    between atoms: C_2  and  C_3
REMARK    3  A    between atoms: C_2  and  C_4
REMARK    4  A    between atoms: C_3  and  C_5
REMARK    5  A    between atoms: C_4  and  C_6
REMARK    6  A    between atoms: C_5  and  C_7
REMARK    7  A    between atoms: C_6  and  C_8
REMARK    8  A    between atoms: C_7  and  C_9
REMARK                            x       y       z     vdW  Elec       q    Type
REMARK                         _______ _______ _______ _____ _____    ______ ____
ROOT
ATOM      1  C   UNL     1       7.406  10.665  -0.761  0.00  0.00    +0.000 C 
ATOM      2  H   UNL     1       7.840  11.490  -0.182  0.00  0.00    +0.000 HD
ATOM      3  H   UNL     1       7.942  10.634  -1.718  0.00  0.00    +0.000 HD
ENDROOT
BRANCH   1   4
ATOM      4  C   UNL     1       7.645   9.350  -0.013  0.00  0.00    +0.000 C 
ATOM      5  H   UNL     1       6.728   8.746  -0.046  0.00  0.00    +0.000 HD
ATOM      6  H   UNL     1       8.418   8.779  -0.542  0.00  0.00    +0.000 HD
BRANCH   4   7
ATOM      7  C   UNL     1       8.073   9.546   1.442  0.00  0.00    +0.000 C 
ATOM      8  H   UNL     1       7.965  10.602   1.718  0.00  0.00    +0.000 HD
ATOM      9  H   UNL     1       9.135   9.292   1.547  0.00  0.00    +0.000 HD
BRANCH   7  10
ATOM     10  C   UNL     1       7.243   8.675   2.385  0.00  0.00    +0.000 C 
ATOM     11  H   UNL     1       7.799   7.765   2.638  0.00  0.00    +0.000 HD
ATOM     12  H   UNL     1       7.056   9.213   3.322  0.00  0.00    +0.000 HD
BRANCH  10  13
ATOM     13  C   UNL     1       5.911   8.291   1.760  0.00  0.00    +0.000 C 
ATOM     14  H   UNL     1       5.094   8.399   2.480  0.00  0.00    +0.000 HD
ATOM     15  H   UNL     1       5.926   7.254   1.410  0.00  0.00    +0.000 HD
ATOM     16  H   UNL     1       5.694   8.936   0.903  0.00  0.00    +0.000 HD
ENDBRANCH  10  13
ENDBRANCH   7  10
ENDBRANCH   4   7
ENDBRANCH   1   4
BRANCH   1  17
ATOM     17  C   UNL     1       5.926  10.953  -1.027  0.00  0.00    +0.000 C 
ATOM     18  H   UNL     1       5.393  10.007  -1.176  0.00  0.00    +0.000 HD
ATOM     19  H   UNL     1       5.825  11.532  -1.953  0.00  0.00    +0.000 HD
BRANCH  17  20
ATOM     20  C   UNL     1       5.296  11.725   0.132  0.00  0.00    +0.000 C 
ATOM     21  H   UNL     1       5.667  12.756   0.144  0.00  0.00    +0.000 HD
ATOM     22  H   UNL     1       5.598  11.285   1.091  0.00  0.00    +0.000 HD
BRANCH  20  23
ATOM     23  C   UNL     1       3.776  11.731   0.041  0.00  0.00    +0.000 C 
ATOM     24  H   UNL     1       3.395  12.713  -0.257  0.00  0.00    +0.000 HD
ATOM     25  H   UNL     1       3.422  10.988  -0.680  0.00  0.00    +0.000 HD
BRANCH  23  26
ATOM     26  O   UNL     1       3.239  11.402   1.315  0.00  0.00    +0.000 OA
ATOM     27  H   UNL     1       3.309  10.439   1.423  0.00  0.00    +0.000 HD
ENDBRANCH  23  26
ENDBRANCH  20  23
ENDBRANCH  17  20
ENDBRANCH   1  17
TORSDOF 8
ENDMDL
MODEL 8
REMARK VINA RESULT:    -4.018     12.981     14.210
REMARK INTER + INTRA:          -5.937
REMARK INTER:                  -5.528
REMARK INTRA:                  -0.408
REMARK UNBOUND:                -0.275
REMARK  Name = 957
REMARK  8 active torsions:
REMARK  status: ('A' for Active; 'I' for Inactive)
REMARK    1  A    between atoms: O_1  and  C_8
REMARK    2  A    between atoms: C_2  and  C_3
REMARK    3  A    between atoms: C_2  and  C_4
REMARK    4  A    between atoms: C_3  and  C_5
REMARK    5  A    between atoms: C_4  and  C_6
REMARK    6  A    between atoms: C_5  and  C_7
REMARK    7  A    between atoms: C_6  and  C_8
REMARK    8  A    between atoms: C_7  and  C_9
REMARK                            x       y       z     vdW  Elec       q    Type
REMARK                         _______ _______ _______ _____ _____    ______ ____
ROOT
ATOM      1  C   UNL     1       4.576  11.500   0.111  0.00  0.00    +0.000 C 
ATOM      2  H   UNL     1       4.268  11.912   1.081  0.00  0.00    +0.000 HD
ATOM      3  H   UNL     1       4.169  12.168  -0.659  0.00  0.00    +0.000 HD
ENDROOT
BRANCH   1   4
ATOM      4  C   UNL     1       6.104  11.513   0.025  0.00  0.00    +0.000 C 
ATOM      5  H   UNL     1       6.470  12.518   0.275  0.00  0.00    +0.000 HD
ATOM      6  H   UNL     1       6.507  10.832   0.785  0.00  0.00    +0.000 HD
BRANCH   4   7
ATOM      7  C   UNL     1       6.640  11.104  -1.348  0.00  0.00    +0.000 C 
ATOM      8  H   UNL     1       6.658  11.978  -2.011  0.00  0.00    +0.000 HD
ATOM      9  H   UNL     1       5.962  10.370  -1.800  0.00  0.00    +0.000 HD
BRANCH   7  10
ATOM     10  C   UNL     1       8.043  10.507  -1.239  0.00  0.00    +0.000 C 
ATOM     11  H   UNL     1       8.234   9.845  -2.092  0.00  0.00    +0.000 HD
ATOM     12  H   UNL     1       8.793  11.306  -1.274  0.00  0.00    +0.000 HD
BRANCH  10  13
ATOM     13  C   UNL     1       8.215   9.721   0.051  0.00  0.00    +0.000 C 
ATOM     14  H   UNL     1       7.318   9.137   0.277  0.00  0.00    +0.000 HD
ATOM     15  H   UNL     1       8.412  10.390   0.896  0.00  0.00    +0.000 HD
ATOM     16  H   UNL     1       9.058   9.028  -0.036  0.00  0.00    +0.000 HD
ENDBRANCH  10  13
ENDBRANCH   7  10
ENDBRANCH   4   7
ENDBRANCH   1   4
BRANCH   1  17
ATOM     17  C   UNL     1       3.967  10.107  -0.066  0.00  0.00    +0.000 C 
ATOM     18  H   UNL     1       4.154   9.756  -1.088  0.00  0.00    +0.000 HD
ATOM     19  H   UNL     1       2.880  10.161   0.064  0.00  0.00    +0.000 HD
BRANCH  17  20
ATOM     20  C   UNL     1       4.556   9.115   0.936  0.00  0.00    +0.000 C 
ATOM     21  H   UNL     1       5.378   9.584   1.491  0.00  0.00    +0.000 HD
ATOM     22  H   UNL     1       4.998   8.259   0.410  0.00  0.00    +0.000 HD
BRANCH  20  23
ATOM     23  C   UNL     1       3.503   8.612   1.913  0.00  0.00    +0.000 C 
ATOM     24  H   UNL     1       2.625   8.218   1.391  0.00  0.00    +0.000 HD
ATOM     25  H   UNL     1       3.906   7.824   2.557  0.00  0.00    +0.000 HD
BRANCH  23  26
ATOM     26  O   UNL     1       3.092   9.693   2.741  0.00  0.00    +0.000 OA
ATOM     27  H   UNL     1       2.129   9.624   2.856  0.00  0.00    +0.000 HD
ENDBRANCH  23  26
ENDBRANCH  20  23
ENDBRANCH  17  20
ENDBRANCH   1  17
TORSDOF 8
ENDMDL
MODEL 9
REMARK VINA RESULT:    -3.980     13.402     14.588
REMARK INTER + INTRA:          -5.883
REMARK INTER:                  -5.419
REMARK INTRA:                  -0.464
REMARK UNBOUND:                -0.275
REMARK  Name = 957
REMARK  8 active torsions:
REMARK  status: ('A' for Active; 'I' for Inactive)
REMARK    1  A    between atoms: O_1  and  C_8
REMARK    2  A    between atoms: C_2  and  C_3
REMARK    3  A    between atoms: C_2  and  C_4
REMARK    4  A    between atoms: C_3  and  C_5
REMARK    5  A    between atoms: C_4  and  C_6
REMARK    6  A    between atoms: C_5  and  C_7
REMARK    7  A    between atoms: C_6  and  C_8
REMARK    8  A    between atoms: C_7  and  C_9
REMARK                            x       y       z     vdW  Elec       q    Type
REMARK                         _______ _______ _______ _____ _____    ______ ____
ROOT
ATOM      1  C   UNL     1       4.168   9.113   2.331  0.00  0.00    +0.000 C 
ATOM      2  H   UNL     1       3.178   9.191   2.798  0.00  0.00    +0.000 HD
ATOM      3  H   UNL     1       4.723  10.016   2.613  0.00  0.00    +0.000 HD
ENDROOT
BRANCH   1   4
ATOM      4  C   UNL     1       4.891   7.888   2.898  0.00  0.00    +0.000 C 
ATOM      5  H   UNL     1       5.007   8.009   3.983  0.00  0.00    +0.000 HD
ATOM      6  H   UNL     1       4.261   7.003   2.745  0.00  0.00    +0.000 HD
BRANCH   4   7
ATOM      7  C   UNL     1       6.262   7.642   2.264  0.00  0.00    +0.000 C 
ATOM      8  H   UNL     1       6.173   7.674   1.172  0.00  0.00    +0.000 HD
ATOM      9  H   UNL     1       6.612   6.637   2.531  0.00  0.00    +0.000 HD
BRANCH   7  10
ATOM     10  C   UNL     1       7.282   8.681   2.733  0.00  0.00    +0.000 C 
ATOM     11  H   UNL     1       6.796   9.408   3.393  0.00  0.00    +0.000 HD
ATOM     12  H   UNL     1       8.072   8.192   3.314  0.00  0.00    +0.000 HD
BRANCH  10  13
ATOM     13  C   UNL     1       7.910   9.413   1.558  0.00  0.00    +0.000 C 
ATOM     14  H   UNL     1       8.902   9.009   1.329  0.00  0.00    +0.000 HD
ATOM     15  H   UNL     1       8.015  10.482   1.771  0.00  0.00    +0.000 HD
ATOM     16  H   UNL     1       7.286   9.304   0.665  0.00  0.00    +0.000 HD
ENDBRANCH  10  13
ENDBRANCH   7  10
ENDBRANCH   4   7
ENDBRANCH   1   4
BRANCH   1  17
ATOM     17  C   UNL     1       4.013   9.078   0.809  0.00  0.00    +0.000 C 
ATOM     18  H   UNL     1       2.950   9.002   0.553  0.00  0.00    +0.000 HD
ATOM     19  H   UNL     1       4.508   8.185   0.409  0.00  0.00    +0.000 HD
BRANCH  17  20
ATOM     20  C   UNL     1       4.611  10.328   0.164  0.00  0.00    +0.000 C 
ATOM     21  H   UNL     1       5.350  10.043  -0.595  0.00  0.00    +0.000 HD
ATOM     22  H   UNL     1       5.158  10.917   0.910  0.00  0.00    +0.000 HD
BRANCH  20  23
ATOM     23  C   UNL     1       3.537  11.199  -0.473  0.00  0.00    +0.000 C 
ATOM     24  H   UNL     1       3.972  11.959  -1.129  0.00  0.00    +0.000 HD
ATOM     25  H   UNL     1       2.836  10.595  -1.058  0.00  0.00    +0.000 HD
BRANCH  23  26
ATOM     26  O   UNL     1       2.806  11.852   0.557  0.00  0.00    +0.000 OA
ATOM     27  H   UNL     1       1.946  11.406   0.634  0.00  0.00    +0.000 HD
ENDBRANCH  23  26
ENDBRANCH  20  23
ENDBRANCH  17  20
ENDBRANCH   1  17
TORSDOF 8
ENDMDL
MODEL 10
REMARK VINA RESULT:    -3.905     14.449     15.371
REMARK INTER + INTRA:          -5.778
REMARK INTER:                  -5.503
REMARK INTRA:                  -0.275
REMARK UNBOUND:                -0.275
REMARK  Name = 957
REMARK  8 active torsions:
REMARK  status: ('A' for Active; 'I' for Inactive)
REMARK    1  A    between atoms: O_1  and  C_8
REMARK    2  A    between atoms: C_2  and  C_3
REMARK    3  A    between atoms: C_2  and  C_4
REMARK    4  A    between atoms: C_3  and  C_5
REMARK    5  A    between atoms: C_4  and  C_6
REMARK    6  A    between atoms: C_5  and  C_7
REMARK    7  A    between atoms: C_6  and  C_8
REMARK    8  A    between atoms: C_7  and  C_9
REMARK                            x       y       z     vdW  Elec       q    Type
REMARK                         _______ _______ _______ _____ _____    ______ ____
ROOT
ATOM      1  C   UNL     1       7.791   9.324   1.362  0.00  0.00    +0.000 C 
ATOM      2  H   UNL     1       7.947  10.399   1.519  0.00  0.00    +0.000 HD
ATOM      3  H   UNL     1       8.764   8.902   1.081  0.00  0.00    +0.000 HD
ENDROOT
BRANCH   1   4
ATOM      4  C   UNL     1       7.334   8.688   2.678  0.00  0.00    +0.000 C 
ATOM      5  H   UNL     1       8.210   8.296   3.211  0.00  0.00    +0.000 HD
ATOM      6  H   UNL     1       6.900   9.468   3.315  0.00  0.00    +0.000 HD
BRANCH   4   7
ATOM      7  C   UNL     1       6.310   7.567   2.489  0.00  0.00    +0.000 C 
ATOM      8  H   UNL     1       6.788   6.712   1.995  0.00  0.00    +0.000 HD
ATOM      9  H   UNL     1       5.507   7.914   1.828  0.00  0.00    +0.000 HD
BRANCH   7  10
ATOM     10  C   UNL     1       5.718   7.128   3.828  0.00  0.00    +0.000 C 
ATOM     11  H   UNL     1       4.934   6.379   3.661  0.00  0.00    +0.000 HD
ATOM     12  H   UNL     1       6.493   6.655   4.443  0.00  0.00    +0.000 HD
BRANCH  10  13
ATOM     13  C   UNL     1       5.130   8.305   4.590  0.00  0.00    +0.000 C 
ATOM     14  H   UNL     1       4.036   8.255   4.608  0.00  0.00    +0.000 HD
ATOM     15  H   UNL     1       5.423   9.255   4.132  0.00  0.00    +0.000 HD
ATOM     16  H   UNL     1       5.486   8.303   5.625  0.00  0.00    +0.000 HD
ENDBRANCH  10  13
ENDBRANCH   7  10
ENDBRANCH   4   7
ENDBRANCH   1   4
BRANCH   1  17
ATOM     17  C   UNL     1       6.806   9.115   0.210  0.00  0.00    +0.000 C 
ATOM     18  H   UNL     1       6.405  10.085  -0.107  0.00  0.00    +0.000 HD
ATOM     19  H   UNL     1       5.958   8.511   0.555  0.00  0.00    +0.000 HD
BRANCH  17  20
ATOM     20  C   UNL     1       7.479   8.423  -0.975  0.00  0.00    +0.000 C 
ATOM     21  H   UNL     1       6.847   8.504  -1.868  0.00  0.00    +0.000 HD
ATOM     22  H   UNL     1       7.586   7.348  -0.779  0.00  0.00    +0.000 HD
BRANCH  20  23
ATOM     23  C   UNL     1       8.850   9.017  -1.266  0.00  0.00    +0.000 C 
ATOM     24  H   UNL     1       8.815   9.721  -2.104  0.00  0.00    +0.000 HD
ATOM     25  H   UNL     1       9.247   9.539  -0.390  0.00  0.00    +0.000 HD
BRANCH  23  26
ATOM     26  O   UNL     1       9.746   7.964  -1.596  0.00  0.00    +0.000 OA
ATOM     27  H   UNL     1      10.648   8.280  -1.421  0.00  0.00    +0.000 HD
ENDBRANCH  23  26
ENDBRANCH  20  23
ENDBRANCH  17  20
ENDBRANCH   1  17
TORSDOF 8
ENDMDL
