MODEL 1
REMARK VINA RESULT:    -3.571      0.000      0.000
REMARK INTER + INTRA:          -4.420
REMARK INTER:                  -4.385
REMARK INTRA:                  -0.035
REMARK UNBOUND:                -0.014
REMARK  Name = 6276
REMARK  5 active torsions:
REMARK  status: ('A' for Active; 'I' for Inactive)
REMARK    1  A    between atoms: O_1  and  C_5
REMARK    2  A    between atoms: C_2  and  C_3
REMARK    3  A    between atoms: C_2  and  C_4
REMARK    4  A    between atoms: C_3  and  C_5
REMARK    5  A    between atoms: C_4  and  C_6
REMARK                            x       y       z     vdW  Elec       q    Type
REMARK                         _______ _______ _______ _____ _____    ______ ____
ROOT
ATOM      1  C   UNL     1      -2.841   8.608  -8.778  0.00  0.00    +0.000 C 
ATOM      2  H   UNL     1      -3.556   8.726  -7.955  0.00  0.00    +0.000 HD
ATOM      3  H   UNL     1      -1.840   8.554  -8.331  0.00  0.00    +0.000 HD
ENDROOT
BRANCH   1   4
ATOM      4  C   UNL     1      -2.920   9.818  -9.705  0.00  0.00    +0.000 C 
ATOM      5  H   UNL     1      -2.878  10.747  -9.123  0.00  0.00    +0.000 HD
ATOM      6  H   UNL     1      -3.888   9.833 -10.222  0.00  0.00    +0.000 HD
BRANCH   4   7
ATOM      7  C   UNL     1      -1.798   9.813 -10.734  0.00  0.00    +0.000 C 
ATOM      8  H   UNL     1      -2.006  10.501 -11.561  0.00  0.00    +0.000 HD
ATOM      9  H   UNL     1      -1.649   8.811 -11.147  0.00  0.00    +0.000 HD
BRANCH   7  10
ATOM     10  O   UNL     1      -0.593  10.217 -10.101  0.00  0.00    +0.000 OA
ATOM     11  H   UNL     1      -0.248   9.452  -9.609  0.00  0.00    +0.000 HD
ENDBRANCH   7  10
ENDBRANCH   4   7
ENDBRANCH   1   4
BRANCH   1  12
ATOM     12  C   UNL     1      -3.132   7.310  -9.531  0.00  0.00    +0.000 C 
ATOM     13  H   UNL     1      -3.443   7.538 -10.557  0.00  0.00    +0.000 HD
ATOM     14  H   UNL     1      -2.222   6.703  -9.595  0.00  0.00    +0.000 HD
BRANCH  12  15
ATOM     15  C   UNL     1      -4.221   6.501  -8.845  0.00  0.00    +0.000 C 
ATOM     16  H   UNL     1      -4.949   7.155  -8.357  0.00  0.00    +0.000 HD
ATOM     17  H   UNL     1      -4.754   5.871  -9.565  0.00  0.00    +0.000 HD
ATOM     18  H   UNL     1      -3.784   5.848  -8.082  0.00  0.00    +0.000 HD
ENDBRANCH  12  15
ENDBRANCH   1  12
TORSDOF 5
ENDMDL
MODEL 2
REMARK VINA RESULT:    -3.529     28.449     29.139
REMARK INTER + INTRA:          -4.368
REMARK INTER:                  -4.302
REMARK INTRA:                  -0.066
REMARK UNBOUND:                -0.014
REMARK  Name = 6276
REMARK  5 active torsions:
REMARK  status: ('A' for Active; 'I' for Inactive)
REMARK    1  A    between atoms: O_1  and  C_5
REMARK    2  A    between atoms: C_2  and  C_3
REMARK    3  A    between atoms: C_2  and  C_4
REMARK    4  A    between atoms: C_3  and  C_5
REMARK    5  A    between atoms: C_4  and  C_6
REMARK                            x       y       z     vdW  Elec       q    Type
REMARK                         _______ _______ _______ _____ _____    ______ ____
ROOT
ATOM      1  C   UNL     1      -9.896   8.100  18.747  0.00  0.00    +0.000 C 
ATOM      2  H   UNL     1      -8.937   7.568  18.729  0.00  0.00    +0.000 HD
ATOM      3  H   UNL     1     -10.661   7.401  18.386  0.00  0.00    +0.000 HD
ENDROOT
BRANCH   1   4
ATOM      4  C   UNL     1      -9.830   9.308  17.815  0.00  0.00    +0.000 C 
ATOM      5  H   UNL     1     -10.165  10.212  18.339  0.00  0.00    +0.000 HD
ATOM      6  H   UNL     1     -10.524   9.175  16.976  0.00  0.00    +0.000 HD
BRANCH   4   7
ATOM      7  C   UNL     1      -8.423   9.527  17.277  0.00  0.00    +0.000 C 
ATOM      8  H   UNL     1      -7.928  10.369  17.772  0.00  0.00    +0.000 HD
ATOM      9  H   UNL     1      -8.441   9.720  16.200  0.00  0.00    +0.000 HD
BRANCH   7  10
ATOM     10  O   UNL     1      -7.656   8.354  17.505  0.00  0.00    +0.000 OA
ATOM     11  H   UNL     1      -6.973   8.310  16.814  0.00  0.00    +0.000 HD
ENDBRANCH   7  10
ENDBRANCH   4   7
ENDBRANCH   1   4
BRANCH   1  12
ATOM     12  C   UNL     1     -10.225   8.520  20.179  0.00  0.00    +0.000 C 
ATOM     13  H   UNL     1     -10.657   7.673  20.725  0.00  0.00    +0.000 HD
ATOM     14  H   UNL     1      -9.307   8.809  20.703  0.00  0.00    +0.000 HD
BRANCH  12  15
ATOM     15  C   UNL     1     -11.201   9.685  20.207  0.00  0.00    +0.000 C 
ATOM     16  H   UNL     1     -11.057  10.297  21.103  0.00  0.00    +0.000 HD
ATOM     17  H   UNL     1     -11.072  10.327  19.329  0.00  0.00    +0.000 HD
ATOM     18  H   UNL     1     -12.232   9.316  20.209  0.00  0.00    +0.000 HD
ENDBRANCH  12  15
ENDBRANCH   1  12
TORSDOF 5
ENDMDL
MODEL 3
REMARK VINA RESULT:    -3.513     25.397     26.137
REMARK INTER + INTRA:          -4.349
REMARK INTER:                  -4.339
REMARK INTRA:                  -0.010
REMARK UNBOUND:                -0.014
REMARK  Name = 6276
REMARK  5 active torsions:
REMARK  status: ('A' for Active; 'I' for Inactive)
REMARK    1  A    between atoms: O_1  and  C_5
REMARK    2  A    between atoms: C_2  and  C_3
REMARK    3  A    between atoms: C_2  and  C_4
REMARK    4  A    between atoms: C_3  and  C_5
REMARK    5  A    between atoms: C_4  and  C_6
REMARK                            x       y       z     vdW  Elec       q    Type
REMARK                         _______ _______ _______ _____ _____    ______ ____
ROOT
ATOM      1  C   UNL     1     -20.606  -2.623   4.986  0.00  0.00    +0.000 C 
ATOM      2  H   UNL     1     -21.502  -2.550   4.358  0.00  0.00    +0.000 HD
ATOM      3  H   UNL     1     -19.744  -2.389   4.348  0.00  0.00    +0.000 HD
ENDROOT
BRANCH   1   4
ATOM      4  C   UNL     1     -20.471  -4.046   5.523  0.00  0.00    +0.000 C 
ATOM      5  H   UNL     1     -21.438  -4.561   5.486  0.00  0.00    +0.000 HD
ATOM      6  H   UNL     1     -20.185  -4.023   6.582  0.00  0.00    +0.000 HD
BRANCH   4   7
ATOM      7  C   UNL     1     -19.440  -4.847   4.740  0.00  0.00    +0.000 C 
ATOM      8  H   UNL     1     -18.813  -4.199   4.118  0.00  0.00    +0.000 HD
ATOM      9  H   UNL     1     -19.925  -5.584   4.092  0.00  0.00    +0.000 HD
BRANCH   7  10
ATOM     10  O   UNL     1     -18.606  -5.541   5.655  0.00  0.00    +0.000 OA
ATOM     11  H   UNL     1     -18.953  -5.383   6.549  0.00  0.00    +0.000 HD
ENDBRANCH   7  10
ENDBRANCH   4   7
ENDBRANCH   1   4
BRANCH   1  12
ATOM     12  C   UNL     1     -20.690  -1.605   6.123  0.00  0.00    +0.000 C 
ATOM     13  H   UNL     1     -21.689  -1.632   6.573  0.00  0.00    +0.000 HD
ATOM     14  H   UNL     1     -19.973  -1.865   6.910  0.00  0.00    +0.000 HD
BRANCH  12  15
ATOM     15  C   UNL     1     -20.399  -0.196   5.632  0.00  0.00    +0.000 C 
ATOM     16  H   UNL     1     -20.834  -0.027   4.642  0.00  0.00    +0.000 HD
ATOM     17  H   UNL     1     -20.809   0.551   6.319  0.00  0.00    +0.000 HD
ATOM     18  H   UNL     1     -19.319  -0.035   5.560  0.00  0.00    +0.000 HD
ENDBRANCH  12  15
ENDBRANCH   1  12
TORSDOF 5
ENDMDL
MODEL 4
REMARK VINA RESULT:    -3.256     26.403     26.881
REMARK INTER + INTRA:          -4.031
REMARK INTER:                  -4.017
REMARK INTRA:                  -0.014
REMARK UNBOUND:                -0.014
REMARK  Name = 6276
REMARK  5 active torsions:
REMARK  status: ('A' for Active; 'I' for Inactive)
REMARK    1  A    between atoms: O_1  and  C_5
REMARK    2  A    between atoms: C_2  and  C_3
REMARK    3  A    between atoms: C_2  and  C_4
REMARK    4  A    between atoms: C_3  and  C_5
REMARK    5  A    between atoms: C_4  and  C_6
REMARK                            x       y       z     vdW  Elec       q    Type
REMARK                         _______ _______ _______ _____ _____    ______ ____
ROOT
ATOM      1  C   UNL     1     -20.719  -1.792   5.762  0.00  0.00    +0.000 C 
ATOM      2  H   UNL     1     -19.969  -1.540   5.003  0.00  0.00    +0.000 HD
ATOM      3  H   UNL     1     -21.701  -1.532   5.347  0.00  0.00    +0.000 HD
ENDROOT
BRANCH   1   4
ATOM      4  C   UNL     1     -20.466  -0.972   7.025  0.00  0.00    +0.000 C 
ATOM      5  H   UNL     1     -20.392   0.094   6.778  0.00  0.00    +0.000 HD
ATOM      6  H   UNL     1     -19.498  -1.245   7.464  0.00  0.00    +0.000 HD
BRANCH   4   7
ATOM      7  C   UNL     1     -21.565  -1.178   8.058  0.00  0.00    +0.000 C 
ATOM      8  H   UNL     1     -21.299  -1.957   8.781  0.00  0.00    +0.000 HD
ATOM      9  H   UNL     1     -22.508  -1.458   7.578  0.00  0.00    +0.000 HD
BRANCH   7  10
ATOM     10  O   UNL     1     -21.770   0.040   8.760  0.00  0.00    +0.000 OA
ATOM     11  H   UNL     1     -22.330   0.609   8.205  0.00  0.00    +0.000 HD
ENDBRANCH   7  10
ENDBRANCH   4   7
ENDBRANCH   1   4
BRANCH   1  12
ATOM     12  C   UNL     1     -20.671  -3.292   6.054  0.00  0.00    +0.000 C 
ATOM     13  H   UNL     1     -19.950  -3.492   6.855  0.00  0.00    +0.000 HD
ATOM     14  H   UNL     1     -21.650  -3.634   6.407  0.00  0.00    +0.000 HD
BRANCH  12  15
ATOM     15  C   UNL     1     -20.282  -4.088   4.819  0.00  0.00    +0.000 C 
ATOM     16  H   UNL     1     -21.086  -4.768   4.520  0.00  0.00    +0.000 HD
ATOM     17  H   UNL     1     -20.065  -3.423   3.976  0.00  0.00    +0.000 HD
ATOM     18  H   UNL     1     -19.388  -4.686   5.019  0.00  0.00    +0.000 HD
ENDBRANCH  12  15
ENDBRANCH   1  12
TORSDOF 5
ENDMDL
MODEL 5
REMARK VINA RESULT:    -3.231     11.927     12.542
REMARK INTER + INTRA:          -4.000
REMARK INTER:                  -3.896
REMARK INTRA:                  -0.105
REMARK UNBOUND:                -0.014
REMARK  Name = 6276
REMARK  5 active torsions:
REMARK  status: ('A' for Active; 'I' for Inactive)
REMARK    1  A    between atoms: O_1  and  C_5
REMARK    2  A    between atoms: C_2  and  C_3
REMARK    3  A    between atoms: C_2  and  C_4
REMARK    4  A    between atoms: C_3  and  C_5
REMARK    5  A    between atoms: C_4  and  C_6
REMARK                            x       y       z     vdW  Elec       q    Type
REMARK                         _______ _______ _______ _____ _____    ______ ____
ROOT
ATOM      1  C   UNL     1       5.532  11.835   0.132  0.00  0.00    +0.000 C 
ATOM      2  H   UNL     1       5.757  12.404  -0.778  0.00  0.00    +0.000 HD
ATOM      3  H   UNL     1       5.852  12.448   0.984  0.00  0.00    +0.000 HD
ENDROOT
BRANCH   1   4
ATOM      4  C   UNL     1       6.316  10.525   0.124  0.00  0.00    +0.000 C 
ATOM      5  H   UNL     1       5.630   9.670   0.169  0.00  0.00    +0.000 HD
ATOM      6  H   UNL     1       6.941  10.454   1.023  0.00  0.00    +0.000 HD
BRANCH   4   7
ATOM      7  C   UNL     1       7.196  10.403  -1.112  0.00  0.00    +0.000 C 
ATOM      8  H   UNL     1       7.054   9.441  -1.616  0.00  0.00    +0.000 HD
ATOM      9  H   UNL     1       8.254  10.505  -0.853  0.00  0.00    +0.000 HD
BRANCH   7  10
ATOM     10  O   UNL     1       6.860  11.442  -2.020  0.00  0.00    +0.000 OA
ATOM     11  H   UNL     1       7.585  12.090  -2.008  0.00  0.00    +0.000 HD
ENDBRANCH   7  10
ENDBRANCH   4   7
ENDBRANCH   1   4
BRANCH   1  12
ATOM     12  C   UNL     1       4.028  11.582   0.222  0.00  0.00    +0.000 C 
ATOM     13  H   UNL     1       3.832  10.745   0.901  0.00  0.00    +0.000 HD
ATOM     14  H   UNL     1       3.526  12.462   0.639  0.00  0.00    +0.000 HD
BRANCH  12  15
ATOM     15  C   UNL     1       3.433  11.272  -1.142  0.00  0.00    +0.000 C 
ATOM     16  H   UNL     1       4.218  11.056  -1.874  0.00  0.00    +0.000 HD
ATOM     17  H   UNL     1       2.765  10.406  -1.091  0.00  0.00    +0.000 HD
ATOM     18  H   UNL     1       2.853  12.126  -1.506  0.00  0.00    +0.000 HD
ENDBRANCH  12  15
ENDBRANCH   1  12
TORSDOF 5
ENDMDL
MODEL 6
REMARK VINA RESULT:    -3.213      8.112      8.652
REMARK INTER + INTRA:          -3.978
REMARK INTER:                  -3.935
REMARK INTRA:                  -0.043
REMARK UNBOUND:                -0.014
REMARK  Name = 6276
REMARK  5 active torsions:
REMARK  status: ('A' for Active; 'I' for Inactive)
REMARK    1  A    between atoms: O_1  and  C_5
REMARK    2  A    between atoms: C_2  and  C_3
REMARK    3  A    between atoms: C_2  and  C_4
REMARK    4  A    between atoms: C_3  and  C_5
REMARK    5  A    between atoms: C_4  and  C_6
REMARK                            x       y       z     vdW  Elec       q    Type
REMARK                         _______ _______ _______ _____ _____    ______ ____
ROOT
ATOM      1  C   UNL     1      -9.123   3.307  -5.123  0.00  0.00    +0.000 C 
ATOM      2  H   UNL     1     -10.047   3.374  -4.538  0.00  0.00    +0.000 HD
ATOM      3  H   UNL     1      -8.704   2.306  -4.954  0.00  0.00    +0.000 HD
ENDROOT
BRANCH   1   4
ATOM      4  C   UNL     1      -8.130   4.362  -4.639  0.00  0.00    +0.000 C 
ATOM      5  H   UNL     1      -7.124   4.139  -5.015  0.00  0.00    +0.000 HD
ATOM      6  H   UNL     1      -8.054   4.333  -3.545  0.00  0.00    +0.000 HD
BRANCH   4   7
ATOM      7  C   UNL     1      -8.537   5.760  -5.080  0.00  0.00    +0.000 C 
ATOM      8  H   UNL     1      -9.544   6.016  -4.733  0.00  0.00    +0.000 HD
ATOM      9  H   UNL     1      -8.513   5.851  -6.171  0.00  0.00    +0.000 HD
BRANCH   7  10
ATOM     10  O   UNL     1      -7.619   6.698  -4.538  0.00  0.00    +0.000 OA
ATOM     11  H   UNL     1      -7.025   6.978  -5.255  0.00  0.00    +0.000 HD
ENDBRANCH   7  10
ENDBRANCH   4   7
ENDBRANCH   1   4
BRANCH   1  12
ATOM     12  C   UNL     1      -9.440   3.482  -6.608  0.00  0.00    +0.000 C 
ATOM     13  H   UNL     1     -10.496   3.254  -6.792  0.00  0.00    +0.000 HD
ATOM     14  H   UNL     1      -9.277   4.525  -6.904  0.00  0.00    +0.000 HD
BRANCH  12  15
ATOM     15  C   UNL     1      -8.574   2.580  -7.473  0.00  0.00    +0.000 C 
ATOM     16  H   UNL     1      -7.596   2.413  -7.011  0.00  0.00    +0.000 HD
ATOM     17  H   UNL     1      -9.052   1.607  -7.626  0.00  0.00    +0.000 HD
ATOM     18  H   UNL     1      -8.412   3.037  -8.454  0.00  0.00    +0.000 HD
ENDBRANCH  12  15
ENDBRANCH   1  12
TORSDOF 5
ENDMDL
MODEL 7
REMARK VINA RESULT:    -3.196     11.729     12.416
REMARK INTER + INTRA:          -3.957
REMARK INTER:                  -3.883
REMARK INTRA:                  -0.073
REMARK UNBOUND:                -0.014
REMARK  Name = 6276
REMARK  5 active torsions:
REMARK  status: ('A' for Active; 'I' for Inactive)
REMARK    1  A    between atoms: O_1  and  C_5
REMARK    2  A    between atoms: C_2  and  C_3
REMARK    3  A    between atoms: C_2  and  C_4
REMARK    4  A    between atoms: C_3  and  C_5
REMARK    5  A    between atoms: C_4  and  C_6
REMARK                            x       y       z     vdW  Elec       q    Type
REMARK                         _______ _______ _______ _____ _____    ______ ____
ROOT
ATOM      1  C   UNL     1       4.611   9.851   0.000  0.00  0.00    +0.000 C 
ATOM      2  H   UNL     1       4.280   8.847  -0.287  0.00  0.00    +0.000 HD
ATOM      3  H   UNL     1       4.290  10.014   1.037  0.00  0.00    +0.000 HD
ENDROOT
BRANCH   1   4
ATOM      4  C   UNL     1       3.950  10.888  -0.905  0.00  0.00    +0.000 C 
ATOM      5  H   UNL     1       3.282  10.396  -1.623  0.00  0.00    +0.000 HD
ATOM      6  H   UNL     1       4.711  11.401  -1.508  0.00  0.00    +0.000 HD
BRANCH   4   7
ATOM      7  C   UNL     1       3.164  11.916  -0.104  0.00  0.00    +0.000 C 
ATOM      8  H   UNL     1       2.121  11.972  -0.433  0.00  0.00    +0.000 HD
ATOM      9  H   UNL     1       3.610  12.911  -0.196  0.00  0.00    +0.000 HD
BRANCH   7  10
ATOM     10  O   UNL     1       3.186  11.544   1.267  0.00  0.00    +0.000 OA
ATOM     11  H   UNL     1       3.606  10.669   1.328  0.00  0.00    +0.000 HD
ENDBRANCH   7  10
ENDBRANCH   4   7
ENDBRANCH   1   4
BRANCH   1  12
ATOM     12  C   UNL     1       6.135   9.933  -0.080  0.00  0.00    +0.000 C 
ATOM     13  H   UNL     1       6.543  10.234   0.891  0.00  0.00    +0.000 HD
ATOM     14  H   UNL     1       6.550   8.947  -0.315  0.00  0.00    +0.000 HD
BRANCH  12  15
ATOM     15  C   UNL     1       6.584  10.926  -1.141  0.00  0.00    +0.000 C 
ATOM     16  H   UNL     1       6.949  10.409  -2.034  0.00  0.00    +0.000 HD
ATOM     17  H   UNL     1       5.760  11.583  -1.438  0.00  0.00    +0.000 HD
ATOM     18  H   UNL     1       7.395  11.552  -0.755  0.00  0.00    +0.000 HD
ENDBRANCH  12  15
ENDBRANCH   1  12
TORSDOF 5
ENDMDL
MODEL 8
REMARK VINA RESULT:    -3.132     25.741     26.112
REMARK INTER + INTRA:          -3.878
REMARK INTER:                  -3.836
REMARK INTRA:                  -0.042
REMARK UNBOUND:                -0.014
REMARK  Name = 6276
REMARK  5 active torsions:
REMARK  status: ('A' for Active; 'I' for Inactive)
REMARK    1  A    between atoms: O_1  and  C_5
REMARK    2  A    between atoms: C_2  and  C_3
REMARK    3  A    between atoms: C_2  and  C_4
REMARK    4  A    between atoms: C_3  and  C_5
REMARK    5  A    between atoms: C_4  and  C_6
REMARK                            x       y       z     vdW  Elec       q    Type
REMARK                         _______ _______ _______ _____ _____    ______ ____
ROOT
ATOM      1  C   UNL     1     -20.556  -4.250   3.070  0.00  0.00    +0.000 C 
ATOM      2  H   UNL     1     -19.693  -4.210   2.396  0.00  0.00    +0.000 HD
ATOM      3  H   UNL     1     -21.027  -3.258   3.052  0.00  0.00    +0.000 HD
ENDROOT
BRANCH   1   4
ATOM      4  C   UNL     1     -20.086  -4.564   4.488  0.00  0.00    +0.000 C 
ATOM      5  H   UNL     1     -20.897  -5.026   5.065  0.00  0.00    +0.000 HD
ATOM      6  H   UNL     1     -19.835  -3.636   5.016  0.00  0.00    +0.000 HD
BRANCH   4   7
ATOM      7  C   UNL     1     -18.876  -5.488   4.488  0.00  0.00    +0.000 C 
ATOM      8  H   UNL     1     -18.055  -5.076   3.891  0.00  0.00    +0.000 HD
ATOM      9  H   UNL     1     -19.135  -6.473   4.088  0.00  0.00    +0.000 HD
BRANCH   7  10
ATOM     10  O   UNL     1     -18.425  -5.655   5.824  0.00  0.00    +0.000 OA
ATOM     11  H   UNL     1     -18.730  -4.886   6.336  0.00  0.00    +0.000 HD
ENDBRANCH   7  10
ENDBRANCH   4   7
ENDBRANCH   1   4
BRANCH   1  12
ATOM     12  C   UNL     1     -21.552  -5.296   2.570  0.00  0.00    +0.000 C 
ATOM     13  H   UNL     1     -21.753  -6.026   3.362  0.00  0.00    +0.000 HD
ATOM     14  H   UNL     1     -22.505  -4.815   2.322  0.00  0.00    +0.000 HD
BRANCH  12  15
ATOM     15  C   UNL     1     -21.028  -6.021   1.341  0.00  0.00    +0.000 C 
ATOM     16  H   UNL     1     -21.842  -6.264   0.651  0.00  0.00    +0.000 HD
ATOM     17  H   UNL     1     -20.296  -5.407   0.806  0.00  0.00    +0.000 HD
ATOM     18  H   UNL     1     -20.539  -6.956   1.633  0.00  0.00    +0.000 HD
ENDBRANCH  12  15
ENDBRANCH   1  12
TORSDOF 5
ENDMDL
MODEL 9
REMARK VINA RESULT:    -3.112     19.369     19.777
REMARK INTER + INTRA:          -3.853
REMARK INTER:                  -3.782
REMARK INTRA:                  -0.072
REMARK UNBOUND:                -0.014
REMARK  Name = 6276
REMARK  5 active torsions:
REMARK  status: ('A' for Active; 'I' for Inactive)
REMARK    1  A    between atoms: O_1  and  C_5
REMARK    2  A    between atoms: C_2  and  C_3
REMARK    3  A    between atoms: C_2  and  C_4
REMARK    4  A    between atoms: C_3  and  C_5
REMARK    5  A    between atoms: C_4  and  C_6
REMARK                            x       y       z     vdW  Elec       q    Type
REMARK                         _______ _______ _______ _____ _____    ______ ____
ROOT
ATOM      1  C   UNL     1      15.757   6.399  -0.803  0.00  0.00    +0.000 C 
ATOM      2  H   UNL     1      16.247   7.373  -0.909  0.00  0.00    +0.000 HD
ATOM      3  H   UNL     1      16.414   5.771  -0.188  0.00  0.00    +0.000 HD
ENDROOT
BRANCH   1   4
ATOM      4  C   UNL     1      15.583   5.759  -2.178  0.00  0.00    +0.000 C 
ATOM      5  H   UNL     1      16.562   5.559  -2.632  0.00  0.00    +0.000 HD
ATOM      6  H   UNL     1      15.076   6.456  -2.857  0.00  0.00    +0.000 HD
BRANCH   4   7
ATOM      7  C   UNL     1      14.788   4.463  -2.100  0.00  0.00    +0.000 C 
ATOM      8  H   UNL     1      14.451   4.258  -1.078  0.00  0.00    +0.000 HD
ATOM      9  H   UNL     1      15.386   3.614  -2.444  0.00  0.00    +0.000 HD
BRANCH   7  10
ATOM     10  O   UNL     1      13.647   4.572  -2.939  0.00  0.00    +0.000 OA
ATOM     11  H   UNL     1      13.710   5.419  -3.413  0.00  0.00    +0.000 HD
ENDBRANCH   7  10
ENDBRANCH   4   7
ENDBRANCH   1   4
BRANCH   1  12
ATOM     12  C   UNL     1      14.413   6.573  -0.097  0.00  0.00    +0.000 C 
ATOM     13  H   UNL     1      14.072   7.610  -0.196  0.00  0.00    +0.000 HD
ATOM     14  H   UNL     1      13.657   5.937  -0.572  0.00  0.00    +0.000 HD
BRANCH  12  15
ATOM     15  C   UNL     1      14.508   6.215   1.377  0.00  0.00    +0.000 C 
ATOM     16  H   UNL     1      13.840   5.384   1.624  0.00  0.00    +0.000 HD
ATOM     17  H   UNL     1      15.529   5.926   1.646  0.00  0.00    +0.000 HD
ATOM     18  H   UNL     1      14.224   7.074   1.995  0.00  0.00    +0.000 HD
ENDBRANCH  12  15
ENDBRANCH   1  12
TORSDOF 5
ENDMDL
MODEL 10
REMARK VINA RESULT:    -3.049     25.669     27.325
REMARK INTER + INTRA:          -3.776
REMARK INTER:                  -3.741
REMARK INTRA:                  -0.034
REMARK UNBOUND:                -0.014
REMARK  Name = 6276
REMARK  5 active torsions:
REMARK  status: ('A' for Active; 'I' for Inactive)
REMARK    1  A    between atoms: O_1  and  C_5
REMARK    2  A    between atoms: C_2  and  C_3
REMARK    3  A    between atoms: C_2  and  C_4
REMARK    4  A    between atoms: C_3  and  C_5
REMARK    5  A    between atoms: C_4  and  C_6
REMARK                            x       y       z     vdW  Elec       q    Type
REMARK                         _______ _______ _______ _____ _____    ______ ____
ROOT
ATOM      1  C   UNL     1     -21.978  -1.733   6.339  0.00  0.00    +0.000 C 
ATOM      2  H   UNL     1     -22.851  -1.075   6.256  0.00  0.00    +0.000 HD
ATOM      3  H   UNL     1     -22.335  -2.762   6.203  0.00  0.00    +0.000 HD
ENDROOT
BRANCH   1   4
ATOM      4  C   UNL     1     -21.356  -1.589   7.726  0.00  0.00    +0.000 C 
ATOM      5  H   UNL     1     -20.653  -0.747   7.742  0.00  0.00    +0.000 HD
ATOM      6  H   UNL     1     -20.762  -2.479   7.967  0.00  0.00    +0.000 HD
BRANCH   4   7
ATOM      7  C   UNL     1     -22.416  -1.383   8.799  0.00  0.00    +0.000 C 
ATOM      8  H   UNL     1     -22.209  -1.984   9.691  0.00  0.00    +0.000 HD
ATOM      9  H   UNL     1     -23.410  -1.649   8.425  0.00  0.00    +0.000 HD
BRANCH   7  10
ATOM     10  O   UNL     1     -22.433  -0.012   9.170  0.00  0.00    +0.000 OA
ATOM     11  H   UNL     1     -22.067   0.499   8.429  0.00  0.00    +0.000 HD
ENDBRANCH   7  10
ENDBRANCH   4   7
ENDBRANCH   1   4
BRANCH   1  12
ATOM     12  C   UNL     1     -20.972  -1.395   5.240  0.00  0.00    +0.000 C 
ATOM     13  H   UNL     1     -20.187  -2.160   5.206  0.00  0.00    +0.000 HD
ATOM     14  H   UNL     1     -21.470  -1.397   4.264  0.00  0.00    +0.000 HD
BRANCH  12  15
ATOM     15  C   UNL     1     -20.334  -0.034   5.468  0.00  0.00    +0.000 C 
ATOM     16  H   UNL     1     -20.610   0.668   4.675  0.00  0.00    +0.000 HD
ATOM     17  H   UNL     1     -20.649   0.391   6.427  0.00  0.00    +0.000 HD
ATOM     18  H   UNL     1     -19.243  -0.123   5.479  0.00  0.00    +0.000 HD
ENDBRANCH  12  15
ENDBRANCH   1  12
TORSDOF 5
ENDMDL
