MODEL 1
REMARK VINA RESULT:    -4.855      0.000      0.000
REMARK INTER + INTRA:          -7.579
REMARK INTER:                  -7.121
REMARK INTRA:                  -0.458
REMARK UNBOUND:                -0.454
REMARK  Name = 12741
REMARK  9 active torsions:
REMARK  status: ('A' for Active; 'I' for Inactive)
REMARK    1  A    between atoms: C_2  and  C_3
REMARK    2  A    between atoms: C_2  and  C_4
REMARK    3  A    between atoms: C_3  and  C_5
REMARK    4  A    between atoms: C_4  and  C_6
REMARK    5  A    between atoms: C_5  and  C_7
REMARK    6  A    between atoms: C_6  and  C_8
REMARK    7  A    between atoms: C_7  and  C_9
REMARK    8  A    between atoms: C_8  and  C_10
REMARK    9  A    between atoms: C_10  and  C_11
REMARK                            x       y       z     vdW  Elec       q    Type
REMARK                         _______ _______ _______ _____ _____    ______ ____
ROOT
ATOM      1  C   UNL     1       7.501   9.139   0.955  0.00  0.00    +0.000 C 
ATOM      2  H   UNL     1       8.096   8.372   0.443  0.00  0.00    +0.000 HD
ATOM      3  H   UNL     1       8.112  10.049   0.994  0.00  0.00    +0.000 HD
ENDROOT
BRANCH   1   4
ATOM      4  C   UNL     1       7.179   8.676   2.376  0.00  0.00    +0.000 C 
ATOM      5  H   UNL     1       7.317   9.509   3.075  0.00  0.00    +0.000 HD
ATOM      6  H   UNL     1       7.879   7.886   2.672  0.00  0.00    +0.000 HD
BRANCH   4   7
ATOM      7  C   UNL     1       5.745   8.151   2.479  0.00  0.00    +0.000 C 
ATOM      8  H   UNL     1       5.105   8.916   2.936  0.00  0.00    +0.000 HD
ATOM      9  H   UNL     1       5.353   7.960   1.474  0.00  0.00    +0.000 HD
BRANCH   7  10
ATOM     10  C   UNL     1       5.683   6.866   3.305  0.00  0.00    +0.000 C 
ATOM     11  H   UNL     1       4.637   6.602   3.504  0.00  0.00    +0.000 HD
ATOM     12  H   UNL     1       6.125   6.038   2.740  0.00  0.00    +0.000 HD
BRANCH  10  13
ATOM     13  C   UNL     1       6.415   7.019   4.628  0.00  0.00    +0.000 C 
ATOM     14  H   UNL     1       6.915   6.085   4.908  0.00  0.00    +0.000 HD
ATOM     15  H   UNL     1       5.711   7.279   5.424  0.00  0.00    +0.000 HD
ATOM     16  H   UNL     1       7.171   7.809   4.570  0.00  0.00    +0.000 HD
ENDBRANCH  10  13
ENDBRANCH   7  10
ENDBRANCH   4   7
ENDBRANCH   1   4
BRANCH   1  17
ATOM     17  C   UNL     1       6.225   9.416   0.157  0.00  0.00    +0.000 C 
ATOM     18  H   UNL     1       5.366   9.453   0.838  0.00  0.00    +0.000 HD
ATOM     19  H   UNL     1       6.046   8.591  -0.544  0.00  0.00    +0.000 HD
BRANCH  17  20
ATOM     20  C   UNL     1       6.323  10.734  -0.611  0.00  0.00    +0.000 C 
ATOM     21  H   UNL     1       7.374  11.036  -0.696  0.00  0.00    +0.000 HD
ATOM     22  H   UNL     1       5.952  10.592  -1.634  0.00  0.00    +0.000 HD
BRANCH  20  23
ATOM     23  C   UNL     1       5.523  11.838   0.075  0.00  0.00    +0.000 C 
ATOM     24  H   UNL     1       5.673  12.789  -0.448  0.00  0.00    +0.000 HD
ATOM     25  H   UNL     1       5.860  11.953   1.111  0.00  0.00    +0.000 HD
BRANCH  23  27
ATOM     26  O   UNL     1       3.378  11.512   1.141  0.00  0.00    +0.000 OA
ATOM     27  C   UNL     1       4.032  11.548   0.101  0.00  0.00    +0.000 C 
BRANCH  27  28
ATOM     28  C   UNL     1       3.382  11.300  -1.235  0.00  0.00    +0.000 C 
ATOM     29  H   UNL     1       3.682  10.321  -1.613  0.00  0.00    +0.000 HD
ATOM     30  H   UNL     1       2.296  11.348  -1.127  0.00  0.00    +0.000 HD
ATOM     31  H   UNL     1       3.701  12.066  -1.948  0.00  0.00    +0.000 HD
ENDBRANCH  27  28
ENDBRANCH  23  27
ENDBRANCH  20  23
ENDBRANCH  17  20
ENDBRANCH   1  17
TORSDOF 9
ENDMDL
MODEL 2
REMARK VINA RESULT:    -4.682      2.439      3.844
REMARK INTER + INTRA:          -7.325
REMARK INTER:                  -6.394
REMARK INTRA:                  -0.931
REMARK UNBOUND:                -0.454
REMARK  Name = 12741
REMARK  9 active torsions:
REMARK  status: ('A' for Active; 'I' for Inactive)
REMARK    1  A    between atoms: C_2  and  C_3
REMARK    2  A    between atoms: C_2  and  C_4
REMARK    3  A    between atoms: C_3  and  C_5
REMARK    4  A    between atoms: C_4  and  C_6
REMARK    5  A    between atoms: C_5  and  C_7
REMARK    6  A    between atoms: C_6  and  C_8
REMARK    7  A    between atoms: C_7  and  C_9
REMARK    8  A    between atoms: C_8  and  C_10
REMARK    9  A    between atoms: C_10  and  C_11
REMARK                            x       y       z     vdW  Elec       q    Type
REMARK                         _______ _______ _______ _____ _____    ______ ____
ROOT
ATOM      1  C   UNL     1       4.662  11.821   0.070  0.00  0.00    +0.000 C 
ATOM      2  H   UNL     1       5.354  12.318   0.761  0.00  0.00    +0.000 HD
ATOM      3  H   UNL     1       4.127  12.609  -0.475  0.00  0.00    +0.000 HD
ENDROOT
BRANCH   1   4
ATOM      4  C   UNL     1       3.663  10.977   0.862  0.00  0.00    +0.000 C 
ATOM      5  H   UNL     1       2.658  11.401   0.757  0.00  0.00    +0.000 HD
ATOM      6  H   UNL     1       3.919  11.010   1.927  0.00  0.00    +0.000 HD
BRANCH   4   7
ATOM      7  C   UNL     1       3.661   9.523   0.383  0.00  0.00    +0.000 C 
ATOM      8  H   UNL     1       2.793   9.351  -0.266  0.00  0.00    +0.000 HD
ATOM      9  H   UNL     1       4.557   9.335  -0.219  0.00  0.00    +0.000 HD
BRANCH   7  10
ATOM     10  C   UNL     1       3.623   8.551   1.562  0.00  0.00    +0.000 C 
ATOM     11  H   UNL     1       2.765   7.876   1.460  0.00  0.00    +0.000 HD
ATOM     12  H   UNL     1       4.526   7.930   1.562  0.00  0.00    +0.000 HD
BRANCH  10  13
ATOM     13  C   UNL     1       3.520   9.287   2.888  0.00  0.00    +0.000 C 
ATOM     14  H   UNL     1       4.317   8.976   3.571  0.00  0.00    +0.000 HD
ATOM     15  H   UNL     1       2.559   9.072   3.366  0.00  0.00    +0.000 HD
ATOM     16  H   UNL     1       3.594  10.370   2.743  0.00  0.00    +0.000 HD
ENDBRANCH  10  13
ENDBRANCH   7  10
ENDBRANCH   4   7
ENDBRANCH   1   4
BRANCH   1  17
ATOM     17  C   UNL     1       5.453  10.964  -0.921  0.00  0.00    +0.000 C 
ATOM     18  H   UNL     1       5.167  11.227  -1.946  0.00  0.00    +0.000 HD
ATOM     19  H   UNL     1       5.197   9.907  -0.775  0.00  0.00    +0.000 HD
BRANCH  17  20
ATOM     20  C   UNL     1       6.960  11.158  -0.747  0.00  0.00    +0.000 C 
ATOM     21  H   UNL     1       7.327  11.886  -1.480  0.00  0.00    +0.000 HD
ATOM     22  H   UNL     1       7.163  11.582   0.245  0.00  0.00    +0.000 HD
BRANCH  20  23
ATOM     23  C   UNL     1       7.712   9.841  -0.906  0.00  0.00    +0.000 C 
ATOM     24  H   UNL     1       8.785  10.001  -0.747  0.00  0.00    +0.000 HD
ATOM     25  H   UNL     1       7.564   9.447  -1.917  0.00  0.00    +0.000 HD
BRANCH  23  27
ATOM     26  O   UNL     1       6.715   7.730  -0.276  0.00  0.00    +0.000 OA
ATOM     27  C   UNL     1       7.247   8.781   0.077  0.00  0.00    +0.000 C 
BRANCH  27  28
ATOM     28  C   UNL     1       7.472   9.085   1.536  0.00  0.00    +0.000 C 
ATOM     29  H   UNL     1       8.001  10.035   1.634  0.00  0.00    +0.000 HD
ATOM     30  H   UNL     1       6.511   9.131   2.053  0.00  0.00    +0.000 HD
ATOM     31  H   UNL     1       8.079   8.295   1.988  0.00  0.00    +0.000 HD
ENDBRANCH  27  28
ENDBRANCH  23  27
ENDBRANCH  20  23
ENDBRANCH  17  20
ENDBRANCH   1  17
TORSDOF 9
ENDMDL
MODEL 3
REMARK VINA RESULT:    -4.611      1.498      2.394
REMARK INTER + INTRA:          -7.221
REMARK INTER:                  -6.639
REMARK INTRA:                  -0.582
REMARK UNBOUND:                -0.454
REMARK  Name = 12741
REMARK  9 active torsions:
REMARK  status: ('A' for Active; 'I' for Inactive)
REMARK    1  A    between atoms: C_2  and  C_3
REMARK    2  A    between atoms: C_2  and  C_4
REMARK    3  A    between atoms: C_3  and  C_5
REMARK    4  A    between atoms: C_4  and  C_6
REMARK    5  A    between atoms: C_5  and  C_7
REMARK    6  A    between atoms: C_6  and  C_8
REMARK    7  A    between atoms: C_7  and  C_9
REMARK    8  A    between atoms: C_8  and  C_10
REMARK    9  A    between atoms: C_10  and  C_11
REMARK                            x       y       z     vdW  Elec       q    Type
REMARK                         _______ _______ _______ _____ _____    ______ ____
ROOT
ATOM      1  C   UNL     1       6.013   7.347   2.449  0.00  0.00    +0.000 C 
ATOM      2  H   UNL     1       4.936   7.499   2.309  0.00  0.00    +0.000 HD
ATOM      3  H   UNL     1       6.305   6.499   1.817  0.00  0.00    +0.000 HD
ENDROOT
BRANCH   1   4
ATOM      4  C   UNL     1       6.299   7.017   3.914  0.00  0.00    +0.000 C 
ATOM      5  H   UNL     1       7.350   7.232   4.142  0.00  0.00    +0.000 HD
ATOM      6  H   UNL     1       6.144   5.945   4.085  0.00  0.00    +0.000 HD
BRANCH   4   7
ATOM      7  C   UNL     1       5.395   7.818   4.852  0.00  0.00    +0.000 C 
ATOM      8  H   UNL     1       4.555   8.237   4.284  0.00  0.00    +0.000 HD
ATOM      9  H   UNL     1       4.971   7.151   5.611  0.00  0.00    +0.000 HD
BRANCH   7  10
ATOM     10  C   UNL     1       6.165   8.946   5.537  0.00  0.00    +0.000 C 
ATOM     11  H   UNL     1       6.039   9.879   4.975  0.00  0.00    +0.000 HD
ATOM     12  H   UNL     1       5.763   9.116   6.542  0.00  0.00    +0.000 HD
BRANCH  10  13
ATOM     13  C   UNL     1       7.648   8.627   5.638  0.00  0.00    +0.000 C 
ATOM     14  H   UNL     1       7.900   7.745   5.040  0.00  0.00    +0.000 HD
ATOM     15  H   UNL     1       7.921   8.421   6.678  0.00  0.00    +0.000 HD
ATOM     16  H   UNL     1       8.256   9.466   5.285  0.00  0.00    +0.000 HD
ENDBRANCH  10  13
ENDBRANCH   7  10
ENDBRANCH   4   7
ENDBRANCH   1   4
BRANCH   1  17
ATOM     17  C   UNL     1       6.770   8.599   2.002  0.00  0.00    +0.000 C 
ATOM     18  H   UNL     1       7.800   8.332   1.737  0.00  0.00    +0.000 HD
ATOM     19  H   UNL     1       6.825   9.310   2.836  0.00  0.00    +0.000 HD
BRANCH  17  20
ATOM     20  C   UNL     1       6.092   9.263   0.804  0.00  0.00    +0.000 C 
ATOM     21  H   UNL     1       6.259  10.347   0.836  0.00  0.00    +0.000 HD
ATOM     22  H   UNL     1       6.551   8.902  -0.126  0.00  0.00    +0.000 HD
BRANCH  20  23
ATOM     23  C   UNL     1       4.594   8.973   0.782  0.00  0.00    +0.000 C 
ATOM     24  H   UNL     1       4.379   8.070   1.366  0.00  0.00    +0.000 HD
ATOM     25  H   UNL     1       4.260   8.809  -0.248  0.00  0.00    +0.000 HD
BRANCH  23  27
ATOM     26  O   UNL     1       3.205  10.038   2.450  0.00  0.00    +0.000 OA
ATOM     27  C   UNL     1       3.771  10.111   1.361  0.00  0.00    +0.000 C 
BRANCH  27  28
ATOM     28  C   UNL     1       3.679  11.357   0.519  0.00  0.00    +0.000 C 
ATOM     29  H   UNL     1       3.418  11.088  -0.506  0.00  0.00    +0.000 HD
ATOM     30  H   UNL     1       2.925  12.027   0.939  0.00  0.00    +0.000 HD
ATOM     31  H   UNL     1       4.645  11.871   0.515  0.00  0.00    +0.000 HD
ENDBRANCH  27  28
ENDBRANCH  23  27
ENDBRANCH  20  23
ENDBRANCH  17  20
ENDBRANCH   1  17
TORSDOF 9
ENDMDL
MODEL 4
REMARK VINA RESULT:    -4.448     28.567     29.769
REMARK INTER + INTRA:          -6.982
REMARK INTER:                  -6.524
REMARK INTRA:                  -0.457
REMARK UNBOUND:                -0.454
REMARK  Name = 12741
REMARK  9 active torsions:
REMARK  status: ('A' for Active; 'I' for Inactive)
REMARK    1  A    between atoms: C_2  and  C_3
REMARK    2  A    between atoms: C_2  and  C_4
REMARK    3  A    between atoms: C_3  and  C_5
REMARK    4  A    between atoms: C_4  and  C_6
REMARK    5  A    between atoms: C_5  and  C_7
REMARK    6  A    between atoms: C_6  and  C_8
REMARK    7  A    between atoms: C_7  and  C_9
REMARK    8  A    between atoms: C_8  and  C_10
REMARK    9  A    between atoms: C_10  and  C_11
REMARK                            x       y       z     vdW  Elec       q    Type
REMARK                         _______ _______ _______ _____ _____    ______ ____
ROOT
ATOM      1  C   UNL     1     -20.916  -1.150   4.501  0.00  0.00    +0.000 C 
ATOM      2  H   UNL     1     -21.838  -0.725   4.086  0.00  0.00    +0.000 HD
ATOM      3  H   UNL     1     -20.181  -1.186   3.687  0.00  0.00    +0.000 HD
ENDROOT
BRANCH   1   4
ATOM      4  C   UNL     1     -21.187  -2.567   5.009  0.00  0.00    +0.000 C 
ATOM      5  H   UNL     1     -22.266  -2.754   5.020  0.00  0.00    +0.000 HD
ATOM      6  H   UNL     1     -20.831  -2.659   6.042  0.00  0.00    +0.000 HD
BRANCH   4   7
ATOM      7  C   UNL     1     -20.491  -3.613   4.136  0.00  0.00    +0.000 C 
ATOM      8  H   UNL     1     -21.239  -4.145   3.533  0.00  0.00    +0.000 HD
ATOM      9  H   UNL     1     -19.810  -3.114   3.438  0.00  0.00    +0.000 HD
BRANCH   7  10
ATOM     10  C   UNL     1     -19.709  -4.615   4.985  0.00  0.00    +0.000 C 
ATOM     11  H   UNL     1     -18.912  -4.097   5.532  0.00  0.00    +0.000 HD
ATOM     12  H   UNL     1     -20.372  -5.069   5.730  0.00  0.00    +0.000 HD
BRANCH  10  13
ATOM     13  C   UNL     1     -19.092  -5.709   4.130  0.00  0.00    +0.000 C 
ATOM     14  H   UNL     1     -19.286  -6.697   4.559  0.00  0.00    +0.000 HD
ATOM     15  H   UNL     1     -18.008  -5.573   4.064  0.00  0.00    +0.000 HD
ATOM     16  H   UNL     1     -19.499  -5.690   3.113  0.00  0.00    +0.000 HD
ENDBRANCH  10  13
ENDBRANCH   7  10
ENDBRANCH   4   7
ENDBRANCH   1   4
BRANCH   1  17
ATOM     17  C   UNL     1     -20.392  -0.248   5.621  0.00  0.00    +0.000 C 
ATOM     18  H   UNL     1     -21.069   0.605   5.753  0.00  0.00    +0.000 HD
ATOM     19  H   UNL     1     -19.413   0.157   5.336  0.00  0.00    +0.000 HD
BRANCH  17  20
ATOM     20  C   UNL     1     -20.272  -1.011   6.940  0.00  0.00    +0.000 C 
ATOM     21  H   UNL     1     -20.534  -2.065   6.785  0.00  0.00    +0.000 HD
ATOM     22  H   UNL     1     -19.228  -0.993   7.281  0.00  0.00    +0.000 HD
BRANCH  20  23
ATOM     23  C   UNL     1     -21.172  -0.409   8.015  0.00  0.00    +0.000 C 
ATOM     24  H   UNL     1     -21.680   0.480   7.622  0.00  0.00    +0.000 HD
ATOM     25  H   UNL     1     -20.572  -0.113   8.882  0.00  0.00    +0.000 HD
BRANCH  23  27
ATOM     26  O   UNL     1     -22.089  -2.601   8.463  0.00  0.00    +0.000 OA
ATOM     27  C   UNL     1     -22.236  -1.381   8.496  0.00  0.00    +0.000 C 
BRANCH  27  28
ATOM     28  C   UNL     1     -23.505  -0.766   9.025  0.00  0.00    +0.000 C 
ATOM     29  H   UNL     1     -24.268  -0.770   8.244  0.00  0.00    +0.000 HD
ATOM     30  H   UNL     1     -23.850  -1.330   9.895  0.00  0.00    +0.000 HD
ATOM     31  H   UNL     1     -23.316   0.268   9.328  0.00  0.00    +0.000 HD
ENDBRANCH  27  28
ENDBRANCH  23  27
ENDBRANCH  20  23
ENDBRANCH  17  20
ENDBRANCH   1  17
TORSDOF 9
ENDMDL
MODEL 5
REMARK VINA RESULT:    -4.443     13.620     15.258
REMARK INTER + INTRA:          -6.974
REMARK INTER:                  -6.079
REMARK INTRA:                  -0.895
REMARK UNBOUND:                -0.454
REMARK  Name = 12741
REMARK  9 active torsions:
REMARK  status: ('A' for Active; 'I' for Inactive)
REMARK    1  A    between atoms: C_2  and  C_3
REMARK    2  A    between atoms: C_2  and  C_4
REMARK    3  A    between atoms: C_3  and  C_5
REMARK    4  A    between atoms: C_4  and  C_6
REMARK    5  A    between atoms: C_5  and  C_7
REMARK    6  A    between atoms: C_6  and  C_8
REMARK    7  A    between atoms: C_7  and  C_9
REMARK    8  A    between atoms: C_8  and  C_10
REMARK    9  A    between atoms: C_10  and  C_11
REMARK                            x       y       z     vdW  Elec       q    Type
REMARK                         _______ _______ _______ _____ _____    ______ ____
ROOT
ATOM      1  C   UNL     1      -1.328   9.961 -10.227  0.00  0.00    +0.000 C 
ATOM      2  H   UNL     1      -1.025  10.913  -9.776  0.00  0.00    +0.000 HD
ATOM      3  H   UNL     1      -0.687   9.181  -9.798  0.00  0.00    +0.000 HD
ENDROOT
BRANCH   1   4
ATOM      4  C   UNL     1      -1.120  10.020 -11.741  0.00  0.00    +0.000 C 
ATOM      5  H   UNL     1      -0.194   9.497 -12.006  0.00  0.00    +0.000 HD
ATOM      6  H   UNL     1      -1.003  11.064 -12.054  0.00  0.00    +0.000 HD
BRANCH   4   7
ATOM      7  C   UNL     1      -2.298   9.392 -12.490  0.00  0.00    +0.000 C 
ATOM      8  H   UNL     1      -3.022   8.994 -11.768  0.00  0.00    +0.000 HD
ATOM      9  H   UNL     1      -2.814  10.164 -13.072  0.00  0.00    +0.000 HD
BRANCH   7  10
ATOM     10  C   UNL     1      -1.832   8.274 -13.421  0.00  0.00    +0.000 C 
ATOM     11  H   UNL     1      -2.636   8.009 -14.117  0.00  0.00    +0.000 HD
ATOM     12  H   UNL     1      -0.983   8.620 -14.023  0.00  0.00    +0.000 HD
BRANCH  10  13
ATOM     13  C   UNL     1      -1.422   7.035 -12.642  0.00  0.00    +0.000 C 
ATOM     14  H   UNL     1      -1.745   6.124 -13.157  0.00  0.00    +0.000 HD
ATOM     15  H   UNL     1      -1.880   7.044 -11.648  0.00  0.00    +0.000 HD
ATOM     16  H   UNL     1      -0.335   6.991 -12.516  0.00  0.00    +0.000 HD
ENDBRANCH  10  13
ENDBRANCH   7  10
ENDBRANCH   4   7
ENDBRANCH   1   4
BRANCH   1  17
ATOM     17  C   UNL     1      -2.789   9.668  -9.878  0.00  0.00    +0.000 C 
ATOM     18  H   UNL     1      -3.332   9.370 -10.783  0.00  0.00    +0.000 HD
ATOM     19  H   UNL     1      -3.265  10.582  -9.502  0.00  0.00    +0.000 HD
BRANCH  17  20
ATOM     20  C   UNL     1      -2.900   8.560  -8.830  0.00  0.00    +0.000 C 
ATOM     21  H   UNL     1      -2.054   8.622  -8.134  0.00  0.00    +0.000 HD
ATOM     22  H   UNL     1      -3.809   8.708  -8.233  0.00  0.00    +0.000 HD
BRANCH  20  23
ATOM     23  C   UNL     1      -2.932   7.180  -9.481  0.00  0.00    +0.000 C 
ATOM     24  H   UNL     1      -2.424   6.452  -8.839  0.00  0.00    +0.000 HD
ATOM     25  H   UNL     1      -2.418   7.212 -10.447  0.00  0.00    +0.000 HD
BRANCH  23  27
ATOM     26  O   UNL     1      -5.057   6.227  -8.829  0.00  0.00    +0.000 OA
ATOM     27  C   UNL     1      -4.348   6.684  -9.724  0.00  0.00    +0.000 C 
BRANCH  27  28
ATOM     28  C   UNL     1      -4.849   6.779 -11.141  0.00  0.00    +0.000 C 
ATOM     29  H   UNL     1      -4.163   7.389 -11.732  0.00  0.00    +0.000 HD
ATOM     30  H   UNL     1      -4.929   5.777 -11.569  0.00  0.00    +0.000 HD
ATOM     31  H   UNL     1      -5.838   7.248 -11.152  0.00  0.00    +0.000 HD
ENDBRANCH  27  28
ENDBRANCH  23  27
ENDBRANCH  20  23
ENDBRANCH  17  20
ENDBRANCH   1  17
TORSDOF 9
ENDMDL
MODEL 6
REMARK VINA RESULT:    -4.346     14.000     15.649
REMARK INTER + INTRA:          -6.833
REMARK INTER:                  -6.455
REMARK INTRA:                  -0.377
REMARK UNBOUND:                -0.454
REMARK  Name = 12741
REMARK  9 active torsions:
REMARK  status: ('A' for Active; 'I' for Inactive)
REMARK    1  A    between atoms: C_2  and  C_3
REMARK    2  A    between atoms: C_2  and  C_4
REMARK    3  A    between atoms: C_3  and  C_5
REMARK    4  A    between atoms: C_4  and  C_6
REMARK    5  A    between atoms: C_5  and  C_7
REMARK    6  A    between atoms: C_6  and  C_8
REMARK    7  A    between atoms: C_7  and  C_9
REMARK    8  A    between atoms: C_8  and  C_10
REMARK    9  A    between atoms: C_10  and  C_11
REMARK                            x       y       z     vdW  Elec       q    Type
REMARK                         _______ _______ _______ _____ _____    ______ ____
ROOT
ATOM      1  C   UNL     1      -8.411  10.910   6.854  0.00  0.00    +0.000 C 
ATOM      2  H   UNL     1      -8.758  11.779   7.427  0.00  0.00    +0.000 HD
ATOM      3  H   UNL     1      -7.344  10.783   7.075  0.00  0.00    +0.000 HD
ENDROOT
BRANCH   1   4
ATOM      4  C   UNL     1      -8.597  11.173   5.359  0.00  0.00    +0.000 C 
ATOM      5  H   UNL     1      -9.414  11.887   5.209  0.00  0.00    +0.000 HD
ATOM      6  H   UNL     1      -8.885  10.241   4.857  0.00  0.00    +0.000 HD
BRANCH   4   7
ATOM      7  C   UNL     1      -7.314  11.717   4.726  0.00  0.00    +0.000 C 
ATOM      8  H   UNL     1      -6.442  11.306   5.250  0.00  0.00    +0.000 HD
ATOM      9  H   UNL     1      -7.251  11.386   3.684  0.00  0.00    +0.000 HD
BRANCH   7  10
ATOM     10  C   UNL     1      -7.274  13.244   4.780  0.00  0.00    +0.000 C 
ATOM     11  H   UNL     1      -7.310  13.654   3.764  0.00  0.00    +0.000 HD
ATOM     12  H   UNL     1      -8.153  13.622   5.315  0.00  0.00    +0.000 HD
BRANCH  10  13
ATOM     13  C   UNL     1      -6.015  13.744   5.470  0.00  0.00    +0.000 C 
ATOM     14  H   UNL     1      -6.195  13.916   6.536  0.00  0.00    +0.000 HD
ATOM     15  H   UNL     1      -5.687  14.688   5.024  0.00  0.00    +0.000 HD
ATOM     16  H   UNL     1      -5.199  13.019   5.373  0.00  0.00    +0.000 HD
ENDBRANCH  10  13
ENDBRANCH   7  10
ENDBRANCH   4   7
ENDBRANCH   1   4
BRANCH   1  17
ATOM     17  C   UNL     1      -9.176   9.662   7.299  0.00  0.00    +0.000 C 
ATOM     18  H   UNL     1      -8.749   8.776   6.814  0.00  0.00    +0.000 HD
ATOM     19  H   UNL     1     -10.220   9.738   6.973  0.00  0.00    +0.000 HD
BRANCH  17  20
ATOM     20  C   UNL     1      -9.121   9.487   8.817  0.00  0.00    +0.000 C 
ATOM     21  H   UNL     1      -9.223  10.463   9.307  0.00  0.00    +0.000 HD
ATOM     22  H   UNL     1      -9.973   8.879   9.148  0.00  0.00    +0.000 HD
BRANCH  20  23
ATOM     23  C   UNL     1      -7.818   8.825   9.254  0.00  0.00    +0.000 C 
ATOM     24  H   UNL     1      -7.264   8.474   8.375  0.00  0.00    +0.000 HD
ATOM     25  H   UNL     1      -8.033   7.964   9.896  0.00  0.00    +0.000 HD
BRANCH  23  27
ATOM     26  O   UNL     1      -5.708   9.579  10.161  0.00  0.00    +0.000 OA
ATOM     27  C   UNL     1      -6.915   9.769  10.029  0.00  0.00    +0.000 C 
BRANCH  27  28
ATOM     28  C   UNL     1      -7.584  10.972  10.641  0.00  0.00    +0.000 C 
ATOM     29  H   UNL     1      -8.664  10.905  10.494  0.00  0.00    +0.000 HD
ATOM     30  H   UNL     1      -7.349  11.019  11.707  0.00  0.00    +0.000 HD
ATOM     31  H   UNL     1      -7.218  11.883  10.158  0.00  0.00    +0.000 HD
ENDBRANCH  27  28
ENDBRANCH  23  27
ENDBRANCH  20  23
ENDBRANCH  17  20
ENDBRANCH   1  17
TORSDOF 9
ENDMDL
MODEL 7
REMARK VINA RESULT:    -4.293     13.793     15.076
REMARK INTER + INTRA:          -6.755
REMARK INTER:                  -6.455
REMARK INTRA:                  -0.300
REMARK UNBOUND:                -0.454
REMARK  Name = 12741
REMARK  9 active torsions:
REMARK  status: ('A' for Active; 'I' for Inactive)
REMARK    1  A    between atoms: C_2  and  C_3
REMARK    2  A    between atoms: C_2  and  C_4
REMARK    3  A    between atoms: C_3  and  C_5
REMARK    4  A    between atoms: C_4  and  C_6
REMARK    5  A    between atoms: C_5  and  C_7
REMARK    6  A    between atoms: C_6  and  C_8
REMARK    7  A    between atoms: C_7  and  C_9
REMARK    8  A    between atoms: C_8  and  C_10
REMARK    9  A    between atoms: C_10  and  C_11
REMARK                            x       y       z     vdW  Elec       q    Type
REMARK                         _______ _______ _______ _____ _____    ______ ____
ROOT
ATOM      1  C   UNL     1      -2.345   9.346 -10.679  0.00  0.00    +0.000 C 
ATOM      2  H   UNL     1      -3.107   9.649 -11.407  0.00  0.00    +0.000 HD
ATOM      3  H   UNL     1      -2.252   8.255 -10.744  0.00  0.00    +0.000 HD
ENDROOT
BRANCH   1   4
ATOM      4  C   UNL     1      -2.795   9.738  -9.271  0.00  0.00    +0.000 C 
ATOM      5  H   UNL     1      -3.692  10.365  -9.332  0.00  0.00    +0.000 HD
ATOM      6  H   UNL     1      -2.012  10.338  -8.791  0.00  0.00    +0.000 HD
BRANCH   4   7
ATOM      7  C   UNL     1      -3.087   8.503  -8.416  0.00  0.00    +0.000 C 
ATOM      8  H   UNL     1      -2.269   8.349  -7.701  0.00  0.00    +0.000 HD
ATOM      9  H   UNL     1      -3.999   8.669  -7.832  0.00  0.00    +0.000 HD
BRANCH   7  10
ATOM     10  C   UNL     1      -3.254   7.255  -9.282  0.00  0.00    +0.000 C 
ATOM     11  H   UNL     1      -3.439   7.546 -10.323  0.00  0.00    +0.000 HD
ATOM     12  H   UNL     1      -2.330   6.665  -9.269  0.00  0.00    +0.000 HD
BRANCH  10  13
ATOM     13  C   UNL     1      -4.407   6.391  -8.797  0.00  0.00    +0.000 C 
ATOM     14  H   UNL     1      -4.244   6.065  -7.765  0.00  0.00    +0.000 HD
ATOM     15  H   UNL     1      -4.503   5.500  -9.424  0.00  0.00    +0.000 HD
ATOM     16  H   UNL     1      -5.354   6.940  -8.838  0.00  0.00    +0.000 HD
ENDBRANCH  10  13
ENDBRANCH   7  10
ENDBRANCH   4   7
ENDBRANCH   1   4
BRANCH   1  17
ATOM     17  C   UNL     1      -1.006   9.994 -11.037  0.00  0.00    +0.000 C 
ATOM     18  H   UNL     1      -0.185   9.333 -10.735  0.00  0.00    +0.000 HD
ATOM     19  H   UNL     1      -0.891  10.929 -10.475  0.00  0.00    +0.000 HD
BRANCH  17  20
ATOM     20  C   UNL     1      -0.907  10.278 -12.536  0.00  0.00    +0.000 C 
ATOM     21  H   UNL     1      -1.913  10.353 -12.966  0.00  0.00    +0.000 HD
ATOM     22  H   UNL     1      -0.424  11.250 -12.695  0.00  0.00    +0.000 HD
BRANCH  20  23
ATOM     23  C   UNL     1      -0.118   9.188 -13.257  0.00  0.00    +0.000 C 
ATOM     24  H   UNL     1      -0.773   8.339 -13.484  0.00  0.00    +0.000 HD
ATOM     25  H   UNL     1       0.700   8.837 -12.619  0.00  0.00    +0.000 HD
BRANCH  23  27
ATOM     26  O   UNL     1       0.909   8.910 -15.428  0.00  0.00    +0.000 OA
ATOM     27  C   UNL     1       0.487   9.675 -14.563  0.00  0.00    +0.000 C 
BRANCH  27  28
ATOM     28  C   UNL     1       0.546  11.168 -14.751  0.00  0.00    +0.000 C 
ATOM     29  H   UNL     1       1.193  11.608 -13.988  0.00  0.00    +0.000 HD
ATOM     30  H   UNL     1       0.928  11.397 -15.748  0.00  0.00    +0.000 HD
ATOM     31  H   UNL     1      -0.457  11.592 -14.651  0.00  0.00    +0.000 HD
ENDBRANCH  27  28
ENDBRANCH  23  27
ENDBRANCH  20  23
ENDBRANCH  17  20
ENDBRANCH   1  17
TORSDOF 9
ENDMDL
MODEL 8
REMARK VINA RESULT:    -4.182     13.755     15.224
REMARK INTER + INTRA:          -6.591
REMARK INTER:                  -5.904
REMARK INTRA:                  -0.687
REMARK UNBOUND:                -0.454
REMARK  Name = 12741
REMARK  9 active torsions:
REMARK  status: ('A' for Active; 'I' for Inactive)
REMARK    1  A    between atoms: C_2  and  C_3
REMARK    2  A    between atoms: C_2  and  C_4
REMARK    3  A    between atoms: C_3  and  C_5
REMARK    4  A    between atoms: C_4  and  C_6
REMARK    5  A    between atoms: C_5  and  C_7
REMARK    6  A    between atoms: C_6  and  C_8
REMARK    7  A    between atoms: C_7  and  C_9
REMARK    8  A    between atoms: C_8  and  C_10
REMARK    9  A    between atoms: C_10  and  C_11
REMARK                            x       y       z     vdW  Elec       q    Type
REMARK                         _______ _______ _______ _____ _____    ______ ____
ROOT
ATOM      1  C   UNL     1      -6.542  14.345   6.796  0.00  0.00    +0.000 C 
ATOM      2  H   UNL     1      -7.625  14.516   6.794  0.00  0.00    +0.000 HD
ATOM      3  H   UNL     1      -6.059  15.326   6.879  0.00  0.00    +0.000 HD
ENDROOT
BRANCH   1   4
ATOM      4  C   UNL     1      -6.124  13.678   5.485  0.00  0.00    +0.000 C 
ATOM      5  H   UNL     1      -5.398  12.883   5.691  0.00  0.00    +0.000 HD
ATOM      6  H   UNL     1      -5.625  14.413   4.843  0.00  0.00    +0.000 HD
BRANCH   4   7
ATOM      7  C   UNL     1      -7.331  13.094   4.748  0.00  0.00    +0.000 C 
ATOM      8  H   UNL     1      -8.254  13.392   5.261  0.00  0.00    +0.000 HD
ATOM      9  H   UNL     1      -7.377  13.508   3.735  0.00  0.00    +0.000 HD
BRANCH   7  10
ATOM     10  C   UNL     1      -7.253  11.570   4.675  0.00  0.00    +0.000 C 
ATOM     11  H   UNL     1      -7.436  11.237   3.646  0.00  0.00    +0.000 HD
ATOM     12  H   UNL     1      -6.247  11.234   4.951  0.00  0.00    +0.000 HD
BRANCH  10  13
ATOM     13  C   UNL     1      -8.270  10.915   5.595  0.00  0.00    +0.000 C 
ATOM     14  H   UNL     1      -7.890   9.966   5.987  0.00  0.00    +0.000 HD
ATOM     15  H   UNL     1      -9.198  10.711   5.052  0.00  0.00    +0.000 HD
ATOM     16  H   UNL     1      -8.509  11.565   6.444  0.00  0.00    +0.000 HD
ENDBRANCH  10  13
ENDBRANCH   7  10
ENDBRANCH   4   7
ENDBRANCH   1   4
BRANCH   1  17
ATOM     17  C   UNL     1      -6.161  13.486   8.004  0.00  0.00    +0.000 C 
ATOM     18  H   UNL     1      -5.650  14.106   8.750  0.00  0.00    +0.000 HD
ATOM     19  H   UNL     1      -5.453  12.709   7.691  0.00  0.00    +0.000 HD
BRANCH  17  20
ATOM     20  C   UNL     1      -7.392  12.837   8.637  0.00  0.00    +0.000 C 
ATOM     21  H   UNL     1      -7.882  13.551   9.311  0.00  0.00    +0.000 HD
ATOM     22  H   UNL     1      -8.121  12.591   7.855  0.00  0.00    +0.000 HD
BRANCH  20  23
ATOM     23  C   UNL     1      -7.020  11.573   9.407  0.00  0.00    +0.000 C 
ATOM     24  H   UNL     1      -6.850  11.814  10.463  0.00  0.00    +0.000 HD
ATOM     25  H   UNL     1      -6.101  11.143   8.995  0.00  0.00    +0.000 HD
BRANCH  23  27
ATOM     26  O   UNL     1      -9.274  10.766   9.069  0.00  0.00    +0.000 OA
ATOM     27  C   UNL     1      -8.102  10.509   9.337  0.00  0.00    +0.000 C 
BRANCH  27  28
ATOM     28  C   UNL     1      -7.661   9.096   9.620  0.00  0.00    +0.000 C 
ATOM     29  H   UNL     1      -7.615   8.935  10.699  0.00  0.00    +0.000 HD
ATOM     30  H   UNL     1      -8.364   8.395   9.163  0.00  0.00    +0.000 HD
ATOM     31  H   UNL     1      -6.668   8.928   9.194  0.00  0.00    +0.000 HD
ENDBRANCH  27  28
ENDBRANCH  23  27
ENDBRANCH  20  23
ENDBRANCH  17  20
ENDBRANCH   1  17
TORSDOF 9
ENDMDL
MODEL 9
REMARK VINA RESULT:    -4.165     14.248     15.723
REMARK INTER + INTRA:          -6.567
REMARK INTER:                  -5.922
REMARK INTRA:                  -0.645
REMARK UNBOUND:                -0.454
REMARK  Name = 12741
REMARK  9 active torsions:
REMARK  status: ('A' for Active; 'I' for Inactive)
REMARK    1  A    between atoms: C_2  and  C_3
REMARK    2  A    between atoms: C_2  and  C_4
REMARK    3  A    between atoms: C_3  and  C_5
REMARK    4  A    between atoms: C_4  and  C_6
REMARK    5  A    between atoms: C_5  and  C_7
REMARK    6  A    between atoms: C_6  and  C_8
REMARK    7  A    between atoms: C_7  and  C_9
REMARK    8  A    between atoms: C_8  and  C_10
REMARK    9  A    between atoms: C_10  and  C_11
REMARK                            x       y       z     vdW  Elec       q    Type
REMARK                         _______ _______ _______ _____ _____    ______ ____
ROOT
ATOM      1  C   UNL     1      -7.194  11.801   4.771  0.00  0.00    +0.000 C 
ATOM      2  H   UNL     1      -6.427  11.404   5.447  0.00  0.00    +0.000 HD
ATOM      3  H   UNL     1      -6.948  11.450   3.761  0.00  0.00    +0.000 HD
ENDROOT
BRANCH   1   4
ATOM      4  C   UNL     1      -7.167  13.329   4.802  0.00  0.00    +0.000 C 
ATOM      5  H   UNL     1      -8.131  13.708   5.161  0.00  0.00    +0.000 HD
ATOM      6  H   UNL     1      -7.026  13.714   3.785  0.00  0.00    +0.000 HD
BRANCH   4   7
ATOM      7  C   UNL     1      -6.043  13.847   5.702  0.00  0.00    +0.000 C 
ATOM      8  H   UNL     1      -5.306  13.051   5.866  0.00  0.00    +0.000 HD
ATOM      9  H   UNL     1      -5.522  14.671   5.201  0.00  0.00    +0.000 HD
BRANCH   7  10
ATOM     10  C   UNL     1      -6.586  14.329   7.047  0.00  0.00    +0.000 C 
ATOM     11  H   UNL     1      -6.247  15.353   7.241  0.00  0.00    +0.000 HD
ATOM     12  H   UNL     1      -7.681  14.348   7.021  0.00  0.00    +0.000 HD
BRANCH  10  13
ATOM     13  C   UNL     1      -6.128  13.432   8.186  0.00  0.00    +0.000 C 
ATOM     14  H   UNL     1      -5.266  12.827   7.886  0.00  0.00    +0.000 HD
ATOM     15  H   UNL     1      -6.933  12.753   8.482  0.00  0.00    +0.000 HD
ATOM     16  H   UNL     1      -5.843  14.024   9.063  0.00  0.00    +0.000 HD
ENDBRANCH  10  13
ENDBRANCH   7  10
ENDBRANCH   4   7
ENDBRANCH   1   4
BRANCH   1  17
ATOM     17  C   UNL     1      -8.567  11.260   5.177  0.00  0.00    +0.000 C 
ATOM     18  H   UNL     1      -8.866  10.460   4.490  0.00  0.00    +0.000 HD
ATOM     19  H   UNL     1      -9.314  12.058   5.088  0.00  0.00    +0.000 HD
BRANCH  17  20
ATOM     20  C   UNL     1      -8.552  10.724   6.609  0.00  0.00    +0.000 C 
ATOM     21  H   UNL     1      -8.443   9.632   6.595  0.00  0.00    +0.000 HD
ATOM     22  H   UNL     1      -7.679  11.121   7.142  0.00  0.00    +0.000 HD
BRANCH  20  23
ATOM     23  C   UNL     1      -9.827  11.104   7.357  0.00  0.00    +0.000 C 
ATOM     24  H   UNL     1     -10.117  12.130   7.104  0.00  0.00    +0.000 HD
ATOM     25  H   UNL     1      -9.656  11.046   8.438  0.00  0.00    +0.000 HD
BRANCH  23  27
ATOM     26  O   UNL     1     -11.013   8.997   7.314  0.00  0.00    +0.000 OA
ATOM     27  C   UNL     1     -10.994  10.191   7.022  0.00  0.00    +0.000 C 
BRANCH  27  28
ATOM     28  C   UNL     1     -12.151  10.832   6.300  0.00  0.00    +0.000 C 
ATOM     29  H   UNL     1     -11.835  11.790   5.881  0.00  0.00    +0.000 HD
ATOM     30  H   UNL     1     -12.499  10.168   5.506  0.00  0.00    +0.000 HD
ATOM     31  H   UNL     1     -12.972  11.007   7.001  0.00  0.00    +0.000 HD
ENDBRANCH  27  28
ENDBRANCH  23  27
ENDBRANCH  20  23
ENDBRANCH  17  20
ENDBRANCH   1  17
TORSDOF 9
ENDMDL
MODEL 10
REMARK VINA RESULT:    -4.140     28.295     29.555
REMARK INTER + INTRA:          -6.530
REMARK INTER:                  -6.077
REMARK INTRA:                  -0.454
REMARK UNBOUND:                -0.454
REMARK  Name = 12741
REMARK  9 active torsions:
REMARK  status: ('A' for Active; 'I' for Inactive)
REMARK    1  A    between atoms: C_2  and  C_3
REMARK    2  A    between atoms: C_2  and  C_4
REMARK    3  A    between atoms: C_3  and  C_5
REMARK    4  A    between atoms: C_4  and  C_6
REMARK    5  A    between atoms: C_5  and  C_7
REMARK    6  A    between atoms: C_6  and  C_8
REMARK    7  A    between atoms: C_7  and  C_9
REMARK    8  A    between atoms: C_8  and  C_10
REMARK    9  A    between atoms: C_10  and  C_11
REMARK                            x       y       z     vdW  Elec       q    Type
REMARK                         _______ _______ _______ _____ _____    ______ ____
ROOT
ATOM      1  C   UNL     1     -20.878  -1.378   4.719  0.00  0.00    +0.000 C 
ATOM      2  H   UNL     1     -20.032  -1.495   4.032  0.00  0.00    +0.000 HD
ATOM      3  H   UNL     1     -21.714  -0.972   4.136  0.00  0.00    +0.000 HD
ENDROOT
BRANCH   1   4
ATOM      4  C   UNL     1     -20.505  -0.397   5.831  0.00  0.00    +0.000 C 
ATOM      5  H   UNL     1     -21.216   0.438   5.840  0.00  0.00    +0.000 HD
ATOM      6  H   UNL     1     -19.513   0.026   5.629  0.00  0.00    +0.000 HD
BRANCH   4   7
ATOM      7  C   UNL     1     -20.498  -1.083   7.199  0.00  0.00    +0.000 C 
ATOM      8  H   UNL     1     -20.810  -2.129   7.087  0.00  0.00    +0.000 HD
ATOM      9  H   UNL     1     -19.478  -1.091   7.599  0.00  0.00    +0.000 HD
BRANCH   7  10
ATOM     10  C   UNL     1     -21.427  -0.371   8.182  0.00  0.00    +0.000 C 
ATOM     11  H   UNL     1     -20.961  -0.332   9.173  0.00  0.00    +0.000 HD
ATOM     12  H   UNL     1     -21.590   0.663   7.858  0.00  0.00    +0.000 HD
BRANCH  10  13
ATOM     13  C   UNL     1     -22.768  -1.079   8.293  0.00  0.00    +0.000 C 
ATOM     14  H   UNL     1     -23.054  -1.527   7.336  0.00  0.00    +0.000 HD
ATOM     15  H   UNL     1     -23.548  -0.369   8.583  0.00  0.00    +0.000 HD
ATOM     16  H   UNL     1     -22.732  -1.873   9.047  0.00  0.00    +0.000 HD
ENDBRANCH  10  13
ENDBRANCH   7  10
ENDBRANCH   4   7
ENDBRANCH   1   4
BRANCH   1  17
ATOM     17  C   UNL     1     -21.270  -2.742   5.289  0.00  0.00    +0.000 C 
ATOM     18  H   UNL     1     -22.321  -2.952   5.055  0.00  0.00    +0.000 HD
ATOM     19  H   UNL     1     -21.182  -2.721   6.382  0.00  0.00    +0.000 HD
BRANCH  17  20
ATOM     20  C   UNL     1     -20.390  -3.857   4.723  0.00  0.00    +0.000 C 
ATOM     21  H   UNL     1     -19.344  -3.683   5.006  0.00  0.00    +0.000 HD
ATOM     22  H   UNL     1     -20.681  -4.817   5.167  0.00  0.00    +0.000 HD
BRANCH  20  23
ATOM     23  C   UNL     1     -20.506  -3.939   3.203  0.00  0.00    +0.000 C 
ATOM     24  H   UNL     1     -20.149  -3.007   2.750  0.00  0.00    +0.000 HD
ATOM     25  H   UNL     1     -21.553  -4.087   2.917  0.00  0.00    +0.000 HD
BRANCH  23  27
ATOM     26  O   UNL     1     -20.217  -6.067   2.093  0.00  0.00    +0.000 OA
ATOM     27  C   UNL     1     -19.698  -5.084   2.618  0.00  0.00    +0.000 C 
BRANCH  27  28
ATOM     28  C   UNL     1     -18.200  -4.954   2.713  0.00  0.00    +0.000 C 
ATOM     29  H   UNL     1     -17.937  -4.386   3.608  0.00  0.00    +0.000 HD
ATOM     30  H   UNL     1     -17.749  -5.949   2.750  0.00  0.00    +0.000 HD
ATOM     31  H   UNL     1     -17.819  -4.426   1.834  0.00  0.00    +0.000 HD
ENDBRANCH  27  28
ENDBRANCH  23  27
ENDBRANCH  20  23
ENDBRANCH  17  20
ENDBRANCH   1  17
TORSDOF 9
ENDMDL
