MODEL 1
REMARK VINA RESULT:    -5.225      0.000      0.000
REMARK INTER + INTRA:          -8.992
REMARK INTER:                  -7.812
REMARK INTRA:                  -1.180
REMARK UNBOUND:                -0.712
REMARK  Name = 22556
REMARK  11 active torsions:
REMARK  status: ('A' for Active; 'I' for Inactive)
REMARK    1  A    between atoms: C_2  and  C_3
REMARK    2  A    between atoms: C_2  and  C_4
REMARK    3  A    between atoms: C_3  and  C_5
REMARK    4  A    between atoms: C_4  and  C_6
REMARK    5  A    between atoms: C_5  and  C_7
REMARK    6  A    between atoms: C_6  and  C_8
REMARK    7  A    between atoms: C_7  and  C_9
REMARK    8  A    between atoms: C_8  and  C_10
REMARK    9  A    between atoms: C_9  and  C_11
REMARK   10  A    between atoms: C_10  and  C_12
REMARK   11  A    between atoms: C_12  and  C_13
REMARK                            x       y       z     vdW  Elec       q    Type
REMARK                         _______ _______ _______ _____ _____    ______ ____
ROOT
ATOM      1  C   UNL     1       7.763  10.092  -0.327  0.00  0.00    +0.000 C 
ATOM      2  H   UNL     1       8.793  10.356  -0.595  0.00  0.00    +0.000 HD
ATOM      3  H   UNL     1       7.670  10.214   0.759  0.00  0.00    +0.000 HD
ENDROOT
BRANCH   1   4
ATOM      4  C   UNL     1       6.786  11.033  -1.037  0.00  0.00    +0.000 C 
ATOM      5  H   UNL     1       6.018  10.448  -1.557  0.00  0.00    +0.000 HD
ATOM      6  H   UNL     1       7.321  11.614  -1.797  0.00  0.00    +0.000 HD
BRANCH   4   7
ATOM      7  C   UNL     1       6.113  11.984  -0.044  0.00  0.00    +0.000 C 
ATOM      8  H   UNL     1       6.728  12.061   0.861  0.00  0.00    +0.000 HD
ATOM      9  H   UNL     1       6.071  12.989  -0.484  0.00  0.00    +0.000 HD
BRANCH   7  10
ATOM     10  C   UNL     1       4.698  11.552   0.349  0.00  0.00    +0.000 C 
ATOM     11  H   UNL     1       4.058  12.440   0.422  0.00  0.00    +0.000 HD
ATOM     12  H   UNL     1       4.730  11.103   1.351  0.00  0.00    +0.000 HD
BRANCH  10  13
ATOM     13  C   UNL     1       4.074  10.553  -0.626  0.00  0.00    +0.000 C 
ATOM     14  H   UNL     1       4.863  10.050  -1.197  0.00  0.00    +0.000 HD
ATOM     15  H   UNL     1       3.531   9.779  -0.070  0.00  0.00    +0.000 HD
BRANCH  13  16
ATOM     16  C   UNL     1       3.114  11.241  -1.586  0.00  0.00    +0.000 C 
ATOM     17  H   UNL     1       2.341  10.547  -1.930  0.00  0.00    +0.000 HD
ATOM     18  H   UNL     1       3.645  11.627  -2.462  0.00  0.00    +0.000 HD
ATOM     19  H   UNL     1       2.620  12.082  -1.090  0.00  0.00    +0.000 HD
ENDBRANCH  13  16
ENDBRANCH  10  13
ENDBRANCH   7  10
ENDBRANCH   4   7
ENDBRANCH   1   4
BRANCH   1  20
ATOM     20  C   UNL     1       7.495   8.632  -0.699  0.00  0.00    +0.000 C 
ATOM     21  H   UNL     1       8.450   8.100  -0.799  0.00  0.00    +0.000 HD
ATOM     22  H   UNL     1       7.009   8.595  -1.681  0.00  0.00    +0.000 HD
BRANCH  20  23
ATOM     23  C   UNL     1       6.617   7.896   0.317  0.00  0.00    +0.000 C 
ATOM     24  H   UNL     1       6.903   6.837   0.340  0.00  0.00    +0.000 HD
ATOM     25  H   UNL     1       5.572   7.935  -0.017  0.00  0.00    +0.000 HD
BRANCH  23  26
ATOM     26  C   UNL     1       6.717   8.470   1.735  0.00  0.00    +0.000 C 
ATOM     27  H   UNL     1       7.169   9.469   1.696  0.00  0.00    +0.000 HD
ATOM     28  H   UNL     1       7.392   7.845   2.331  0.00  0.00    +0.000 HD
BRANCH  26  29
ATOM     29  C   UNL     1       5.356   8.555   2.424  0.00  0.00    +0.000 C 
ATOM     30  H   UNL     1       4.660   7.851   1.953  0.00  0.00    +0.000 HD
ATOM     31  H   UNL     1       4.950   9.567   2.313  0.00  0.00    +0.000 HD
BRANCH  29  33
ATOM     32  O   UNL     1       4.797   8.890   4.754  0.00  0.00    +0.000 OA
ATOM     33  C   UNL     1       5.398   8.230   3.908  0.00  0.00    +0.000 C 
BRANCH  33  34
ATOM     34  C   UNL     1       6.255   7.057   4.306  0.00  0.00    +0.000 C 
ATOM     35  H   UNL     1       7.281   7.221   3.966  0.00  0.00    +0.000 HD
ATOM     36  H   UNL     1       5.874   6.145   3.840  0.00  0.00    +0.000 HD
ATOM     37  H   UNL     1       6.232   6.939   5.393  0.00  0.00    +0.000 HD
ENDBRANCH  33  34
ENDBRANCH  29  33
ENDBRANCH  26  29
ENDBRANCH  23  26
ENDBRANCH  20  23
ENDBRANCH   1  20
TORSDOF 11
ENDMDL
MODEL 2
REMARK VINA RESULT:    -4.901      2.381      5.361
REMARK INTER + INTRA:          -8.478
REMARK INTER:                  -7.490
REMARK INTRA:                  -0.989
REMARK UNBOUND:                -0.712
REMARK  Name = 22556
REMARK  11 active torsions:
REMARK  status: ('A' for Active; 'I' for Inactive)
REMARK    1  A    between atoms: C_2  and  C_3
REMARK    2  A    between atoms: C_2  and  C_4
REMARK    3  A    between atoms: C_3  and  C_5
REMARK    4  A    between atoms: C_4  and  C_6
REMARK    5  A    between atoms: C_5  and  C_7
REMARK    6  A    between atoms: C_6  and  C_8
REMARK    7  A    between atoms: C_7  and  C_9
REMARK    8  A    between atoms: C_8  and  C_10
REMARK    9  A    between atoms: C_9  and  C_11
REMARK   10  A    between atoms: C_10  and  C_12
REMARK   11  A    between atoms: C_12  and  C_13
REMARK                            x       y       z     vdW  Elec       q    Type
REMARK                         _______ _______ _______ _____ _____    ______ ____
ROOT
ATOM      1  C   UNL     1       3.696   9.417   0.749  0.00  0.00    +0.000 C 
ATOM      2  H   UNL     1       4.720   9.177   0.441  0.00  0.00    +0.000 HD
ATOM      3  H   UNL     1       3.032   9.109  -0.070  0.00  0.00    +0.000 HD
ENDROOT
BRANCH   1   4
ATOM      4  C   UNL     1       3.340   8.641   2.019  0.00  0.00    +0.000 C 
ATOM      5  H   UNL     1       3.284   7.569   1.797  0.00  0.00    +0.000 HD
ATOM      6  H   UNL     1       2.350   8.950   2.375  0.00  0.00    +0.000 HD
BRANCH   4   7
ATOM      7  C   UNL     1       4.377   8.876   3.121  0.00  0.00    +0.000 C 
ATOM      8  H   UNL     1       4.382   9.938   3.396  0.00  0.00    +0.000 HD
ATOM      9  H   UNL     1       4.079   8.318   4.018  0.00  0.00    +0.000 HD
BRANCH   7  10
ATOM     10  C   UNL     1       5.794   8.456   2.722  0.00  0.00    +0.000 C 
ATOM     11  H   UNL     1       6.507   9.208   3.084  0.00  0.00    +0.000 HD
ATOM     12  H   UNL     1       5.868   8.453   1.627  0.00  0.00    +0.000 HD
BRANCH  10  13
ATOM     13  C   UNL     1       6.194   7.079   3.253  0.00  0.00    +0.000 C 
ATOM     14  H   UNL     1       5.622   6.301   2.733  0.00  0.00    +0.000 HD
ATOM     15  H   UNL     1       7.255   6.895   3.049  0.00  0.00    +0.000 HD
BRANCH  13  16
ATOM     16  C   UNL     1       5.949   6.971   4.751  0.00  0.00    +0.000 C 
ATOM     17  H   UNL     1       4.960   6.549   4.956  0.00  0.00    +0.000 HD
ATOM     18  H   UNL     1       6.011   7.952   5.231  0.00  0.00    +0.000 HD
ATOM     19  H   UNL     1       6.698   6.319   5.211  0.00  0.00    +0.000 HD
ENDBRANCH  13  16
ENDBRANCH  10  13
ENDBRANCH   7  10
ENDBRANCH   4   7
ENDBRANCH   1   4
BRANCH   1  20
ATOM     20  C   UNL     1       3.567  10.926   0.967  0.00  0.00    +0.000 C 
ATOM     21  H   UNL     1       3.721  11.154   2.029  0.00  0.00    +0.000 HD
ATOM     22  H   UNL     1       2.544  11.238   0.721  0.00  0.00    +0.000 HD
BRANCH  20  23
ATOM     23  C   UNL     1       4.551  11.748   0.130  0.00  0.00    +0.000 C 
ATOM     24  H   UNL     1       5.206  12.317   0.802  0.00  0.00    +0.000 HD
ATOM     25  H   UNL     1       3.991  12.483  -0.463  0.00  0.00    +0.000 HD
BRANCH  23  26
ATOM     26  C   UNL     1       5.415  10.894  -0.804  0.00  0.00    +0.000 C 
ATOM     27  H   UNL     1       5.237  11.192  -1.845  0.00  0.00    +0.000 HD
ATOM     28  H   UNL     1       5.108   9.845  -0.722  0.00  0.00    +0.000 HD
BRANCH  26  29
ATOM     29  C   UNL     1       6.905  11.017  -0.489  0.00  0.00    +0.000 C 
ATOM     30  H   UNL     1       7.048  11.078   0.596  0.00  0.00    +0.000 HD
ATOM     31  H   UNL     1       7.303  11.932  -0.942  0.00  0.00    +0.000 HD
BRANCH  29  33
ATOM     32  O   UNL     1       8.776   9.996  -1.634  0.00  0.00    +0.000 OA
ATOM     33  C   UNL     1       7.738   9.849  -0.992  0.00  0.00    +0.000 C 
BRANCH  33  34
ATOM     34  C   UNL     1       7.201   8.474  -0.691  0.00  0.00    +0.000 C 
ATOM     35  H   UNL     1       8.014   7.832  -0.340  0.00  0.00    +0.000 HD
ATOM     36  H   UNL     1       6.777   8.035  -1.598  0.00  0.00    +0.000 HD
ATOM     37  H   UNL     1       6.419   8.544   0.069  0.00  0.00    +0.000 HD
ENDBRANCH  33  34
ENDBRANCH  29  33
ENDBRANCH  26  29
ENDBRANCH  23  26
ENDBRANCH  20  23
ENDBRANCH   1  20
TORSDOF 11
ENDMDL
MODEL 3
REMARK VINA RESULT:    -4.690     13.934     15.268
REMARK INTER + INTRA:          -8.144
REMARK INTER:                  -7.140
REMARK INTRA:                  -1.004
REMARK UNBOUND:                -0.712
REMARK  Name = 22556
REMARK  11 active torsions:
REMARK  status: ('A' for Active; 'I' for Inactive)
REMARK    1  A    between atoms: C_2  and  C_3
REMARK    2  A    between atoms: C_2  and  C_4
REMARK    3  A    between atoms: C_3  and  C_5
REMARK    4  A    between atoms: C_4  and  C_6
REMARK    5  A    between atoms: C_5  and  C_7
REMARK    6  A    between atoms: C_6  and  C_8
REMARK    7  A    between atoms: C_7  and  C_9
REMARK    8  A    between atoms: C_8  and  C_10
REMARK    9  A    between atoms: C_9  and  C_11
REMARK   10  A    between atoms: C_10  and  C_12
REMARK   11  A    between atoms: C_12  and  C_13
REMARK                            x       y       z     vdW  Elec       q    Type
REMARK                         _______ _______ _______ _____ _____    ______ ____
ROOT
ATOM      1  C   UNL     1      -8.033  10.856   5.244  0.00  0.00    +0.000 C 
ATOM      2  H   UNL     1      -8.417  10.108   4.540  0.00  0.00    +0.000 HD
ATOM      3  H   UNL     1      -7.501  10.312   6.035  0.00  0.00    +0.000 HD
ENDROOT
BRANCH   1   4
ATOM      4  C   UNL     1      -7.063  11.796   4.524  0.00  0.00    +0.000 C 
ATOM      5  H   UNL     1      -7.194  11.706   3.439  0.00  0.00    +0.000 HD
ATOM      6  H   UNL     1      -6.031  11.504   4.751  0.00  0.00    +0.000 HD
BRANCH   4   7
ATOM      7  C   UNL     1      -7.289  13.251   4.942  0.00  0.00    +0.000 C 
ATOM      8  H   UNL     1      -7.411  13.873   4.046  0.00  0.00    +0.000 HD
ATOM      9  H   UNL     1      -8.228  13.320   5.505  0.00  0.00    +0.000 HD
BRANCH   7  10
ATOM     10  C   UNL     1      -6.153  13.822   5.796  0.00  0.00    +0.000 C 
ATOM     11  H   UNL     1      -5.688  14.661   5.262  0.00  0.00    +0.000 HD
ATOM     12  H   UNL     1      -5.378  13.054   5.914  0.00  0.00    +0.000 HD
BRANCH  10  13
ATOM     13  C   UNL     1      -6.608  14.289   7.179  0.00  0.00    +0.000 C 
ATOM     14  H   UNL     1      -6.341  15.343   7.321  0.00  0.00    +0.000 HD
ATOM     15  H   UNL     1      -7.700  14.218   7.255  0.00  0.00    +0.000 HD
BRANCH  13  16
ATOM     16  C   UNL     1      -5.976  13.454   8.282  0.00  0.00    +0.000 C 
ATOM     17  H   UNL     1      -4.916  13.274   8.078  0.00  0.00    +0.000 HD
ATOM     18  H   UNL     1      -6.477  12.485   8.377  0.00  0.00    +0.000 HD
ATOM     19  H   UNL     1      -6.055  13.972   9.242  0.00  0.00    +0.000 HD
ENDBRANCH  13  16
ENDBRANCH  10  13
ENDBRANCH   7  10
ENDBRANCH   4   7
ENDBRANCH   1   4
BRANCH   1  20
ATOM     20  C   UNL     1      -9.202  11.630   5.857  0.00  0.00    +0.000 C 
ATOM     21  H   UNL     1     -10.033  11.662   5.141  0.00  0.00    +0.000 HD
ATOM     22  H   UNL     1      -8.893  12.668   6.031  0.00  0.00    +0.000 HD
BRANCH  20  23
ATOM     23  C   UNL     1      -9.701  11.033   7.177  0.00  0.00    +0.000 C 
ATOM     24  H   UNL     1     -10.311  10.146   6.962  0.00  0.00    +0.000 HD
ATOM     25  H   UNL     1     -10.361  11.758   7.671  0.00  0.00    +0.000 HD
BRANCH  23  26
ATOM     26  C   UNL     1      -8.570  10.642   8.133  0.00  0.00    +0.000 C 
ATOM     27  H   UNL     1      -8.641  11.238   9.051  0.00  0.00    +0.000 HD
ATOM     28  H   UNL     1      -7.606  10.890   7.673  0.00  0.00    +0.000 HD
BRANCH  26  29
ATOM     29  C   UNL     1      -8.599   9.156   8.489  0.00  0.00    +0.000 C 
ATOM     30  H   UNL     1      -8.091   8.580   7.707  0.00  0.00    +0.000 HD
ATOM     31  H   UNL     1      -9.638   8.813   8.550  0.00  0.00    +0.000 HD
BRANCH  29  33
ATOM     32  O   UNL     1      -8.361   7.990  10.595  0.00  0.00    +0.000 OA
ATOM     33  C   UNL     1      -7.921   8.827   9.809  0.00  0.00    +0.000 C 
BRANCH  33  34
ATOM     34  C   UNL     1      -6.680   9.616  10.132  0.00  0.00    +0.000 C 
ATOM     35  H   UNL     1      -6.934  10.441  10.804  0.00  0.00    +0.000 HD
ATOM     36  H   UNL     1      -6.256  10.031   9.214  0.00  0.00    +0.000 HD
ATOM     37  H   UNL     1      -5.941   8.962  10.602  0.00  0.00    +0.000 HD
ENDBRANCH  33  34
ENDBRANCH  29  33
ENDBRANCH  26  29
ENDBRANCH  23  26
ENDBRANCH  20  23
ENDBRANCH   1  20
TORSDOF 11
ENDMDL
MODEL 4
REMARK VINA RESULT:    -4.663     13.878     15.950
REMARK INTER + INTRA:          -8.102
REMARK INTER:                  -6.812
REMARK INTRA:                  -1.290
REMARK UNBOUND:                -0.712
REMARK  Name = 22556
REMARK  11 active torsions:
REMARK  status: ('A' for Active; 'I' for Inactive)
REMARK    1  A    between atoms: C_2  and  C_3
REMARK    2  A    between atoms: C_2  and  C_4
REMARK    3  A    between atoms: C_3  and  C_5
REMARK    4  A    between atoms: C_4  and  C_6
REMARK    5  A    between atoms: C_5  and  C_7
REMARK    6  A    between atoms: C_6  and  C_8
REMARK    7  A    between atoms: C_7  and  C_9
REMARK    8  A    between atoms: C_8  and  C_10
REMARK    9  A    between atoms: C_9  and  C_11
REMARK   10  A    between atoms: C_10  and  C_12
REMARK   11  A    between atoms: C_12  and  C_13
REMARK                            x       y       z     vdW  Elec       q    Type
REMARK                         _______ _______ _______ _____ _____    ______ ____
ROOT
ATOM      1  C   UNL     1      -2.724   9.754  -9.930  0.00  0.00    +0.000 C 
ATOM      2  H   UNL     1      -3.183   9.423 -10.870  0.00  0.00    +0.000 HD
ATOM      3  H   UNL     1      -3.265  10.652  -9.605  0.00  0.00    +0.000 HD
ENDROOT
BRANCH   1   4
ATOM      4  C   UNL     1      -2.862   8.658  -8.871  0.00  0.00    +0.000 C 
ATOM      5  H   UNL     1      -3.691   8.896  -8.195  0.00  0.00    +0.000 HD
ATOM      6  H   UNL     1      -1.950   8.616  -8.264  0.00  0.00    +0.000 HD
BRANCH   4   7
ATOM      7  C   UNL     1      -3.111   7.292  -9.516  0.00  0.00    +0.000 C 
ATOM      8  H   UNL     1      -2.152   6.784  -9.676  0.00  0.00    +0.000 HD
ATOM      9  H   UNL     1      -3.687   6.667  -8.821  0.00  0.00    +0.000 HD
BRANCH   7  10
ATOM     10  C   UNL     1      -3.859   7.376 -10.849  0.00  0.00    +0.000 C 
ATOM     11  H   UNL     1      -4.068   8.428 -11.079  0.00  0.00    +0.000 HD
ATOM     12  H   UNL     1      -4.832   6.877 -10.742  0.00  0.00    +0.000 HD
BRANCH  10  13
ATOM     13  C   UNL     1      -3.100   6.742 -12.014  0.00  0.00    +0.000 C 
ATOM     14  H   UNL     1      -3.492   5.737 -12.210  0.00  0.00    +0.000 HD
ATOM     15  H   UNL     1      -3.253   7.334 -12.925  0.00  0.00    +0.000 HD
BRANCH  13  16
ATOM     16  C   UNL     1      -1.609   6.654 -11.723  0.00  0.00    +0.000 C 
ATOM     17  H   UNL     1      -1.356   7.203 -10.810  0.00  0.00    +0.000 HD
ATOM     18  H   UNL     1      -1.022   7.070 -12.548  0.00  0.00    +0.000 HD
ATOM     19  H   UNL     1      -1.310   5.610 -11.586  0.00  0.00    +0.000 HD
ENDBRANCH  13  16
ENDBRANCH  10  13
ENDBRANCH   7  10
ENDBRANCH   4   7
ENDBRANCH   1   4
BRANCH   1  20
ATOM     20  C   UNL     1      -1.255  10.107 -10.174  0.00  0.00    +0.000 C 
ATOM     21  H   UNL     1      -0.616   9.409  -9.619  0.00  0.00    +0.000 HD
ATOM     22  H   UNL     1      -1.055  11.107  -9.771  0.00  0.00    +0.000 HD
BRANCH  20  23
ATOM     23  C   UNL     1      -0.860  10.080 -11.654  0.00  0.00    +0.000 C 
ATOM     24  H   UNL     1      -0.335   9.141 -11.868  0.00  0.00    +0.000 HD
ATOM     25  H   UNL     1      -0.149  10.892 -11.850  0.00  0.00    +0.000 HD
BRANCH  23  26
ATOM     26  C   UNL     1      -2.055  10.211 -12.604  0.00  0.00    +0.000 C 
ATOM     27  H   UNL     1      -2.336  11.268 -12.698  0.00  0.00    +0.000 HD
ATOM     28  H   UNL     1      -2.920   9.696 -12.170  0.00  0.00    +0.000 HD
BRANCH  26  29
ATOM     29  C   UNL     1      -1.760   9.638 -13.989  0.00  0.00    +0.000 C 
ATOM     30  H   UNL     1      -2.602   9.845 -14.660  0.00  0.00    +0.000 HD
ATOM     31  H   UNL     1      -1.635   8.551 -13.918  0.00  0.00    +0.000 HD
BRANCH  29  33
ATOM     32  O   UNL     1      -0.387  11.401 -14.916  0.00  0.00    +0.000 OA
ATOM     33  C   UNL     1      -0.510  10.209 -14.637  0.00  0.00    +0.000 C 
BRANCH  33  34
ATOM     34  C   UNL     1       0.580   9.222 -14.961  0.00  0.00    +0.000 C 
ATOM     35  H   UNL     1       0.394   8.780 -15.945  0.00  0.00    +0.000 HD
ATOM     36  H   UNL     1       0.589   8.423 -14.216  0.00  0.00    +0.000 HD
ATOM     37  H   UNL     1       1.548   9.729 -14.952  0.00  0.00    +0.000 HD
ENDBRANCH  33  34
ENDBRANCH  29  33
ENDBRANCH  26  29
ENDBRANCH  23  26
ENDBRANCH  20  23
ENDBRANCH   1  20
TORSDOF 11
ENDMDL
MODEL 5
REMARK VINA RESULT:    -4.566      2.695      5.853
REMARK INTER + INTRA:          -7.948
REMARK INTER:                  -7.236
REMARK INTRA:                  -0.712
REMARK UNBOUND:                -0.712
REMARK  Name = 22556
REMARK  11 active torsions:
REMARK  status: ('A' for Active; 'I' for Inactive)
REMARK    1  A    between atoms: C_2  and  C_3
REMARK    2  A    between atoms: C_2  and  C_4
REMARK    3  A    between atoms: C_3  and  C_5
REMARK    4  A    between atoms: C_4  and  C_6
REMARK    5  A    between atoms: C_5  and  C_7
REMARK    6  A    between atoms: C_6  and  C_8
REMARK    7  A    between atoms: C_7  and  C_9
REMARK    8  A    between atoms: C_8  and  C_10
REMARK    9  A    between atoms: C_9  and  C_11
REMARK   10  A    between atoms: C_10  and  C_12
REMARK   11  A    between atoms: C_12  and  C_13
REMARK                            x       y       z     vdW  Elec       q    Type
REMARK                         _______ _______ _______ _____ _____    ______ ____
ROOT
ATOM      1  C   UNL     1       4.961   7.231   3.494  0.00  0.00    +0.000 C 
ATOM      2  H   UNL     1       5.545   6.894   2.629  0.00  0.00    +0.000 HD
ATOM      3  H   UNL     1       4.171   6.488   3.660  0.00  0.00    +0.000 HD
ENDROOT
BRANCH   1   4
ATOM      4  C   UNL     1       5.861   7.311   4.729  0.00  0.00    +0.000 C 
ATOM      5  H   UNL     1       6.251   6.315   4.970  0.00  0.00    +0.000 HD
ATOM      6  H   UNL     1       5.274   7.646   5.591  0.00  0.00    +0.000 HD
BRANCH   4   7
ATOM      7  C   UNL     1       7.032   8.271   4.501  0.00  0.00    +0.000 C 
ATOM      8  H   UNL     1       7.712   7.846   3.753  0.00  0.00    +0.000 HD
ATOM      9  H   UNL     1       6.648   9.210   4.082  0.00  0.00    +0.000 HD
BRANCH   7  10
ATOM     10  C   UNL     1       7.822   8.580   5.776  0.00  0.00    +0.000 C 
ATOM     11  H   UNL     1       8.869   8.775   5.511  0.00  0.00    +0.000 HD
ATOM     12  H   UNL     1       7.819   7.691   6.419  0.00  0.00    +0.000 HD
BRANCH  10  13
ATOM     13  C   UNL     1       7.267   9.768   6.562  0.00  0.00    +0.000 C 
ATOM     14  H   UNL     1       6.614  10.368   5.917  0.00  0.00    +0.000 HD
ATOM     15  H   UNL     1       6.655   9.407   7.398  0.00  0.00    +0.000 HD
BRANCH  13  16
ATOM     16  C   UNL     1       8.385  10.644   7.107  0.00  0.00    +0.000 C 
ATOM     17  H   UNL     1       9.363  10.188   6.927  0.00  0.00    +0.000 HD
ATOM     18  H   UNL     1       8.272  10.801   8.184  0.00  0.00    +0.000 HD
ATOM     19  H   UNL     1       8.371  11.623   6.618  0.00  0.00    +0.000 HD
ENDBRANCH  13  16
ENDBRANCH  10  13
ENDBRANCH   7  10
ENDBRANCH   4   7
ENDBRANCH   1   4
BRANCH   1  20
ATOM     20  C   UNL     1       4.325   8.589   3.184  0.00  0.00    +0.000 C 
ATOM     21  H   UNL     1       5.114   9.340   3.059  0.00  0.00    +0.000 HD
ATOM     22  H   UNL     1       3.719   8.905   4.041  0.00  0.00    +0.000 HD
BRANCH  20  23
ATOM     23  C   UNL     1       3.443   8.576   1.931  0.00  0.00    +0.000 C 
ATOM     24  H   UNL     1       2.431   8.900   2.201  0.00  0.00    +0.000 HD
ATOM     25  H   UNL     1       3.358   7.545   1.563  0.00  0.00    +0.000 HD
BRANCH  23  26
ATOM     26  C   UNL     1       3.972   9.473   0.807  0.00  0.00    +0.000 C 
ATOM     27  H   UNL     1       4.049  10.507   1.167  0.00  0.00    +0.000 HD
ATOM     28  H   UNL     1       3.250   9.482  -0.018  0.00  0.00    +0.000 HD
BRANCH  26  29
ATOM     29  C   UNL     1       5.334   9.012   0.289  0.00  0.00    +0.000 C 
ATOM     30  H   UNL     1       5.261   8.774  -0.778  0.00  0.00    +0.000 HD
ATOM     31  H   UNL     1       5.644   8.108   0.825  0.00  0.00    +0.000 HD
BRANCH  29  33
ATOM     32  O   UNL     1       6.311  11.216   0.083  0.00  0.00    +0.000 OA
ATOM     33  C   UNL     1       6.435  10.049   0.449  0.00  0.00    +0.000 C 
BRANCH  33  34
ATOM     34  C   UNL     1       7.722   9.560   1.058  0.00  0.00    +0.000 C 
ATOM     35  H   UNL     1       8.372   9.164   0.273  0.00  0.00    +0.000 HD
ATOM     36  H   UNL     1       7.513   8.762   1.775  0.00  0.00    +0.000 HD
ATOM     37  H   UNL     1       8.218  10.384   1.578  0.00  0.00    +0.000 HD
ENDBRANCH  33  34
ENDBRANCH  29  33
ENDBRANCH  26  29
ENDBRANCH  23  26
ENDBRANCH  20  23
ENDBRANCH   1  20
TORSDOF 11
ENDMDL
MODEL 6
REMARK VINA RESULT:    -4.548      2.867      6.182
REMARK INTER + INTRA:          -7.919
REMARK INTER:                  -7.529
REMARK INTRA:                  -0.390
REMARK UNBOUND:                -0.712
REMARK  Name = 22556
REMARK  11 active torsions:
REMARK  status: ('A' for Active; 'I' for Inactive)
REMARK    1  A    between atoms: C_2  and  C_3
REMARK    2  A    between atoms: C_2  and  C_4
REMARK    3  A    between atoms: C_3  and  C_5
REMARK    4  A    between atoms: C_4  and  C_6
REMARK    5  A    between atoms: C_5  and  C_7
REMARK    6  A    between atoms: C_6  and  C_8
REMARK    7  A    between atoms: C_7  and  C_9
REMARK    8  A    between atoms: C_8  and  C_10
REMARK    9  A    between atoms: C_9  and  C_11
REMARK   10  A    between atoms: C_10  and  C_12
REMARK   11  A    between atoms: C_12  and  C_13
REMARK                            x       y       z     vdW  Elec       q    Type
REMARK                         _______ _______ _______ _____ _____    ______ ____
ROOT
ATOM      1  C   UNL     1       6.825   8.072   3.604  0.00  0.00    +0.000 C 
ATOM      2  H   UNL     1       7.266   9.045   3.354  0.00  0.00    +0.000 HD
ATOM      3  H   UNL     1       7.652   7.357   3.700  0.00  0.00    +0.000 HD
ENDROOT
BRANCH   1   4
ATOM      4  C   UNL     1       6.073   8.170   4.934  0.00  0.00    +0.000 C 
ATOM      5  H   UNL     1       6.081   7.197   5.439  0.00  0.00    +0.000 HD
ATOM      6  H   UNL     1       5.025   8.429   4.745  0.00  0.00    +0.000 HD
BRANCH   4   7
ATOM      7  C   UNL     1       6.703   9.222   5.851  0.00  0.00    +0.000 C 
ATOM      8  H   UNL     1       6.171  10.174   5.733  0.00  0.00    +0.000 HD
ATOM      9  H   UNL     1       6.569   8.912   6.895  0.00  0.00    +0.000 HD
BRANCH   7  10
ATOM     10  C   UNL     1       8.194   9.446   5.585  0.00  0.00    +0.000 C 
ATOM     11  H   UNL     1       8.319   9.904   4.595  0.00  0.00    +0.000 HD
ATOM     12  H   UNL     1       8.698   8.472   5.547  0.00  0.00    +0.000 HD
BRANCH  10  13
ATOM     13  C   UNL     1       8.875  10.320   6.639  0.00  0.00    +0.000 C 
ATOM     14  H   UNL     1       9.964  10.224   6.553  0.00  0.00    +0.000 HD
ATOM     15  H   UNL     1       8.627  11.374   6.465  0.00  0.00    +0.000 HD
BRANCH  13  16
ATOM     16  C   UNL     1       8.442   9.933   8.045  0.00  0.00    +0.000 C 
ATOM     17  H   UNL     1       7.381  10.151   8.202  0.00  0.00    +0.000 HD
ATOM     18  H   UNL     1       9.021  10.477   8.798  0.00  0.00    +0.000 HD
ATOM     19  H   UNL     1       8.596   8.861   8.207  0.00  0.00    +0.000 HD
ENDBRANCH  13  16
ENDBRANCH  10  13
ENDBRANCH   7  10
ENDBRANCH   4   7
ENDBRANCH   1   4
BRANCH   1  20
ATOM     20  C   UNL     1       5.896   7.625   2.474  0.00  0.00    +0.000 C 
ATOM     21  H   UNL     1       4.856   7.668   2.820  0.00  0.00    +0.000 HD
ATOM     22  H   UNL     1       6.106   6.577   2.230  0.00  0.00    +0.000 HD
BRANCH  20  23
ATOM     23  C   UNL     1       6.035   8.468   1.202  0.00  0.00    +0.000 C 
ATOM     24  H   UNL     1       6.424   7.836   0.394  0.00  0.00    +0.000 HD
ATOM     25  H   UNL     1       6.779   9.256   1.374  0.00  0.00    +0.000 HD
BRANCH  23  26
ATOM     26  C   UNL     1       4.718   9.105   0.748  0.00  0.00    +0.000 C 
ATOM     27  H   UNL     1       3.988   9.064   1.566  0.00  0.00    +0.000 HD
ATOM     28  H   UNL     1       4.297   8.516  -0.075  0.00  0.00    +0.000 HD
BRANCH  26  29
ATOM     29  C   UNL     1       4.898  10.554   0.301  0.00  0.00    +0.000 C 
ATOM     30  H   UNL     1       5.571  10.592  -0.564  0.00  0.00    +0.000 HD
ATOM     31  H   UNL     1       5.347  11.137   1.113  0.00  0.00    +0.000 HD
BRANCH  29  33
ATOM     32  O   UNL     1       2.856  11.787   0.708  0.00  0.00    +0.000 OA
ATOM     33  C   UNL     1       3.602  11.239  -0.102  0.00  0.00    +0.000 C 
BRANCH  33  34
ATOM     34  C   UNL     1       3.249  11.183  -1.565  0.00  0.00    +0.000 C 
ATOM     35  H   UNL     1       3.777  11.977  -2.101  0.00  0.00    +0.000 HD
ATOM     36  H   UNL     1       2.173  11.331  -1.692  0.00  0.00    +0.000 HD
ATOM     37  H   UNL     1       3.524  10.206  -1.971  0.00  0.00    +0.000 HD
ENDBRANCH  33  34
ENDBRANCH  29  33
ENDBRANCH  26  29
ENDBRANCH  23  26
ENDBRANCH  20  23
ENDBRANCH   1  20
TORSDOF 11
ENDMDL
MODEL 7
REMARK VINA RESULT:    -4.520     13.625     15.213
REMARK INTER + INTRA:          -7.874
REMARK INTER:                  -7.093
REMARK INTRA:                  -0.781
REMARK UNBOUND:                -0.712
REMARK  Name = 22556
REMARK  11 active torsions:
REMARK  status: ('A' for Active; 'I' for Inactive)
REMARK    1  A    between atoms: C_2  and  C_3
REMARK    2  A    between atoms: C_2  and  C_4
REMARK    3  A    between atoms: C_3  and  C_5
REMARK    4  A    between atoms: C_4  and  C_6
REMARK    5  A    between atoms: C_5  and  C_7
REMARK    6  A    between atoms: C_6  and  C_8
REMARK    7  A    between atoms: C_7  and  C_9
REMARK    8  A    between atoms: C_8  and  C_10
REMARK    9  A    between atoms: C_9  and  C_11
REMARK   10  A    between atoms: C_10  and  C_12
REMARK   11  A    between atoms: C_12  and  C_13
REMARK                            x       y       z     vdW  Elec       q    Type
REMARK                         _______ _______ _______ _____ _____    ______ ____
ROOT
ATOM      1  C   UNL     1      -8.390  11.090   6.853  0.00  0.00    +0.000 C 
ATOM      2  H   UNL     1      -7.413  11.139   7.348  0.00  0.00    +0.000 HD
ATOM      3  H   UNL     1      -8.862  12.073   6.973  0.00  0.00    +0.000 HD
ENDROOT
BRANCH   1   4
ATOM      4  C   UNL     1      -8.202  10.787   5.364  0.00  0.00    +0.000 C 
ATOM      5  H   UNL     1      -9.177  10.771   4.863  0.00  0.00    +0.000 HD
ATOM      6  H   UNL     1      -7.759   9.792   5.244  0.00  0.00    +0.000 HD
BRANCH   4   7
ATOM      7  C   UNL     1      -7.306  11.832   4.695  0.00  0.00    +0.000 C 
ATOM      8  H   UNL     1      -6.402  11.978   5.300  0.00  0.00    +0.000 HD
ATOM      9  H   UNL     1      -6.975  11.448   3.721  0.00  0.00    +0.000 HD
BRANCH   7  10
ATOM     10  C   UNL     1      -7.994  13.184   4.490  0.00  0.00    +0.000 C 
ATOM     11  H   UNL     1      -8.989  13.155   4.952  0.00  0.00    +0.000 HD
ATOM     12  H   UNL     1      -8.150  13.343   3.415  0.00  0.00    +0.000 HD
BRANCH  10  13
ATOM     13  C   UNL     1      -7.203  14.362   5.059  0.00  0.00    +0.000 C 
ATOM     14  H   UNL     1      -7.139  15.161   4.312  0.00  0.00    +0.000 HD
ATOM     15  H   UNL     1      -7.724  14.773   5.932  0.00  0.00    +0.000 HD
BRANCH  13  16
ATOM     16  C   UNL     1      -5.800  13.941   5.471  0.00  0.00    +0.000 C 
ATOM     17  H   UNL     1      -5.656  14.061   6.549  0.00  0.00    +0.000 HD
ATOM     18  H   UNL     1      -5.043  14.539   4.954  0.00  0.00    +0.000 HD
ATOM     19  H   UNL     1      -5.632  12.889   5.220  0.00  0.00    +0.000 HD
ENDBRANCH  13  16
ENDBRANCH  10  13
ENDBRANCH   7  10
ENDBRANCH   4   7
ENDBRANCH   1   4
BRANCH   1  20
ATOM     20  C   UNL     1      -9.255  10.025   7.530  0.00  0.00    +0.000 C 
ATOM     21  H   UNL     1      -9.972   9.623   6.804  0.00  0.00    +0.000 HD
ATOM     22  H   UNL     1      -9.842  10.494   8.329  0.00  0.00    +0.000 HD
BRANCH  20  23
ATOM     23  C   UNL     1      -8.444   8.869   8.124  0.00  0.00    +0.000 C 
ATOM     24  H   UNL     1      -7.448   8.855   7.663  0.00  0.00    +0.000 HD
ATOM     25  H   UNL     1      -8.928   7.919   7.863  0.00  0.00    +0.000 HD
BRANCH  23  26
ATOM     26  C   UNL     1      -8.287   8.956   9.646  0.00  0.00    +0.000 C 
ATOM     27  H   UNL     1      -8.532   7.987  10.097  0.00  0.00    +0.000 HD
ATOM     28  H   UNL     1      -9.012   9.677  10.043  0.00  0.00    +0.000 HD
BRANCH  26  29
ATOM     29  C   UNL     1      -6.876   9.368  10.061  0.00  0.00    +0.000 C 
ATOM     30  H   UNL     1      -6.159   9.050   9.295  0.00  0.00    +0.000 HD
ATOM     31  H   UNL     1      -6.612   8.877  11.005  0.00  0.00    +0.000 HD
BRANCH  29  33
ATOM     32  O   UNL     1      -5.627  11.440  10.097  0.00  0.00    +0.000 OA
ATOM     33  C   UNL     1      -6.704  10.866  10.252  0.00  0.00    +0.000 C 
BRANCH  33  34
ATOM     34  C   UNL     1      -7.931  11.625  10.681  0.00  0.00    +0.000 C 
ATOM     35  H   UNL     1      -8.759  10.928  10.834  0.00  0.00    +0.000 HD
ATOM     36  H   UNL     1      -8.215  12.340   9.904  0.00  0.00    +0.000 HD
ATOM     37  H   UNL     1      -7.721  12.170  11.606  0.00  0.00    +0.000 HD
ENDBRANCH  33  34
ENDBRANCH  29  33
ENDBRANCH  26  29
ENDBRANCH  23  26
ENDBRANCH  20  23
ENDBRANCH   1  20
TORSDOF 11
ENDMDL
MODEL 8
REMARK VINA RESULT:    -4.383     14.648     16.822
REMARK INTER + INTRA:          -7.658
REMARK INTER:                  -6.945
REMARK INTRA:                  -0.712
REMARK UNBOUND:                -0.712
REMARK  Name = 22556
REMARK  11 active torsions:
REMARK  status: ('A' for Active; 'I' for Inactive)
REMARK    1  A    between atoms: C_2  and  C_3
REMARK    2  A    between atoms: C_2  and  C_4
REMARK    3  A    between atoms: C_3  and  C_5
REMARK    4  A    between atoms: C_4  and  C_6
REMARK    5  A    between atoms: C_5  and  C_7
REMARK    6  A    between atoms: C_6  and  C_8
REMARK    7  A    between atoms: C_7  and  C_9
REMARK    8  A    between atoms: C_8  and  C_10
REMARK    9  A    between atoms: C_9  and  C_11
REMARK   10  A    between atoms: C_10  and  C_12
REMARK   11  A    between atoms: C_12  and  C_13
REMARK                            x       y       z     vdW  Elec       q    Type
REMARK                         _______ _______ _______ _____ _____    ______ ____
ROOT
ATOM      1  C   UNL     1      -8.217   4.176  -8.120  0.00  0.00    +0.000 C 
ATOM      2  H   UNL     1      -8.687   5.090  -7.738  0.00  0.00    +0.000 HD
ATOM      3  H   UNL     1      -8.634   3.990  -9.118  0.00  0.00    +0.000 HD
ENDROOT
BRANCH   1   4
ATOM      4  C   UNL     1      -6.703   4.375  -8.224  0.00  0.00    +0.000 C 
ATOM      5  H   UNL     1      -6.319   3.852  -9.107  0.00  0.00    +0.000 HD
ATOM      6  H   UNL     1      -6.213   3.934  -7.348  0.00  0.00    +0.000 HD
BRANCH   4   7
ATOM      7  C   UNL     1      -6.345   5.860  -8.318  0.00  0.00    +0.000 C 
ATOM      8  H   UNL     1      -7.256   6.445  -8.495  0.00  0.00    +0.000 HD
ATOM      9  H   UNL     1      -5.938   6.192  -7.354  0.00  0.00    +0.000 HD
BRANCH   7  10
ATOM     10  C   UNL     1      -5.329   6.172  -9.421  0.00  0.00    +0.000 C 
ATOM     11  H   UNL     1      -5.747   6.936 -10.089  0.00  0.00    +0.000 HD
ATOM     12  H   UNL     1      -5.178   5.271 -10.029  0.00  0.00    +0.000 HD
BRANCH  10  13
ATOM     13  C   UNL     1      -3.978   6.647  -8.887  0.00  0.00    +0.000 C 
ATOM     14  H   UNL     1      -4.095   7.618  -8.392  0.00  0.00    +0.000 HD
ATOM     15  H   UNL     1      -3.606   5.941  -8.134  0.00  0.00    +0.000 HD
BRANCH  13  16
ATOM     16  C   UNL     1      -2.952   6.769 -10.004  0.00  0.00    +0.000 C 
ATOM     17  H   UNL     1      -3.139   7.660 -10.612  0.00  0.00    +0.000 HD
ATOM     18  H   UNL     1      -2.979   5.894 -10.660  0.00  0.00    +0.000 HD
ATOM     19  H   UNL     1      -1.944   6.849  -9.585  0.00  0.00    +0.000 HD
ENDBRANCH  13  16
ENDBRANCH  10  13
ENDBRANCH   7  10
ENDBRANCH   4   7
ENDBRANCH   1   4
BRANCH   1  20
ATOM     20  C   UNL     1      -8.560   3.001  -7.200  0.00  0.00    +0.000 C 
ATOM     21  H   UNL     1      -7.768   2.884  -6.450  0.00  0.00    +0.000 HD
ATOM     22  H   UNL     1      -8.576   2.077  -7.790  0.00  0.00    +0.000 HD
BRANCH  20  23
ATOM     23  C   UNL     1      -9.906   3.159  -6.487  0.00  0.00    +0.000 C 
ATOM     24  H   UNL     1     -10.278   2.168  -6.198  0.00  0.00    +0.000 HD
ATOM     25  H   UNL     1     -10.637   3.578  -7.191  0.00  0.00    +0.000 HD
BRANCH  23  26
ATOM     26  C   UNL     1      -9.833   4.048  -5.241  0.00  0.00    +0.000 C 
ATOM     27  H   UNL     1      -8.784   4.262  -5.003  0.00  0.00    +0.000 HD
ATOM     28  H   UNL     1     -10.243   3.502  -4.384  0.00  0.00    +0.000 HD
BRANCH  26  29
ATOM     29  C   UNL     1     -10.592   5.362  -5.421  0.00  0.00    +0.000 C 
ATOM     30  H   UNL     1     -11.349   5.461  -4.634  0.00  0.00    +0.000 HD
ATOM     31  H   UNL     1     -11.101   5.363  -6.392  0.00  0.00    +0.000 HD
BRANCH  29  33
ATOM     32  O   UNL     1     -10.132   7.734  -5.548  0.00  0.00    +0.000 OA
ATOM     33  C   UNL     1      -9.706   6.596  -5.359  0.00  0.00    +0.000 C 
BRANCH  33  34
ATOM     34  C   UNL     1      -8.246   6.351  -5.084  0.00  0.00    +0.000 C 
ATOM     35  H   UNL     1      -7.802   5.802  -5.919  0.00  0.00    +0.000 HD
ATOM     36  H   UNL     1      -8.136   5.754  -4.175  0.00  0.00    +0.000 HD
ATOM     37  H   UNL     1      -7.734   7.307  -4.946  0.00  0.00    +0.000 HD
ENDBRANCH  33  34
ENDBRANCH  29  33
ENDBRANCH  26  29
ENDBRANCH  23  26
ENDBRANCH  20  23
ENDBRANCH   1  20
TORSDOF 11
ENDMDL
MODEL 9
REMARK VINA RESULT:    -4.343     16.040     17.683
REMARK INTER + INTRA:          -7.594
REMARK INTER:                  -6.329
REMARK INTRA:                  -1.266
REMARK UNBOUND:                -0.712
REMARK  Name = 22556
REMARK  11 active torsions:
REMARK  status: ('A' for Active; 'I' for Inactive)
REMARK    1  A    between atoms: C_2  and  C_3
REMARK    2  A    between atoms: C_2  and  C_4
REMARK    3  A    between atoms: C_3  and  C_5
REMARK    4  A    between atoms: C_4  and  C_6
REMARK    5  A    between atoms: C_5  and  C_7
REMARK    6  A    between atoms: C_6  and  C_8
REMARK    7  A    between atoms: C_7  and  C_9
REMARK    8  A    between atoms: C_8  and  C_10
REMARK    9  A    between atoms: C_9  and  C_11
REMARK   10  A    between atoms: C_10  and  C_12
REMARK   11  A    between atoms: C_12  and  C_13
REMARK                            x       y       z     vdW  Elec       q    Type
REMARK                         _______ _______ _______ _____ _____    ______ ____
ROOT
ATOM      1  C   UNL     1      -9.269   3.832  -5.429  0.00  0.00    +0.000 C 
ATOM      2  H   UNL     1      -9.952   4.612  -5.785  0.00  0.00    +0.000 HD
ATOM      3  H   UNL     1      -9.842   3.183  -4.755  0.00  0.00    +0.000 HD
ENDROOT
BRANCH   1   4
ATOM      4  C   UNL     1      -8.751   3.013  -6.615  0.00  0.00    +0.000 C 
ATOM      5  H   UNL     1      -8.984   1.953  -6.464  0.00  0.00    +0.000 HD
ATOM      6  H   UNL     1      -7.660   3.101  -6.674  0.00  0.00    +0.000 HD
BRANCH   4   7
ATOM      7  C   UNL     1      -9.376   3.487  -7.929  0.00  0.00    +0.000 C 
ATOM      8  H   UNL     1      -9.711   2.618  -8.509  0.00  0.00    +0.000 HD
ATOM      9  H   UNL     1     -10.271   4.082  -7.706  0.00  0.00    +0.000 HD
BRANCH   7  10
ATOM     10  C   UNL     1      -8.424   4.324  -8.789  0.00  0.00    +0.000 C 
ATOM     11  H   UNL     1      -8.757   5.369  -8.781  0.00  0.00    +0.000 HD
ATOM     12  H   UNL     1      -8.490   3.979  -9.829  0.00  0.00    +0.000 HD
BRANCH  10  13
ATOM     13  C   UNL     1      -6.967   4.250  -8.330  0.00  0.00    +0.000 C 
ATOM     14  H   UNL     1      -6.927   4.031  -7.257  0.00  0.00    +0.000 HD
ATOM     15  H   UNL     1      -6.455   3.430  -8.848  0.00  0.00    +0.000 HD
BRANCH  13  16
ATOM     16  C   UNL     1      -6.231   5.552  -8.610  0.00  0.00    +0.000 C 
ATOM     17  H   UNL     1      -6.278   6.221  -7.745  0.00  0.00    +0.000 HD
ATOM     18  H   UNL     1      -6.665   6.071  -9.470  0.00  0.00    +0.000 HD
ATOM     19  H   UNL     1      -5.178   5.352  -8.829  0.00  0.00    +0.000 HD
ENDBRANCH  13  16
ENDBRANCH  10  13
ENDBRANCH   7  10
ENDBRANCH   4   7
ENDBRANCH   1   4
BRANCH   1  20
ATOM     20  C   UNL     1      -8.115   4.475  -4.655  0.00  0.00    +0.000 C 
ATOM     21  H   UNL     1      -7.162   4.186  -5.115  0.00  0.00    +0.000 HD
ATOM     22  H   UNL     1      -8.106   4.081  -3.632  0.00  0.00    +0.000 HD
BRANCH  20  23
ATOM     23  C   UNL     1      -8.199   6.004  -4.598  0.00  0.00    +0.000 C 
ATOM     24  H   UNL     1      -7.249   6.402  -4.221  0.00  0.00    +0.000 HD
ATOM     25  H   UNL     1      -8.973   6.294  -3.875  0.00  0.00    +0.000 HD
BRANCH  23  26
ATOM     26  C   UNL     1      -8.507   6.647  -5.955  0.00  0.00    +0.000 C 
ATOM     27  H   UNL     1      -8.824   5.873  -6.665  0.00  0.00    +0.000 HD
ATOM     28  H   UNL     1      -7.589   7.088  -6.362  0.00  0.00    +0.000 HD
BRANCH  26  29
ATOM     29  C   UNL     1      -9.590   7.720  -5.855  0.00  0.00    +0.000 C 
ATOM     30  H   UNL     1      -9.450   8.459  -6.653  0.00  0.00    +0.000 HD
ATOM     31  H   UNL     1      -9.512   8.234  -4.891  0.00  0.00    +0.000 HD
BRANCH  29  33
ATOM     32  O   UNL     1     -11.331   6.352  -6.831  0.00  0.00    +0.000 OA
ATOM     33  C   UNL     1     -11.005   7.178  -5.980  0.00  0.00    +0.000 C 
BRANCH  33  34
ATOM     34  C   UNL     1     -12.017   7.738  -5.016  0.00  0.00    +0.000 C 
ATOM     35  H   UNL     1     -11.633   8.662  -4.576  0.00  0.00    +0.000 HD
ATOM     36  H   UNL     1     -12.201   7.018  -4.214  0.00  0.00    +0.000 HD
ATOM     37  H   UNL     1     -12.956   7.932  -5.542  0.00  0.00    +0.000 HD
ENDBRANCH  33  34
ENDBRANCH  29  33
ENDBRANCH  26  29
ENDBRANCH  23  26
ENDBRANCH  20  23
ENDBRANCH   1  20
TORSDOF 11
ENDMDL
MODEL 10
REMARK VINA RESULT:    -4.234      3.844      6.039
REMARK INTER + INTRA:          -7.421
REMARK INTER:                  -6.920
REMARK INTRA:                  -0.501
REMARK UNBOUND:                -0.712
REMARK  Name = 22556
REMARK  11 active torsions:
REMARK  status: ('A' for Active; 'I' for Inactive)
REMARK    1  A    between atoms: C_2  and  C_3
REMARK    2  A    between atoms: C_2  and  C_4
REMARK    3  A    between atoms: C_3  and  C_5
REMARK    4  A    between atoms: C_4  and  C_6
REMARK    5  A    between atoms: C_5  and  C_7
REMARK    6  A    between atoms: C_6  and  C_8
REMARK    7  A    between atoms: C_7  and  C_9
REMARK    8  A    between atoms: C_8  and  C_10
REMARK    9  A    between atoms: C_9  and  C_11
REMARK   10  A    between atoms: C_10  and  C_12
REMARK   11  A    between atoms: C_12  and  C_13
REMARK                            x       y       z     vdW  Elec       q    Type
REMARK                         _______ _______ _______ _____ _____    ______ ____
ROOT
ATOM      1  C   UNL     1       7.302   9.691   6.292  0.00  0.00    +0.000 C 
ATOM      2  H   UNL     1       6.622   9.082   6.900  0.00  0.00    +0.000 HD
ATOM      3  H   UNL     1       6.749  10.590   5.991  0.00  0.00    +0.000 HD
ENDROOT
BRANCH   1   4
ATOM      4  C   UNL     1       8.523  10.092   7.124  0.00  0.00    +0.000 C 
ATOM      5  H   UNL     1       9.282   9.303   7.075  0.00  0.00    +0.000 HD
ATOM      6  H   UNL     1       8.233  10.199   8.175  0.00  0.00    +0.000 HD
BRANCH   4   7
ATOM      7  C   UNL     1       9.127  11.407   6.622  0.00  0.00    +0.000 C 
ATOM      8  H   UNL     1       8.428  11.886   5.925  0.00  0.00    +0.000 HD
ATOM      9  H   UNL     1       9.247  12.092   7.471  0.00  0.00    +0.000 HD
BRANCH   7  10
ATOM     10  C   UNL     1      10.481  11.229   5.929  0.00  0.00    +0.000 C 
ATOM     11  H   UNL     1      10.788  10.178   6.004  0.00  0.00    +0.000 HD
ATOM     12  H   UNL     1      11.235  11.817   6.468  0.00  0.00    +0.000 HD
BRANCH  10  13
ATOM     13  C   UNL     1      10.473  11.654   4.461  0.00  0.00    +0.000 C 
ATOM     14  H   UNL     1      11.493  11.625   4.061  0.00  0.00    +0.000 HD
ATOM     15  H   UNL     1       9.873  10.949   3.873  0.00  0.00    +0.000 HD
BRANCH  13  16
ATOM     16  C   UNL     1       9.903  13.055   4.291  0.00  0.00    +0.000 C 
ATOM     17  H   UNL     1      10.350  13.557   3.428  0.00  0.00    +0.000 HD
ATOM     18  H   UNL     1      10.090  13.665   5.180  0.00  0.00    +0.000 HD
ATOM     19  H   UNL     1       8.821  13.007   4.134  0.00  0.00    +0.000 HD
ENDBRANCH  13  16
ENDBRANCH  10  13
ENDBRANCH   7  10
ENDBRANCH   4   7
ENDBRANCH   1   4
BRANCH   1  20
ATOM     20  C   UNL     1       7.715   8.907   5.045  0.00  0.00    +0.000 C 
ATOM     21  H   UNL     1       8.643   8.359   5.250  0.00  0.00    +0.000 HD
ATOM     22  H   UNL     1       7.936   9.612   4.234  0.00  0.00    +0.000 HD
BRANCH  20  23
ATOM     23  C   UNL     1       6.646   7.919   4.565  0.00  0.00    +0.000 C 
ATOM     24  H   UNL     1       5.771   7.990   5.223  0.00  0.00    +0.000 HD
ATOM     25  H   UNL     1       7.033   6.897   4.662  0.00  0.00    +0.000 HD
BRANCH  23  26
ATOM     26  C   UNL     1       6.204   8.158   3.118  0.00  0.00    +0.000 C 
ATOM     27  H   UNL     1       6.799   7.531   2.443  0.00  0.00    +0.000 HD
ATOM     28  H   UNL     1       6.414   9.199   2.843  0.00  0.00    +0.000 HD
BRANCH  26  29
ATOM     29  C   UNL     1       4.720   7.864   2.909  0.00  0.00    +0.000 C 
ATOM     30  H   UNL     1       4.227   7.747   3.881  0.00  0.00    +0.000 HD
ATOM     31  H   UNL     1       4.605   6.929   2.349  0.00  0.00    +0.000 HD
BRANCH  29  33
ATOM     32  O   UNL     1       3.252   9.777   2.706  0.00  0.00    +0.000 OA
ATOM     33  C   UNL     1       3.978   8.954   2.151  0.00  0.00    +0.000 C 
BRANCH  33  34
ATOM     34  C   UNL     1       4.150   8.956   0.655  0.00  0.00    +0.000 C 
ATOM     35  H   UNL     1       5.143   9.336   0.400  0.00  0.00    +0.000 HD
ATOM     36  H   UNL     1       3.399   9.606   0.198  0.00  0.00    +0.000 HD
ATOM     37  H   UNL     1       4.023   7.941   0.270  0.00  0.00    +0.000 HD
ENDBRANCH  33  34
ENDBRANCH  29  33
ENDBRANCH  26  29
ENDBRANCH  23  26
ENDBRANCH  20  23
ENDBRANCH   1  20
TORSDOF 11
ENDMDL
