MODEL 1
REMARK VINA RESULT:    -4.213      0.000      0.000
REMARK INTER + INTRA:          -6.225
REMARK INTER:                  -6.017
REMARK INTRA:                  -0.208
REMARK UNBOUND:                -0.412
REMARK  Name = 7720
REMARK  8 active torsions:
REMARK  status: ('A' for Active; 'I' for Inactive)
REMARK    1  A    between atoms: O_1  and  C_6
REMARK    2  A    between atoms: C_2  and  C_3
REMARK    3  A    between atoms: C_2  and  C_5
REMARK    4  A    between atoms: C_2  and  C_6
REMARK    5  A    between atoms: C_3  and  C_4
REMARK    6  A    between atoms: C_4  and  C_7
REMARK    7  A    between atoms: C_5  and  C_8
REMARK    8  A    between atoms: C_7  and  C_9
REMARK                            x       y       z     vdW  Elec       q    Type
REMARK                         _______ _______ _______ _____ _____    ______ ____
ROOT
ATOM      1  C   UNL     1     -20.253  -4.690   4.343  0.00  0.00    +0.000 C 
ATOM      2  H   UNL     1     -21.074  -5.418   4.414  0.00  0.00    +0.000 HD
ENDROOT
BRANCH   1   3
ATOM      3  C   UNL     1     -20.367  -3.743   5.557  0.00  0.00    +0.000 C 
ATOM      4  H   UNL     1     -20.696  -4.321   6.430  0.00  0.00    +0.000 HD
ATOM      5  H   UNL     1     -19.380  -3.340   5.813  0.00  0.00    +0.000 HD
BRANCH   3   6
ATOM      6  C   UNL     1     -21.354  -2.590   5.346  0.00  0.00    +0.000 C 
ATOM      7  H   UNL     1     -22.154  -2.656   6.095  0.00  0.00    +0.000 HD
ATOM      8  H   UNL     1     -21.828  -2.679   4.363  0.00  0.00    +0.000 HD
BRANCH   6   9
ATOM      9  C   UNL     1     -20.696  -1.210   5.425  0.00  0.00    +0.000 C 
ATOM     10  H   UNL     1     -19.826  -1.186   4.757  0.00  0.00    +0.000 HD
ATOM     11  H   UNL     1     -21.399  -0.451   5.063  0.00  0.00    +0.000 HD
BRANCH   9  12
ATOM     12  C   UNL     1     -20.249  -0.833   6.829  0.00  0.00    +0.000 C 
ATOM     13  H   UNL     1     -20.802   0.044   7.182  0.00  0.00    +0.000 HD
ATOM     14  H   UNL     1     -20.429  -1.654   7.530  0.00  0.00    +0.000 HD
ATOM     15  H   UNL     1     -19.181  -0.594   6.848  0.00  0.00    +0.000 HD
ENDBRANCH   9  12
ENDBRANCH   6   9
ENDBRANCH   3   6
ENDBRANCH   1   3
BRANCH   1  16
ATOM     16  C   UNL     1     -20.426  -3.990   2.977  0.00  0.00    +0.000 C 
ATOM     17  H   UNL     1     -20.382  -2.903   3.107  0.00  0.00    +0.000 HD
ATOM     18  H   UNL     1     -21.434  -4.195   2.597  0.00  0.00    +0.000 HD
BRANCH  16  19
ATOM     19  C   UNL     1     -19.423  -4.401   1.908  0.00  0.00    +0.000 C 
ATOM     20  H   UNL     1     -18.399  -4.147   2.197  0.00  0.00    +0.000 HD
ATOM     21  H   UNL     1     -19.641  -3.875   0.973  0.00  0.00    +0.000 HD
ATOM     22  H   UNL     1     -19.470  -5.473   1.698  0.00  0.00    +0.000 HD
ENDBRANCH  16  19
ENDBRANCH   1  16
BRANCH   1  23
ATOM     23  C   UNL     1     -18.937  -5.480   4.435  0.00  0.00    +0.000 C 
ATOM     24  H   UNL     1     -18.138  -4.970   3.887  0.00  0.00    +0.000 HD
ATOM     25  H   UNL     1     -19.032  -6.485   4.017  0.00  0.00    +0.000 HD
BRANCH  23  26
ATOM     26  O   UNL     1     -18.524  -5.590   5.790  0.00  0.00    +0.000 OA
ATOM     27  H   UNL     1     -17.576  -5.807   5.791  0.00  0.00    +0.000 HD
ENDBRANCH  23  26
ENDBRANCH   1  23
TORSDOF 8
ENDMDL
MODEL 2
REMARK VINA RESULT:    -4.161     24.540     25.900
REMARK INTER + INTRA:          -6.154
REMARK INTER:                  -5.918
REMARK INTRA:                  -0.236
REMARK UNBOUND:                -0.412
REMARK  Name = 7720
REMARK  8 active torsions:
REMARK  status: ('A' for Active; 'I' for Inactive)
REMARK    1  A    between atoms: O_1  and  C_6
REMARK    2  A    between atoms: C_2  and  C_3
REMARK    3  A    between atoms: C_2  and  C_5
REMARK    4  A    between atoms: C_2  and  C_6
REMARK    5  A    between atoms: C_3  and  C_4
REMARK    6  A    between atoms: C_4  and  C_7
REMARK    7  A    between atoms: C_5  and  C_8
REMARK    8  A    between atoms: C_7  and  C_9
REMARK                            x       y       z     vdW  Elec       q    Type
REMARK                         _______ _______ _______ _____ _____    ______ ____
ROOT
ATOM      1  C   UNL     1      -3.157   6.929  -9.878  0.00  0.00    +0.000 C 
ATOM      2  H   UNL     1      -2.619   6.124  -9.356  0.00  0.00    +0.000 HD
ENDROOT
BRANCH   1   3
ATOM      3  C   UNL     1      -2.782   8.259  -9.190  0.00  0.00    +0.000 C 
ATOM      4  H   UNL     1      -3.521   8.475  -8.407  0.00  0.00    +0.000 HD
ATOM      5  H   UNL     1      -1.817   8.159  -8.679  0.00  0.00    +0.000 HD
BRANCH   3   6
ATOM      6  C   UNL     1      -2.736   9.454 -10.147  0.00  0.00    +0.000 C 
ATOM      7  H   UNL     1      -3.436  10.225  -9.801  0.00  0.00    +0.000 HD
ATOM      8  H   UNL     1      -3.065   9.147 -11.145  0.00  0.00    +0.000 HD
BRANCH   6   9
ATOM      9  C   UNL     1      -1.337  10.063 -10.283  0.00  0.00    +0.000 C 
ATOM     10  H   UNL     1      -1.342  11.077  -9.866  0.00  0.00    +0.000 HD
ATOM     11  H   UNL     1      -0.626   9.477  -9.690  0.00  0.00    +0.000 HD
BRANCH   9  12
ATOM     12  C   UNL     1      -0.842  10.124 -11.720  0.00  0.00    +0.000 C 
ATOM     13  H   UNL     1      -1.069   9.188 -12.240  0.00  0.00    +0.000 HD
ATOM     14  H   UNL     1      -1.322  10.942 -12.264  0.00  0.00    +0.000 HD
ATOM     15  H   UNL     1       0.241  10.278 -11.752  0.00  0.00    +0.000 HD
ENDBRANCH   9  12
ENDBRANCH   6   9
ENDBRANCH   3   6
ENDBRANCH   1   3
BRANCH   1  16
ATOM     16  C   UNL     1      -4.655   6.567  -9.781  0.00  0.00    +0.000 C 
ATOM     17  H   UNL     1      -5.161   7.254  -9.093  0.00  0.00    +0.000 HD
ATOM     18  H   UNL     1      -4.754   5.575  -9.323  0.00  0.00    +0.000 HD
BRANCH  16  19
ATOM     19  C   UNL     1      -5.405   6.554 -11.106  0.00  0.00    +0.000 C 
ATOM     20  H   UNL     1      -6.358   6.022 -11.025  0.00  0.00    +0.000 HD
ATOM     21  H   UNL     1      -4.806   6.040 -11.865  0.00  0.00    +0.000 HD
ATOM     22  H   UNL     1      -5.600   7.565 -11.472  0.00  0.00    +0.000 HD
ENDBRANCH  16  19
ENDBRANCH   1  16
BRANCH   1  23
ATOM     23  C   UNL     1      -2.650   6.947 -11.329  0.00  0.00    +0.000 C 
ATOM     24  H   UNL     1      -2.707   7.956 -11.750  0.00  0.00    +0.000 HD
ATOM     25  H   UNL     1      -3.236   6.288 -11.976  0.00  0.00    +0.000 HD
BRANCH  23  26
ATOM     26  O   UNL     1      -1.290   6.538 -11.380  0.00  0.00    +0.000 OA
ATOM     27  H   UNL     1      -1.277   5.586 -11.577  0.00  0.00    +0.000 HD
ENDBRANCH  23  26
ENDBRANCH   1  23
TORSDOF 8
ENDMDL
MODEL 3
REMARK VINA RESULT:    -4.108     29.842     30.441
REMARK INTER + INTRA:          -6.081
REMARK INTER:                  -5.704
REMARK INTRA:                  -0.377
REMARK UNBOUND:                -0.412
REMARK  Name = 7720
REMARK  8 active torsions:
REMARK  status: ('A' for Active; 'I' for Inactive)
REMARK    1  A    between atoms: O_1  and  C_6
REMARK    2  A    between atoms: C_2  and  C_3
REMARK    3  A    between atoms: C_2  and  C_5
REMARK    4  A    between atoms: C_2  and  C_6
REMARK    5  A    between atoms: C_3  and  C_4
REMARK    6  A    between atoms: C_4  and  C_7
REMARK    7  A    between atoms: C_5  and  C_8
REMARK    8  A    between atoms: C_7  and  C_9
REMARK                            x       y       z     vdW  Elec       q    Type
REMARK                         _______ _______ _______ _____ _____    ______ ____
ROOT
ATOM      1  C   UNL     1       7.534   9.781  -0.569  0.00  0.00    +0.000 C 
ATOM      2  H   UNL     1       8.107  10.261   0.237  0.00  0.00    +0.000 HD
ENDROOT
BRANCH   1   3
ATOM      3  C   UNL     1       6.550  10.830  -1.127  0.00  0.00    +0.000 C 
ATOM      4  H   UNL     1       7.076  11.460  -1.856  0.00  0.00    +0.000 HD
ATOM      5  H   UNL     1       5.744  10.332  -1.680  0.00  0.00    +0.000 HD
BRANCH   3   6
ATOM      6  C   UNL     1       5.949  11.741  -0.052  0.00  0.00    +0.000 C 
ATOM      7  H   UNL     1       6.102  12.790  -0.338  0.00  0.00    +0.000 HD
ATOM      8  H   UNL     1       6.468  11.589   0.899  0.00  0.00    +0.000 HD
BRANCH   6   9
ATOM      9  C   UNL     1       4.457  11.491   0.185  0.00  0.00    +0.000 C 
ATOM     10  H   UNL     1       4.337  10.676   0.908  0.00  0.00    +0.000 HD
ATOM     11  H   UNL     1       4.005  12.385   0.632  0.00  0.00    +0.000 HD
BRANCH   9  12
ATOM     12  C   UNL     1       3.694  11.141  -1.083  0.00  0.00    +0.000 C 
ATOM     13  H   UNL     1       4.363  11.167  -1.949  0.00  0.00    +0.000 HD
ATOM     14  H   UNL     1       3.263  10.137  -1.016  0.00  0.00    +0.000 HD
ATOM     15  H   UNL     1       2.881  11.853  -1.259  0.00  0.00    +0.000 HD
ENDBRANCH   9  12
ENDBRANCH   6   9
ENDBRANCH   3   6
ENDBRANCH   1   3
BRANCH   1  16
ATOM     16  C   UNL     1       6.853   8.551   0.071  0.00  0.00    +0.000 C 
ATOM     17  H   UNL     1       7.265   7.631  -0.358  0.00  0.00    +0.000 HD
ATOM     18  H   UNL     1       5.791   8.548  -0.205  0.00  0.00    +0.000 HD
BRANCH  16  19
ATOM     19  C   UNL     1       6.948   8.475   1.589  0.00  0.00    +0.000 C 
ATOM     20  H   UNL     1       7.043   7.442   1.935  0.00  0.00    +0.000 HD
ATOM     21  H   UNL     1       6.041   8.890   2.038  0.00  0.00    +0.000 HD
ATOM     22  H   UNL     1       7.795   9.051   1.971  0.00  0.00    +0.000 HD
ENDBRANCH  16  19
ENDBRANCH   1  16
BRANCH   1  23
ATOM     23  C   UNL     1       8.538   9.390  -1.667  0.00  0.00    +0.000 C 
ATOM     24  H   UNL     1       9.481   9.932  -1.544  0.00  0.00    +0.000 HD
ATOM     25  H   UNL     1       8.159   9.613  -2.668  0.00  0.00    +0.000 HD
BRANCH  23  26
ATOM     26  O   UNL     1       8.831   8.001  -1.593  0.00  0.00    +0.000 OA
ATOM     27  H   UNL     1       8.445   7.663  -0.767  0.00  0.00    +0.000 HD
ENDBRANCH  23  26
ENDBRANCH   1  23
TORSDOF 8
ENDMDL
MODEL 4
REMARK VINA RESULT:    -4.039     28.884     29.544
REMARK INTER + INTRA:          -5.986
REMARK INTER:                  -5.576
REMARK INTRA:                  -0.411
REMARK UNBOUND:                -0.412
REMARK  Name = 7720
REMARK  8 active torsions:
REMARK  status: ('A' for Active; 'I' for Inactive)
REMARK    1  A    between atoms: O_1  and  C_6
REMARK    2  A    between atoms: C_2  and  C_3
REMARK    3  A    between atoms: C_2  and  C_5
REMARK    4  A    between atoms: C_2  and  C_6
REMARK    5  A    between atoms: C_3  and  C_4
REMARK    6  A    between atoms: C_4  and  C_7
REMARK    7  A    between atoms: C_5  and  C_8
REMARK    8  A    between atoms: C_7  and  C_9
REMARK                            x       y       z     vdW  Elec       q    Type
REMARK                         _______ _______ _______ _____ _____    ______ ____
ROOT
ATOM      1  C   UNL     1       4.892  11.014   0.400  0.00  0.00    +0.000 C 
ATOM      2  H   UNL     1       4.797  11.189   1.481  0.00  0.00    +0.000 HD
ENDROOT
BRANCH   1   3
ATOM      3  C   UNL     1       4.944   9.487   0.180  0.00  0.00    +0.000 C 
ATOM      4  H   UNL     1       3.956   9.141  -0.151  0.00  0.00    +0.000 HD
ATOM      5  H   UNL     1       5.639   9.249  -0.634  0.00  0.00    +0.000 HD
BRANCH   3   6
ATOM      6  C   UNL     1       5.332   8.699   1.435  0.00  0.00    +0.000 C 
ATOM      7  H   UNL     1       4.708   7.799   1.506  0.00  0.00    +0.000 HD
ATOM      8  H   UNL     1       5.133   9.299   2.329  0.00  0.00    +0.000 HD
BRANCH   6   9
ATOM      9  C   UNL     1       6.810   8.297   1.461  0.00  0.00    +0.000 C 
ATOM     10  H   UNL     1       6.886   7.207   1.554  0.00  0.00    +0.000 HD
ATOM     11  H   UNL     1       7.277   8.570   0.508  0.00  0.00    +0.000 HD
BRANCH   9  12
ATOM     12  C   UNL     1       7.592   8.945   2.592  0.00  0.00    +0.000 C 
ATOM     13  H   UNL     1       6.909   9.347   3.346  0.00  0.00    +0.000 HD
ATOM     14  H   UNL     1       8.249   8.217   3.080  0.00  0.00    +0.000 HD
ATOM     15  H   UNL     1       8.210   9.768   2.218  0.00  0.00    +0.000 HD
ENDBRANCH   9  12
ENDBRANCH   6   9
ENDBRANCH   3   6
ENDBRANCH   1   3
BRANCH   1  16
ATOM     16  C   UNL     1       6.171  11.760  -0.039  0.00  0.00    +0.000 C 
ATOM     17  H   UNL     1       6.815  11.939   0.830  0.00  0.00    +0.000 HD
ATOM     18  H   UNL     1       5.895  12.758  -0.403  0.00  0.00    +0.000 HD
BRANCH  16  19
ATOM     19  C   UNL     1       6.985  11.068  -1.124  0.00  0.00    +0.000 C 
ATOM     20  H   UNL     1       8.058  11.231  -0.988  0.00  0.00    +0.000 HD
ATOM     21  H   UNL     1       6.713  11.471  -2.105  0.00  0.00    +0.000 HD
ATOM     22  H   UNL     1       6.795   9.992  -1.148  0.00  0.00    +0.000 HD
ENDBRANCH  16  19
ENDBRANCH   1  16
BRANCH   1  23
ATOM     23  C   UNL     1       3.626  11.581  -0.264  0.00  0.00    +0.000 C 
ATOM     24  H   UNL     1       3.199  10.861  -0.969  0.00  0.00    +0.000 HD
ATOM     25  H   UNL     1       3.830  12.501  -0.819  0.00  0.00    +0.000 HD
BRANCH  23  26
ATOM     26  O   UNL     1       2.637  11.856   0.719  0.00  0.00    +0.000 OA
ATOM     27  H   UNL     1       3.087  12.238   1.490  0.00  0.00    +0.000 HD
ENDBRANCH  23  26
ENDBRANCH   1  23
TORSDOF 8
ENDMDL
MODEL 5
REMARK VINA RESULT:    -4.011     29.126     29.820
REMARK INTER + INTRA:          -5.947
REMARK INTER:                  -5.650
REMARK INTRA:                  -0.297
REMARK UNBOUND:                -0.412
REMARK  Name = 7720
REMARK  8 active torsions:
REMARK  status: ('A' for Active; 'I' for Inactive)
REMARK    1  A    between atoms: O_1  and  C_6
REMARK    2  A    between atoms: C_2  and  C_3
REMARK    3  A    between atoms: C_2  and  C_5
REMARK    4  A    between atoms: C_2  and  C_6
REMARK    5  A    between atoms: C_3  and  C_4
REMARK    6  A    between atoms: C_4  and  C_7
REMARK    7  A    between atoms: C_5  and  C_8
REMARK    8  A    between atoms: C_7  and  C_9
REMARK                            x       y       z     vdW  Elec       q    Type
REMARK                         _______ _______ _______ _____ _____    ______ ____
ROOT
ATOM      1  C   UNL     1       4.411  10.624  -0.542  0.00  0.00    +0.000 C 
ATOM      2  H   UNL     1       4.533  10.361  -1.603  0.00  0.00    +0.000 HD
ENDROOT
BRANCH   1   3
ATOM      3  C   UNL     1       5.750  11.219  -0.055  0.00  0.00    +0.000 C 
ATOM      4  H   UNL     1       5.567  12.222   0.351  0.00  0.00    +0.000 HD
ATOM      5  H   UNL     1       6.146  10.622   0.775  0.00  0.00    +0.000 HD
BRANCH   3   6
ATOM      6  C   UNL     1       6.808  11.334  -1.157  0.00  0.00    +0.000 C 
ATOM      7  H   UNL     1       7.507  12.142  -0.907  0.00  0.00    +0.000 HD
ATOM      8  H   UNL     1       6.332  11.604  -2.105  0.00  0.00    +0.000 HD
BRANCH   6   9
ATOM      9  C   UNL     1       7.590  10.036  -1.379  0.00  0.00    +0.000 C 
ATOM     10  H   UNL     1       7.287   9.298  -0.628  0.00  0.00    +0.000 HD
ATOM     11  H   UNL     1       7.331   9.619  -2.359  0.00  0.00    +0.000 HD
BRANCH   9  12
ATOM     12  C   UNL     1       9.098  10.220  -1.309  0.00  0.00    +0.000 C 
ATOM     13  H   UNL     1       9.469   9.947  -0.317  0.00  0.00    +0.000 HD
ATOM     14  H   UNL     1       9.603   9.590  -2.048  0.00  0.00    +0.000 HD
ATOM     15  H   UNL     1       9.373  11.262  -1.502  0.00  0.00    +0.000 HD
ENDBRANCH   9  12
ENDBRANCH   6   9
ENDBRANCH   3   6
ENDBRANCH   1   3
BRANCH   1  16
ATOM     16  C   UNL     1       4.003   9.316   0.173  0.00  0.00    +0.000 C 
ATOM     17  H   UNL     1       3.874   8.514  -0.562  0.00  0.00    +0.000 HD
ATOM     18  H   UNL     1       3.015   9.453   0.629  0.00  0.00    +0.000 HD
BRANCH  16  19
ATOM     19  C   UNL     1       4.964   8.844   1.256  0.00  0.00    +0.000 C 
ATOM     20  H   UNL     1       5.743   9.586   1.455  0.00  0.00    +0.000 HD
ATOM     21  H   UNL     1       5.462   7.924   0.934  0.00  0.00    +0.000 HD
ATOM     22  H   UNL     1       4.444   8.624   2.192  0.00  0.00    +0.000 HD
ENDBRANCH  16  19
ENDBRANCH   1  16
BRANCH   1  23
ATOM     23  C   UNL     1       3.317  11.700  -0.464  0.00  0.00    +0.000 C 
ATOM     24  H   UNL     1       2.485  11.460  -1.135  0.00  0.00    +0.000 HD
ATOM     25  H   UNL     1       3.691  12.688  -0.747  0.00  0.00    +0.000 HD
BRANCH  23  26
ATOM     26  O   UNL     1       2.794  11.776   0.855  0.00  0.00    +0.000 OA
ATOM     27  H   UNL     1       3.116  12.603   1.251  0.00  0.00    +0.000 HD
ENDBRANCH  23  26
ENDBRANCH   1  23
TORSDOF 8
ENDMDL
MODEL 6
REMARK VINA RESULT:    -3.980     24.170     25.620
REMARK INTER + INTRA:          -5.905
REMARK INTER:                  -5.577
REMARK INTRA:                  -0.328
REMARK UNBOUND:                -0.412
REMARK  Name = 7720
REMARK  8 active torsions:
REMARK  status: ('A' for Active; 'I' for Inactive)
REMARK    1  A    between atoms: O_1  and  C_6
REMARK    2  A    between atoms: C_2  and  C_3
REMARK    3  A    between atoms: C_2  and  C_5
REMARK    4  A    between atoms: C_2  and  C_6
REMARK    5  A    between atoms: C_3  and  C_4
REMARK    6  A    between atoms: C_4  and  C_7
REMARK    7  A    between atoms: C_5  and  C_8
REMARK    8  A    between atoms: C_7  and  C_9
REMARK                            x       y       z     vdW  Elec       q    Type
REMARK                         _______ _______ _______ _____ _____    ______ ____
ROOT
ATOM      1  C   UNL     1      -2.811   8.080 -11.398  0.00  0.00    +0.000 C 
ATOM      2  H   UNL     1      -3.532   8.300 -12.199  0.00  0.00    +0.000 HD
ENDROOT
BRANCH   1   3
ATOM      3  C   UNL     1      -3.277   6.786 -10.698  0.00  0.00    +0.000 C 
ATOM      4  H   UNL     1      -4.224   6.459 -11.147  0.00  0.00    +0.000 HD
ATOM      5  H   UNL     1      -2.558   5.979 -10.883  0.00  0.00    +0.000 HD
BRANCH   3   6
ATOM      6  C   UNL     1      -3.494   6.947  -9.190  0.00  0.00    +0.000 C 
ATOM      7  H   UNL     1      -3.554   8.015  -8.943  0.00  0.00    +0.000 HD
ATOM      8  H   UNL     1      -2.636   6.540  -8.644  0.00  0.00    +0.000 HD
BRANCH   6   9
ATOM      9  C   UNL     1      -4.751   6.235  -8.682  0.00  0.00    +0.000 C 
ATOM     10  H   UNL     1      -4.485   5.226  -8.346  0.00  0.00    +0.000 HD
ATOM     11  H   UNL     1      -5.143   6.770  -7.809  0.00  0.00    +0.000 HD
BRANCH   9  12
ATOM     12  C   UNL     1      -5.851   6.133  -9.727  0.00  0.00    +0.000 C 
ATOM     13  H   UNL     1      -6.435   5.220  -9.576  0.00  0.00    +0.000 HD
ATOM     14  H   UNL     1      -6.531   6.988  -9.662  0.00  0.00    +0.000 HD
ATOM     15  H   UNL     1      -5.429   6.106 -10.736  0.00  0.00    +0.000 HD
ENDBRANCH   9  12
ENDBRANCH   6   9
ENDBRANCH   3   6
ENDBRANCH   1   3
BRANCH   1  16
ATOM     16  C   UNL     1      -2.802   9.325 -10.484  0.00  0.00    +0.000 C 
ATOM     17  H   UNL     1      -3.229   9.073  -9.506  0.00  0.00    +0.000 HD
ATOM     18  H   UNL     1      -3.475  10.082 -10.906  0.00  0.00    +0.000 HD
BRANCH  16  19
ATOM     19  C   UNL     1      -1.437   9.967 -10.277  0.00  0.00    +0.000 C 
ATOM     20  H   UNL     1      -0.656   9.440 -10.834  0.00  0.00    +0.000 HD
ATOM     21  H   UNL     1      -1.167   9.928  -9.216  0.00  0.00    +0.000 HD
ATOM     22  H   UNL     1      -1.433  11.017 -10.578  0.00  0.00    +0.000 HD
ENDBRANCH  16  19
ENDBRANCH   1  16
BRANCH   1  23
ATOM     23  C   UNL     1      -1.449   7.835 -12.068  0.00  0.00    +0.000 C 
ATOM     24  H   UNL     1      -0.733   8.617 -11.793  0.00  0.00    +0.000 HD
ATOM     25  H   UNL     1      -1.523   7.827 -13.158  0.00  0.00    +0.000 HD
BRANCH  23  26
ATOM     26  O   UNL     1      -0.909   6.592 -11.642  0.00  0.00    +0.000 OA
ATOM     27  H   UNL     1      -0.028   6.766 -11.269  0.00  0.00    +0.000 HD
ENDBRANCH  23  26
ENDBRANCH   1  23
TORSDOF 8
ENDMDL
MODEL 7
REMARK VINA RESULT:    -3.924     24.511     26.035
REMARK INTER + INTRA:          -5.827
REMARK INTER:                  -5.436
REMARK INTRA:                  -0.391
REMARK UNBOUND:                -0.412
REMARK  Name = 7720
REMARK  8 active torsions:
REMARK  status: ('A' for Active; 'I' for Inactive)
REMARK    1  A    between atoms: O_1  and  C_6
REMARK    2  A    between atoms: C_2  and  C_3
REMARK    3  A    between atoms: C_2  and  C_5
REMARK    4  A    between atoms: C_2  and  C_6
REMARK    5  A    between atoms: C_3  and  C_4
REMARK    6  A    between atoms: C_4  and  C_7
REMARK    7  A    between atoms: C_5  and  C_8
REMARK    8  A    between atoms: C_7  and  C_9
REMARK                            x       y       z     vdW  Elec       q    Type
REMARK                         _______ _______ _______ _____ _____    ______ ____
ROOT
ATOM      1  C   UNL     1      -2.913   7.404  -9.484  0.00  0.00    +0.000 C 
ATOM      2  H   UNL     1      -1.964   6.954  -9.157  0.00  0.00    +0.000 HD
ENDROOT
BRANCH   1   3
ATOM      3  C   UNL     1      -2.995   7.252 -11.017  0.00  0.00    +0.000 C 
ATOM      4  H   UNL     1      -3.778   6.522 -11.261  0.00  0.00    +0.000 HD
ATOM      5  H   UNL     1      -3.309   8.199 -11.472  0.00  0.00    +0.000 HD
BRANCH   3   6
ATOM      6  C   UNL     1      -1.686   6.781 -11.659  0.00  0.00    +0.000 C 
ATOM      7  H   UNL     1      -1.806   5.750 -12.016  0.00  0.00    +0.000 HD
ATOM      8  H   UNL     1      -0.886   6.771 -10.912  0.00  0.00    +0.000 HD
BRANCH   6   9
ATOM      9  C   UNL     1      -1.230   7.671 -12.819  0.00  0.00    +0.000 C 
ATOM     10  H   UNL     1      -0.769   7.047 -13.594  0.00  0.00    +0.000 HD
ATOM     11  H   UNL     1      -2.104   8.151 -13.274  0.00  0.00    +0.000 HD
BRANCH   9  12
ATOM     12  C   UNL     1      -0.242   8.749 -12.402  0.00  0.00    +0.000 C 
ATOM     13  H   UNL     1      -0.214   9.548 -13.149  0.00  0.00    +0.000 HD
ATOM     14  H   UNL     1      -0.527   9.189 -11.442  0.00  0.00    +0.000 HD
ATOM     15  H   UNL     1       0.767   8.336 -12.305  0.00  0.00    +0.000 HD
ENDBRANCH   9  12
ENDBRANCH   6   9
ENDBRANCH   3   6
ENDBRANCH   1   3
BRANCH   1  16
ATOM     16  C   UNL     1      -2.878   8.869  -8.995  0.00  0.00    +0.000 C 
ATOM     17  H   UNL     1      -2.003   9.026  -8.353  0.00  0.00    +0.000 HD
ATOM     18  H   UNL     1      -3.746   9.050  -8.350  0.00  0.00    +0.000 HD
BRANCH  16  19
ATOM     19  C   UNL     1      -2.878   9.919 -10.097  0.00  0.00    +0.000 C 
ATOM     20  H   UNL     1      -3.647  10.679  -9.929  0.00  0.00    +0.000 HD
ATOM     21  H   UNL     1      -3.089   9.445 -11.060  0.00  0.00    +0.000 HD
ATOM     22  H   UNL     1      -1.908  10.417 -10.183  0.00  0.00    +0.000 HD
ENDBRANCH  16  19
ENDBRANCH   1  16
BRANCH   1  23
ATOM     23  C   UNL     1      -4.046   6.595  -8.830  0.00  0.00    +0.000 C 
ATOM     24  H   UNL     1      -4.468   7.135  -7.976  0.00  0.00    +0.000 HD
ATOM     25  H   UNL     1      -3.699   5.624  -8.465  0.00  0.00    +0.000 HD
BRANCH  23  26
ATOM     26  O   UNL     1      -5.096   6.379  -9.762  0.00  0.00    +0.000 OA
ATOM     27  H   UNL     1      -5.042   7.079 -10.434  0.00  0.00    +0.000 HD
ENDBRANCH  23  26
ENDBRANCH   1  23
TORSDOF 8
ENDMDL
MODEL 8
REMARK VINA RESULT:    -3.889     28.420     29.078
REMARK INTER + INTRA:          -5.779
REMARK INTER:                  -5.352
REMARK INTRA:                  -0.428
REMARK UNBOUND:                -0.412
REMARK  Name = 7720
REMARK  8 active torsions:
REMARK  status: ('A' for Active; 'I' for Inactive)
REMARK    1  A    between atoms: O_1  and  C_6
REMARK    2  A    between atoms: C_2  and  C_3
REMARK    3  A    between atoms: C_2  and  C_5
REMARK    4  A    between atoms: C_2  and  C_6
REMARK    5  A    between atoms: C_3  and  C_4
REMARK    6  A    between atoms: C_4  and  C_7
REMARK    7  A    between atoms: C_5  and  C_8
REMARK    8  A    between atoms: C_7  and  C_9
REMARK                            x       y       z     vdW  Elec       q    Type
REMARK                         _______ _______ _______ _____ _____    ______ ____
ROOT
ATOM      1  C   UNL     1       4.732   9.568   1.045  0.00  0.00    +0.000 C 
ATOM      2  H   UNL     1       5.366  10.371   1.450  0.00  0.00    +0.000 HD
ENDROOT
BRANCH   1   3
ATOM      3  C   UNL     1       5.651   8.595   0.276  0.00  0.00    +0.000 C 
ATOM      4  H   UNL     1       5.508   7.582   0.673  0.00  0.00    +0.000 HD
ATOM      5  H   UNL     1       5.355   8.554  -0.779  0.00  0.00    +0.000 HD
BRANCH   3   6
ATOM      6  C   UNL     1       7.139   8.945   0.379  0.00  0.00    +0.000 C 
ATOM      7  H   UNL     1       7.699   8.375  -0.374  0.00  0.00    +0.000 HD
ATOM      8  H   UNL     1       7.526   8.646   1.359  0.00  0.00    +0.000 HD
BRANCH   6   9
ATOM      9  C   UNL     1       7.422  10.439   0.200  0.00  0.00    +0.000 C 
ATOM     10  H   UNL     1       6.756  11.014   0.855  0.00  0.00    +0.000 HD
ATOM     11  H   UNL     1       8.448  10.655   0.519  0.00  0.00    +0.000 HD
BRANCH   9  12
ATOM     12  C   UNL     1       7.242  10.921  -1.231  0.00  0.00    +0.000 C 
ATOM     13  H   UNL     1       6.182  10.912  -1.505  0.00  0.00    +0.000 HD
ATOM     14  H   UNL     1       7.616  11.942  -1.349  0.00  0.00    +0.000 HD
ATOM     15  H   UNL     1       7.781  10.274  -1.930  0.00  0.00    +0.000 HD
ENDBRANCH   9  12
ENDBRANCH   6   9
ENDBRANCH   3   6
ENDBRANCH   1   3
BRANCH   1  16
ATOM     16  C   UNL     1       3.674  10.269   0.164  0.00  0.00    +0.000 C 
ATOM     17  H   UNL     1       2.668   9.974   0.483  0.00  0.00    +0.000 HD
ATOM     18  H   UNL     1       3.769   9.902  -0.866  0.00  0.00    +0.000 HD
BRANCH  16  19
ATOM     19  C   UNL     1       3.759  11.789   0.135  0.00  0.00    +0.000 C 
ATOM     20  H   UNL     1       3.398  12.195  -0.814  0.00  0.00    +0.000 HD
ATOM     21  H   UNL     1       4.801  12.104   0.252  0.00  0.00    +0.000 HD
ATOM     22  H   UNL     1       3.187  12.242   0.949  0.00  0.00    +0.000 HD
ENDBRANCH  16  19
ENDBRANCH   1  16
BRANCH   1  23
ATOM     23  C   UNL     1       4.105   8.837   2.244  0.00  0.00    +0.000 C 
ATOM     24  H   UNL     1       4.787   8.839   3.101  0.00  0.00    +0.000 HD
ATOM     25  H   UNL     1       3.872   7.795   2.012  0.00  0.00    +0.000 HD
BRANCH  23  26
ATOM     26  O   UNL     1       2.910   9.490   2.647  0.00  0.00    +0.000 OA
ATOM     27  H   UNL     1       2.804   9.346   3.602  0.00  0.00    +0.000 HD
ENDBRANCH  23  26
ENDBRANCH   1  23
TORSDOF 8
ENDMDL
MODEL 9
REMARK VINA RESULT:    -3.842      2.738      4.803
REMARK INTER + INTRA:          -5.714
REMARK INTER:                  -5.302
REMARK INTRA:                  -0.412
REMARK UNBOUND:                -0.412
REMARK  Name = 7720
REMARK  8 active torsions:
REMARK  status: ('A' for Active; 'I' for Inactive)
REMARK    1  A    between atoms: O_1  and  C_6
REMARK    2  A    between atoms: C_2  and  C_3
REMARK    3  A    between atoms: C_2  and  C_5
REMARK    4  A    between atoms: C_2  and  C_6
REMARK    5  A    between atoms: C_3  and  C_4
REMARK    6  A    between atoms: C_4  and  C_7
REMARK    7  A    between atoms: C_5  and  C_8
REMARK    8  A    between atoms: C_7  and  C_9
REMARK                            x       y       z     vdW  Elec       q    Type
REMARK                         _______ _______ _______ _____ _____    ______ ____
ROOT
ATOM      1  C   UNL     1     -21.375  -1.692   7.266  0.00  0.00    +0.000 C 
ATOM      2  H   UNL     1     -20.889  -2.576   7.703  0.00  0.00    +0.000 HD
ENDROOT
BRANCH   1   3
ATOM      3  C   UNL     1     -22.235  -2.174   6.078  0.00  0.00    +0.000 C 
ATOM      4  H   UNL     1     -23.295  -2.024   6.322  0.00  0.00    +0.000 HD
ATOM      5  H   UNL     1     -22.035  -1.556   5.195  0.00  0.00    +0.000 HD
BRANCH   3   6
ATOM      6  C   UNL     1     -22.028  -3.651   5.730  0.00  0.00    +0.000 C 
ATOM      7  H   UNL     1     -22.736  -3.942   4.944  0.00  0.00    +0.000 HD
ATOM      8  H   UNL     1     -22.245  -4.275   6.604  0.00  0.00    +0.000 HD
BRANCH   6   9
ATOM      9  C   UNL     1     -20.602  -3.969   5.272  0.00  0.00    +0.000 C 
ATOM     10  H   UNL     1     -19.894  -3.353   5.840  0.00  0.00    +0.000 HD
ATOM     11  H   UNL     1     -20.370  -5.015   5.503  0.00  0.00    +0.000 HD
BRANCH   9  12
ATOM     12  C   UNL     1     -20.378  -3.735   3.787  0.00  0.00    +0.000 C 
ATOM     13  H   UNL     1     -19.592  -4.398   3.411  0.00  0.00    +0.000 HD
ATOM     14  H   UNL     1     -21.291  -3.932   3.218  0.00  0.00    +0.000 HD
ATOM     15  H   UNL     1     -20.071  -2.701   3.596  0.00  0.00    +0.000 HD
ENDBRANCH   9  12
ENDBRANCH   6   9
ENDBRANCH   3   6
ENDBRANCH   1   3
BRANCH   1  16
ATOM     16  C   UNL     1     -20.231  -0.733   6.870  0.00  0.00    +0.000 C 
ATOM     17  H   UNL     1     -19.267  -1.248   6.954  0.00  0.00    +0.000 HD
ATOM     18  H   UNL     1     -20.185   0.087   7.598  0.00  0.00    +0.000 HD
BRANCH  16  19
ATOM     19  C   UNL     1     -20.347  -0.125   5.479  0.00  0.00    +0.000 C 
ATOM     20  H   UNL     1     -21.184  -0.555   4.921  0.00  0.00    +0.000 HD
ATOM     21  H   UNL     1     -19.434  -0.327   4.909  0.00  0.00    +0.000 HD
ATOM     22  H   UNL     1     -20.475   0.959   5.519  0.00  0.00    +0.000 HD
ENDBRANCH  16  19
ENDBRANCH   1  16
BRANCH   1  23
ATOM     23  C   UNL     1     -22.291  -1.096   8.349  0.00  0.00    +0.000 C 
ATOM     24  H   UNL     1     -22.410  -1.793   9.185  0.00  0.00    +0.000 HD
ATOM     25  H   UNL     1     -23.289  -0.872   7.965  0.00  0.00    +0.000 HD
BRANCH  23  26
ATOM     26  O   UNL     1     -21.725   0.100   8.867  0.00  0.00    +0.000 OA
ATOM     27  H   UNL     1     -21.737   0.035   9.837  0.00  0.00    +0.000 HD
ENDBRANCH  23  26
ENDBRANCH   1  23
TORSDOF 8
ENDMDL
MODEL 10
REMARK VINA RESULT:    -3.823     27.627     28.286
REMARK INTER + INTRA:          -5.687
REMARK INTER:                  -5.521
REMARK INTRA:                  -0.166
REMARK UNBOUND:                -0.412
REMARK  Name = 7720
REMARK  8 active torsions:
REMARK  status: ('A' for Active; 'I' for Inactive)
REMARK    1  A    between atoms: O_1  and  C_6
REMARK    2  A    between atoms: C_2  and  C_3
REMARK    3  A    between atoms: C_2  and  C_5
REMARK    4  A    between atoms: C_2  and  C_6
REMARK    5  A    between atoms: C_3  and  C_4
REMARK    6  A    between atoms: C_4  and  C_7
REMARK    7  A    between atoms: C_5  and  C_8
REMARK    8  A    between atoms: C_7  and  C_9
REMARK                            x       y       z     vdW  Elec       q    Type
REMARK                         _______ _______ _______ _____ _____    ______ ____
ROOT
ATOM      1  C   UNL     1       5.183   8.416   2.738  0.00  0.00    +0.000 C 
ATOM      2  H   UNL     1       5.618   9.189   3.388  0.00  0.00    +0.000 HD
ENDROOT
BRANCH   1   3
ATOM      3  C   UNL     1       3.836   8.957   2.211  0.00  0.00    +0.000 C 
ATOM      4  H   UNL     1       3.066   8.188   2.348  0.00  0.00    +0.000 HD
ATOM      5  H   UNL     1       3.517   9.818   2.810  0.00  0.00    +0.000 HD
BRANCH   3   6
ATOM      6  C   UNL     1       3.868   9.345   0.729  0.00  0.00    +0.000 C 
ATOM      7  H   UNL     1       3.109   8.767   0.186  0.00  0.00    +0.000 HD
ATOM      8  H   UNL     1       4.839   9.085   0.296  0.00  0.00    +0.000 HD
BRANCH   6   9
ATOM      9  C   UNL     1       3.635  10.840   0.492  0.00  0.00    +0.000 C 
ATOM     10  H   UNL     1       2.697  11.141   0.975  0.00  0.00    +0.000 HD
ATOM     11  H   UNL     1       4.438  11.413   0.969  0.00  0.00    +0.000 HD
BRANCH   9  12
ATOM     12  C   UNL     1       3.574  11.216  -0.980  0.00  0.00    +0.000 C 
ATOM     13  H   UNL     1       3.717  10.330  -1.606  0.00  0.00    +0.000 HD
ATOM     14  H   UNL     1       2.604  11.657  -1.230  0.00  0.00    +0.000 HD
ATOM     15  H   UNL     1       4.355  11.941  -1.230  0.00  0.00    +0.000 HD
ENDBRANCH   9  12
ENDBRANCH   6   9
ENDBRANCH   3   6
ENDBRANCH   1   3
BRANCH   1  16
ATOM     16  C   UNL     1       5.056   7.150   3.613  0.00  0.00    +0.000 C 
ATOM     17  H   UNL     1       5.013   6.259   2.976  0.00  0.00    +0.000 HD
ATOM     18  H   UNL     1       4.094   7.175   4.140  0.00  0.00    +0.000 HD
BRANCH  16  19
ATOM     19  C   UNL     1       6.158   6.965   4.647  0.00  0.00    +0.000 C 
ATOM     20  H   UNL     1       5.751   6.703   5.628  0.00  0.00    +0.000 HD
ATOM     21  H   UNL     1       6.718   7.898   4.762  0.00  0.00    +0.000 HD
ATOM     22  H   UNL     1       6.870   6.191   4.348  0.00  0.00    +0.000 HD
ENDBRANCH  16  19
ENDBRANCH   1  16
BRANCH   1  23
ATOM     23  C   UNL     1       6.149   8.220   1.558  0.00  0.00    +0.000 C 
ATOM     24  H   UNL     1       5.745   8.666   0.644  0.00  0.00    +0.000 HD
ATOM     25  H   UNL     1       6.336   7.163   1.352  0.00  0.00    +0.000 HD
BRANCH  23  26
ATOM     26  O   UNL     1       7.392   8.854   1.831  0.00  0.00    +0.000 OA
ATOM     27  H   UNL     1       8.098   8.232   1.588  0.00  0.00    +0.000 HD
ENDBRANCH  23  26
ENDBRANCH   1  23
TORSDOF 8
ENDMDL
