MODEL 1
REMARK VINA RESULT:    -4.965      0.000      0.000
REMARK INTER + INTRA:          -6.483
REMARK INTER:                  -6.180
REMARK INTRA:                  -0.303
REMARK UNBOUND:                -0.211
REMARK  Name = 32594
REMARK  6 active torsions:
REMARK  status: ('A' for Active; 'I' for Inactive)
REMARK    1  A    between atoms: O_1  and  C_9
REMARK    2  A    between atoms: O_1  and  C_12
REMARK    3  A    between atoms: C_4  and  C_5
REMARK    4  A    between atoms: C_4  and  C_6
REMARK    5  A    between atoms: C_4  and  C_7
REMARK    6  A    between atoms: C_5  and  C_8
REMARK                            x       y       z     vdW  Elec       q    Type
REMARK                         _______ _______ _______ _____ _____    ______ ____
ROOT
ATOM      1  C   UNL     1       6.161   9.158  -0.038  0.00  0.00    +0.000 C 
ATOM      2  H   UNL     1       6.679   8.189  -0.026  0.00  0.00    +0.000 HD
ATOM      3  H   UNL     1       5.582   9.161  -0.971  0.00  0.00    +0.000 HD
ENDROOT
BRANCH   1   6
ATOM      4  N   UNL     1       5.664   8.643   2.272  0.00  0.00    +0.000 NA
ATOM      5  N   UNL     1       3.166   9.905   2.087  0.00  0.00    +0.000 NA
ATOM      6  C   UNL     1       5.227   9.222   1.145  0.00  0.00    +0.000 A 
ATOM      7  C   UNL     1       4.012   9.841   1.040  0.00  0.00    +0.000 A 
ATOM      8  C   UNL     1       4.818   8.707   3.319  0.00  0.00    +0.000 A 
ATOM      9  C   UNL     1       3.591   9.327   3.229  0.00  0.00    +0.000 A 
ATOM     10  H   UNL     1       5.159   8.243   4.236  0.00  0.00    +0.000 HD
ATOM     11  H   UNL     1       2.912   9.380   4.070  0.00  0.00    +0.000 HD
BRANCH   7  12
ATOM     12  O   UNL     1       3.603  10.421  -0.128  0.00  0.00    +0.000 OA
BRANCH  12  13
ATOM     13  C   UNL     1       3.362  11.824  -0.100  0.00  0.00    +0.000 C 
ATOM     14  H   UNL     1       2.550  12.097  -0.782  0.00  0.00    +0.000 HD
ATOM     15  H   UNL     1       4.274  12.384  -0.335  0.00  0.00    +0.000 HD
ATOM     16  H   UNL     1       3.053  12.092   0.915  0.00  0.00    +0.000 HD
ENDBRANCH  12  13
ENDBRANCH   7  12
ENDBRANCH   1   6
BRANCH   1  17
ATOM     17  C   UNL     1       7.202  10.294  -0.072  0.00  0.00    +0.000 C 
ATOM     18  H   UNL     1       7.096  10.880   0.849  0.00  0.00    +0.000 HD
BRANCH  17  19
ATOM     19  C   UNL     1       8.633   9.759  -0.154  0.00  0.00    +0.000 C 
ATOM     20  H   UNL     1       8.794   9.099  -1.013  0.00  0.00    +0.000 HD
ATOM     21  H   UNL     1       8.909   9.230   0.763  0.00  0.00    +0.000 HD
ATOM     22  H   UNL     1       9.335  10.594  -0.264  0.00  0.00    +0.000 HD
ENDBRANCH  17  19
BRANCH  17  23
ATOM     23  C   UNL     1       6.927  11.213  -1.265  0.00  0.00    +0.000 C 
ATOM     24  H   UNL     1       6.378  10.668  -2.041  0.00  0.00    +0.000 HD
ATOM     25  H   UNL     1       6.320  12.082  -0.992  0.00  0.00    +0.000 HD
ATOM     26  H   UNL     1       7.861  11.569  -1.714  0.00  0.00    +0.000 HD
ENDBRANCH  17  23
ENDBRANCH   1  17
TORSDOF 6
ENDMDL
MODEL 2
REMARK VINA RESULT:    -4.849      1.660      3.121
REMARK INTER + INTRA:          -6.336
REMARK INTER:                  -6.080
REMARK INTRA:                  -0.256
REMARK UNBOUND:                -0.211
REMARK  Name = 32594
REMARK  6 active torsions:
REMARK  status: ('A' for Active; 'I' for Inactive)
REMARK    1  A    between atoms: O_1  and  C_9
REMARK    2  A    between atoms: O_1  and  C_12
REMARK    3  A    between atoms: C_4  and  C_5
REMARK    4  A    between atoms: C_4  and  C_6
REMARK    5  A    between atoms: C_4  and  C_7
REMARK    6  A    between atoms: C_5  and  C_8
REMARK                            x       y       z     vdW  Elec       q    Type
REMARK                         _______ _______ _______ _____ _____    ______ ____
ROOT
ATOM      1  C   UNL     1       3.955   9.533   0.124  0.00  0.00    +0.000 C 
ATOM      2  H   UNL     1       4.782   9.181  -0.508  0.00  0.00    +0.000 HD
ATOM      3  H   UNL     1       3.082   8.949  -0.195  0.00  0.00    +0.000 HD
ENDROOT
BRANCH   1   6
ATOM      4  N   UNL     1       3.378   9.611   2.471  0.00  0.00    +0.000 NA
ATOM      5  N   UNL     1       5.756   8.299   3.170  0.00  0.00    +0.000 NA
ATOM      6  C   UNL     1       4.283   9.223   1.564  0.00  0.00    +0.000 A 
ATOM      7  C   UNL     1       5.447   8.582   1.890  0.00  0.00    +0.000 A 
ATOM      8  C   UNL     1       3.686   9.328   3.753  0.00  0.00    +0.000 A 
ATOM      9  C   UNL     1       4.854   8.683   4.096  0.00  0.00    +0.000 A 
ATOM     10  H   UNL     1       2.962   9.636   4.496  0.00  0.00    +0.000 HD
ATOM     11  H   UNL     1       5.101   8.455   5.125  0.00  0.00    +0.000 HD
BRANCH   7  12
ATOM     12  O   UNL     1       6.346   8.201   0.933  0.00  0.00    +0.000 OA
BRANCH  12  13
ATOM     13  C   UNL     1       7.567   8.933   0.870  0.00  0.00    +0.000 C 
ATOM     14  H   UNL     1       8.404   8.332   1.241  0.00  0.00    +0.000 HD
ATOM     15  H   UNL     1       7.488   9.876   1.423  0.00  0.00    +0.000 HD
ATOM     16  H   UNL     1       7.762   9.171  -0.180  0.00  0.00    +0.000 HD
ENDBRANCH  12  13
ENDBRANCH   7  12
ENDBRANCH   1   6
BRANCH   1  17
ATOM     17  C   UNL     1       3.703  11.029  -0.149  0.00  0.00    +0.000 C 
ATOM     18  H   UNL     1       2.896  11.364   0.514  0.00  0.00    +0.000 HD
BRANCH  17  19
ATOM     19  C   UNL     1       4.947  11.879   0.120  0.00  0.00    +0.000 C 
ATOM     20  H   UNL     1       5.080  12.118   1.180  0.00  0.00    +0.000 HD
ATOM     21  H   UNL     1       4.921  12.807  -0.458  0.00  0.00    +0.000 HD
ATOM     22  H   UNL     1       5.844  11.333  -0.194  0.00  0.00    +0.000 HD
ENDBRANCH  17  19
BRANCH  17  23
ATOM     23  C   UNL     1       3.250  11.222  -1.598  0.00  0.00    +0.000 C 
ATOM     24  H   UNL     1       4.106  11.127  -2.275  0.00  0.00    +0.000 HD
ATOM     25  H   UNL     1       2.510  10.477  -1.908  0.00  0.00    +0.000 HD
ATOM     26  H   UNL     1       2.823  12.220  -1.749  0.00  0.00    +0.000 HD
ENDBRANCH  17  23
ENDBRANCH   1  17
TORSDOF 6
ENDMDL
MODEL 3
REMARK VINA RESULT:    -4.671      1.767      3.666
REMARK INTER + INTRA:          -6.111
REMARK INTER:                  -5.874
REMARK INTRA:                  -0.237
REMARK UNBOUND:                -0.211
REMARK  Name = 32594
REMARK  6 active torsions:
REMARK  status: ('A' for Active; 'I' for Inactive)
REMARK    1  A    between atoms: O_1  and  C_9
REMARK    2  A    between atoms: O_1  and  C_12
REMARK    3  A    between atoms: C_4  and  C_5
REMARK    4  A    between atoms: C_4  and  C_6
REMARK    5  A    between atoms: C_4  and  C_7
REMARK    6  A    between atoms: C_5  and  C_8
REMARK                            x       y       z     vdW  Elec       q    Type
REMARK                         _______ _______ _______ _____ _____    ______ ____
ROOT
ATOM      1  C   UNL     1       3.908   9.594  -0.298  0.00  0.00    +0.000 C 
ATOM      2  H   UNL     1       3.804   8.879  -1.124  0.00  0.00    +0.000 HD
ATOM      3  H   UNL     1       3.053   9.397   0.362  0.00  0.00    +0.000 HD
ENDROOT
BRANCH   1   6
ATOM      4  N   UNL     1       6.320   9.413  -0.290  0.00  0.00    +0.000 NA
ATOM      5  N   UNL     1       6.325   8.689   2.420  0.00  0.00    +0.000 NA
ATOM      6  C   UNL     1       5.197   9.305   0.432  0.00  0.00    +0.000 A 
ATOM      7  C   UNL     1       5.184   8.953   1.753  0.00  0.00    +0.000 A 
ATOM      8  C   UNL     1       7.462   9.149   0.375  0.00  0.00    +0.000 A 
ATOM      9  C   UNL     1       7.465   8.794   1.706  0.00  0.00    +0.000 A 
ATOM     10  H   UNL     1       8.377   9.233  -0.197  0.00  0.00    +0.000 HD
ATOM     11  H   UNL     1       8.382   8.583   2.241  0.00  0.00    +0.000 HD
BRANCH   7  12
ATOM     12  O   UNL     1       4.016   8.853   2.457  0.00  0.00    +0.000 OA
BRANCH  12  13
ATOM     13  C   UNL     1       4.090   9.074   3.862  0.00  0.00    +0.000 C 
ATOM     14  H   UNL     1       3.248   9.683   4.209  0.00  0.00    +0.000 HD
ATOM     15  H   UNL     1       5.045   9.536   4.137  0.00  0.00    +0.000 HD
ATOM     16  H   UNL     1       4.030   8.101   4.359  0.00  0.00    +0.000 HD
ENDBRANCH  12  13
ENDBRANCH   7  12
ENDBRANCH   1   6
BRANCH   1  17
ATOM     17  C   UNL     1       3.814  11.030  -0.849  0.00  0.00    +0.000 C 
ATOM     18  H   UNL     1       4.817  11.336  -1.174  0.00  0.00    +0.000 HD
BRANCH  17  19
ATOM     19  C   UNL     1       2.859  11.127  -2.041  0.00  0.00    +0.000 C 
ATOM     20  H   UNL     1       2.651  10.155  -2.501  0.00  0.00    +0.000 HD
ATOM     21  H   UNL     1       3.247  11.810  -2.802  0.00  0.00    +0.000 HD
ATOM     22  H   UNL     1       1.895  11.531  -1.711  0.00  0.00    +0.000 HD
ENDBRANCH  17  19
BRANCH  17  23
ATOM     23  C   UNL     1       3.354  11.982   0.258  0.00  0.00    +0.000 C 
ATOM     24  H   UNL     1       2.671  12.734  -0.153  0.00  0.00    +0.000 HD
ATOM     25  H   UNL     1       2.819  11.463   1.059  0.00  0.00    +0.000 HD
ATOM     26  H   UNL     1       4.203  12.517   0.698  0.00  0.00    +0.000 HD
ENDBRANCH  17  23
ENDBRANCH   1  17
TORSDOF 6
ENDMDL
MODEL 4
REMARK VINA RESULT:    -4.406     13.922     15.730
REMARK INTER + INTRA:          -5.776
REMARK INTER:                  -5.554
REMARK INTRA:                  -0.222
REMARK UNBOUND:                -0.211
REMARK  Name = 32594
REMARK  6 active torsions:
REMARK  status: ('A' for Active; 'I' for Inactive)
REMARK    1  A    between atoms: O_1  and  C_9
REMARK    2  A    between atoms: O_1  and  C_12
REMARK    3  A    between atoms: C_4  and  C_5
REMARK    4  A    between atoms: C_4  and  C_6
REMARK    5  A    between atoms: C_4  and  C_7
REMARK    6  A    between atoms: C_5  and  C_8
REMARK                            x       y       z     vdW  Elec       q    Type
REMARK                         _______ _______ _______ _____ _____    ______ ____
ROOT
ATOM      1  C   UNL     1      -8.045  12.019   6.627  0.00  0.00    +0.000 C 
ATOM      2  H   UNL     1      -8.075  12.897   7.287  0.00  0.00    +0.000 HD
ATOM      3  H   UNL     1      -7.273  11.366   7.053  0.00  0.00    +0.000 HD
ENDROOT
BRANCH   1   6
ATOM      4  N   UNL     1     -10.396  11.961   6.064  0.00  0.00    +0.000 NA
ATOM      5  N   UNL     1     -10.721   9.506   7.381  0.00  0.00    +0.000 NA
ATOM      6  C   UNL     1      -9.387  11.331   6.678  0.00  0.00    +0.000 A 
ATOM      7  C   UNL     1      -9.530  10.134   7.324  0.00  0.00    +0.000 A 
ATOM      8  C   UNL     1     -11.588  11.334   6.121  0.00  0.00    +0.000 A 
ATOM      9  C   UNL     1     -11.748  10.128   6.767  0.00  0.00    +0.000 A 
ATOM     10  H   UNL     1     -12.413  11.833   5.627  0.00  0.00    +0.000 HD
ATOM     11  H   UNL     1     -12.705   9.624   6.811  0.00  0.00    +0.000 HD
BRANCH   7  12
ATOM     12  O   UNL     1      -8.474   9.521   7.939  0.00  0.00    +0.000 OA
BRANCH  12  13
ATOM     13  C   UNL     1      -8.639   9.179   9.312  0.00  0.00    +0.000 C 
ATOM     14  H   UNL     1      -7.836   8.515   9.650  0.00  0.00    +0.000 HD
ATOM     15  H   UNL     1      -9.621   8.725   9.487  0.00  0.00    +0.000 HD
ATOM     16  H   UNL     1      -8.583  10.101   9.897  0.00  0.00    +0.000 HD
ENDBRANCH  12  13
ENDBRANCH   7  12
ENDBRANCH   1   6
BRANCH   1  17
ATOM     17  C   UNL     1      -7.625  12.460   5.211  0.00  0.00    +0.000 C 
ATOM     18  H   UNL     1      -8.468  12.994   4.756  0.00  0.00    +0.000 HD
BRANCH  17  19
ATOM     19  C   UNL     1      -6.409  13.389   5.235  0.00  0.00    +0.000 C 
ATOM     20  H   UNL     1      -6.446  14.119   6.050  0.00  0.00    +0.000 HD
ATOM     21  H   UNL     1      -6.297  13.915   4.283  0.00  0.00    +0.000 HD
ATOM     22  H   UNL     1      -5.496  12.800   5.383  0.00  0.00    +0.000 HD
ENDBRANCH  17  19
BRANCH  17  23
ATOM     23  C   UNL     1      -7.315  11.229   4.356  0.00  0.00    +0.000 C 
ATOM     24  H   UNL     1      -8.228  10.646   4.192  0.00  0.00    +0.000 HD
ATOM     25  H   UNL     1      -6.919  11.492   3.370  0.00  0.00    +0.000 HD
ATOM     26  H   UNL     1      -6.594  10.572   4.855  0.00  0.00    +0.000 HD
ENDBRANCH  17  23
ENDBRANCH   1  17
TORSDOF 6
ENDMDL
MODEL 5
REMARK VINA RESULT:    -4.399     14.307     15.729
REMARK INTER + INTRA:          -5.767
REMARK INTER:                  -5.630
REMARK INTRA:                  -0.136
REMARK UNBOUND:                -0.211
REMARK  Name = 32594
REMARK  6 active torsions:
REMARK  status: ('A' for Active; 'I' for Inactive)
REMARK    1  A    between atoms: O_1  and  C_9
REMARK    2  A    between atoms: O_1  and  C_12
REMARK    3  A    between atoms: C_4  and  C_5
REMARK    4  A    between atoms: C_4  and  C_6
REMARK    5  A    between atoms: C_4  and  C_7
REMARK    6  A    between atoms: C_5  and  C_8
REMARK                            x       y       z     vdW  Elec       q    Type
REMARK                         _______ _______ _______ _____ _____    ______ ____
ROOT
ATOM      1  C   UNL     1      -1.980   6.707 -11.346  0.00  0.00    +0.000 C 
ATOM      2  H   UNL     1      -2.142   5.641 -11.557  0.00  0.00    +0.000 HD
ATOM      3  H   UNL     1      -1.137   6.735 -10.644  0.00  0.00    +0.000 HD
ENDROOT
BRANCH   1   6
ATOM      4  N   UNL     1      -2.077   6.854 -13.758  0.00  0.00    +0.000 NA
ATOM      5  N   UNL     1      -0.468   9.152 -13.750  0.00  0.00    +0.000 NA
ATOM      6  C   UNL     1      -1.602   7.401 -12.631  0.00  0.00    +0.000 A 
ATOM      7  C   UNL     1      -0.817   8.520 -12.612  0.00  0.00    +0.000 A 
ATOM      8  C   UNL     1      -1.729   7.485 -14.897  0.00  0.00    +0.000 A 
ATOM      9  C   UNL     1      -0.939   8.614 -14.894  0.00  0.00    +0.000 A 
ATOM     10  H   UNL     1      -2.108   7.054 -15.815  0.00  0.00    +0.000 HD
ATOM     11  H   UNL     1      -0.660   9.121 -15.809  0.00  0.00    +0.000 HD
BRANCH   7  12
ATOM     12  O   UNL     1      -0.351   9.049 -11.440  0.00  0.00    +0.000 OA
BRANCH  12  13
ATOM     13  C   UNL     1      -1.010  10.214 -10.953  0.00  0.00    +0.000 C 
ATOM     14  H   UNL     1      -2.025  10.288 -11.356  0.00  0.00    +0.000 HD
ATOM     15  H   UNL     1      -0.432  11.116 -11.182  0.00  0.00    +0.000 HD
ATOM     16  H   UNL     1      -1.085  10.127  -9.865  0.00  0.00    +0.000 HD
ENDBRANCH  12  13
ENDBRANCH   7  12
ENDBRANCH   1   6
BRANCH   1  17
ATOM     17  C   UNL     1      -3.236   7.291 -10.669  0.00  0.00    +0.000 C 
ATOM     18  H   UNL     1      -3.183   8.384 -10.740  0.00  0.00    +0.000 HD
BRANCH  17  19
ATOM     19  C   UNL     1      -4.525   6.815 -11.342  0.00  0.00    +0.000 C 
ATOM     20  H   UNL     1      -4.851   5.830 -10.992  0.00  0.00    +0.000 HD
ATOM     21  H   UNL     1      -4.416   6.793 -12.431  0.00  0.00    +0.000 HD
ATOM     22  H   UNL     1      -5.340   7.514 -11.118  0.00  0.00    +0.000 HD
ENDBRANCH  17  19
BRANCH  17  23
ATOM     23  C   UNL     1      -3.254   6.902  -9.189  0.00  0.00    +0.000 C 
ATOM     24  H   UNL     1      -2.231   6.849  -8.802  0.00  0.00    +0.000 HD
ATOM     25  H   UNL     1      -3.795   7.628  -8.573  0.00  0.00    +0.000 HD
ATOM     26  H   UNL     1      -3.711   5.916  -9.044  0.00  0.00    +0.000 HD
ENDBRANCH  17  23
ENDBRANCH   1  17
TORSDOF 6
ENDMDL
MODEL 6
REMARK VINA RESULT:    -4.368     14.053     15.502
REMARK INTER + INTRA:          -5.728
REMARK INTER:                  -5.481
REMARK INTRA:                  -0.247
REMARK UNBOUND:                -0.211
REMARK  Name = 32594
REMARK  6 active torsions:
REMARK  status: ('A' for Active; 'I' for Inactive)
REMARK    1  A    between atoms: O_1  and  C_9
REMARK    2  A    between atoms: O_1  and  C_12
REMARK    3  A    between atoms: C_4  and  C_5
REMARK    4  A    between atoms: C_4  and  C_6
REMARK    5  A    between atoms: C_4  and  C_7
REMARK    6  A    between atoms: C_5  and  C_8
REMARK                            x       y       z     vdW  Elec       q    Type
REMARK                         _______ _______ _______ _____ _____    ______ ____
ROOT
ATOM      1  C   UNL     1      -2.183   7.002 -10.930  0.00  0.00    +0.000 C 
ATOM      2  H   UNL     1      -2.277   6.168 -11.638  0.00  0.00    +0.000 HD
ATOM      3  H   UNL     1      -1.463   6.656 -10.176  0.00  0.00    +0.000 HD
ENDROOT
BRANCH   1   6
ATOM      4  N   UNL     1      -1.415   9.295 -10.926  0.00  0.00    +0.000 NA
ATOM      5  N   UNL     1      -0.864   9.187 -13.674  0.00  0.00    +0.000 NA
ATOM      6  C   UNL     1      -1.625   8.197 -11.663  0.00  0.00    +0.000 A 
ATOM      7  C   UNL     1      -1.361   8.129 -13.003  0.00  0.00    +0.000 A 
ATOM      8  C   UNL     1      -0.919  10.354 -11.596  0.00  0.00    +0.000 A 
ATOM      9  C   UNL     1      -0.648  10.301 -12.946  0.00  0.00    +0.000 A 
ATOM     10  H   UNL     1      -0.744  11.249 -11.012  0.00  0.00    +0.000 HD
ATOM     11  H   UNL     1      -0.248  11.151 -13.484  0.00  0.00    +0.000 HD
BRANCH   7  12
ATOM     12  O   UNL     1      -1.588   6.988 -13.721  0.00  0.00    +0.000 OA
BRANCH  12  13
ATOM     13  C   UNL     1      -2.636   7.033 -14.685  0.00  0.00    +0.000 C 
ATOM     14  H   UNL     1      -2.254   6.827 -15.691  0.00  0.00    +0.000 HD
ATOM     15  H   UNL     1      -3.157   7.996 -14.655  0.00  0.00    +0.000 HD
ATOM     16  H   UNL     1      -3.358   6.250 -14.433  0.00  0.00    +0.000 HD
ENDBRANCH  12  13
ENDBRANCH   7  12
ENDBRANCH   1   6
BRANCH   1  17
ATOM     17  C   UNL     1      -3.546   7.263 -10.261  0.00  0.00    +0.000 C 
ATOM     18  H   UNL     1      -3.650   8.344 -10.109  0.00  0.00    +0.000 HD
BRANCH  17  19
ATOM     19  C   UNL     1      -4.712   6.772 -11.123  0.00  0.00    +0.000 C 
ATOM     20  H   UNL     1      -5.675   6.815 -10.603  0.00  0.00    +0.000 HD
ATOM     21  H   UNL     1      -4.538   5.752 -11.477  0.00  0.00    +0.000 HD
ATOM     22  H   UNL     1      -4.806   7.406 -12.013  0.00  0.00    +0.000 HD
ENDBRANCH  17  19
BRANCH  17  23
ATOM     23  C   UNL     1      -3.592   6.576  -8.894  0.00  0.00    +0.000 C 
ATOM     24  H   UNL     1      -4.478   5.935  -8.825  0.00  0.00    +0.000 HD
ATOM     25  H   UNL     1      -2.719   5.941  -8.715  0.00  0.00    +0.000 HD
ATOM     26  H   UNL     1      -3.658   7.312  -8.084  0.00  0.00    +0.000 HD
ENDBRANCH  17  23
ENDBRANCH   1  17
TORSDOF 6
ENDMDL
MODEL 7
REMARK VINA RESULT:    -4.338     28.118     29.113
REMARK INTER + INTRA:          -5.690
REMARK INTER:                  -5.446
REMARK INTRA:                  -0.244
REMARK UNBOUND:                -0.211
REMARK  Name = 32594
REMARK  6 active torsions:
REMARK  status: ('A' for Active; 'I' for Inactive)
REMARK    1  A    between atoms: O_1  and  C_9
REMARK    2  A    between atoms: O_1  and  C_12
REMARK    3  A    between atoms: C_4  and  C_5
REMARK    4  A    between atoms: C_4  and  C_6
REMARK    5  A    between atoms: C_4  and  C_7
REMARK    6  A    between atoms: C_5  and  C_8
REMARK                            x       y       z     vdW  Elec       q    Type
REMARK                         _______ _______ _______ _____ _____    ______ ____
ROOT
ATOM      1  C   UNL     1     -21.352  -2.271   5.391  0.00  0.00    +0.000 C 
ATOM      2  H   UNL     1     -22.045  -1.770   4.701  0.00  0.00    +0.000 HD
ATOM      3  H   UNL     1     -21.993  -2.747   6.144  0.00  0.00    +0.000 HD
ENDROOT
BRANCH   1   6
ATOM      4  N   UNL     1     -19.951  -4.242   5.365  0.00  0.00    +0.000 NA
ATOM      5  N   UNL     1     -19.891  -4.246   2.561  0.00  0.00    +0.000 NA
ATOM      6  C   UNL     1     -20.589  -3.325   4.627  0.00  0.00    +0.000 A 
ATOM      7  C   UNL     1     -20.569  -3.314   3.259  0.00  0.00    +0.000 A 
ATOM      8  C   UNL     1     -19.272  -5.174   4.668  0.00  0.00    +0.000 A 
ATOM      9  C   UNL     1     -19.243  -5.177   3.291  0.00  0.00    +0.000 A 
ATOM     10  H   UNL     1     -18.752  -5.922   5.253  0.00  0.00    +0.000 HD
ATOM     11  H   UNL     1     -18.699  -5.927   2.730  0.00  0.00    +0.000 HD
BRANCH   7  12
ATOM     12  O   UNL     1     -21.234  -2.361   2.540  0.00  0.00    +0.000 OA
BRANCH  12  13
ATOM     13  C   UNL     1     -22.317  -2.805   1.729  0.00  0.00    +0.000 C 
ATOM     14  H   UNL     1     -22.076  -2.710   0.665  0.00  0.00    +0.000 HD
ATOM     15  H   UNL     1     -23.237  -2.262   1.971  0.00  0.00    +0.000 HD
ATOM     16  H   UNL     1     -22.485  -3.865   1.944  0.00  0.00    +0.000 HD
ENDBRANCH  12  13
ENDBRANCH   7  12
ENDBRANCH   1   6
BRANCH   1  17
ATOM     17  C   UNL     1     -20.453  -1.218   6.067  0.00  0.00    +0.000 C 
ATOM     18  H   UNL     1     -19.448  -1.645   6.170  0.00  0.00    +0.000 HD
BRANCH  17  19
ATOM     19  C   UNL     1     -20.359   0.070   5.246  0.00  0.00    +0.000 C 
ATOM     20  H   UNL     1     -19.654  -0.006   4.412  0.00  0.00    +0.000 HD
ATOM     21  H   UNL     1     -20.082   0.919   5.878  0.00  0.00    +0.000 HD
ATOM     22  H   UNL     1     -21.338   0.303   4.811  0.00  0.00    +0.000 HD
ENDBRANCH  17  19
BRANCH  17  23
ATOM     23  C   UNL     1     -20.989  -0.901   7.465  0.00  0.00    +0.000 C 
ATOM     24  H   UNL     1     -20.173  -0.929   8.196  0.00  0.00    +0.000 HD
ATOM     25  H   UNL     1     -21.440   0.095   7.524  0.00  0.00    +0.000 HD
ATOM     26  H   UNL     1     -21.736  -1.639   7.780  0.00  0.00    +0.000 HD
ENDBRANCH  17  23
ENDBRANCH   1  17
TORSDOF 6
ENDMDL
MODEL 8
REMARK VINA RESULT:    -4.163     28.389     30.491
REMARK INTER + INTRA:          -5.469
REMARK INTER:                  -5.197
REMARK INTRA:                  -0.273
REMARK UNBOUND:                -0.211
REMARK  Name = 32594
REMARK  6 active torsions:
REMARK  status: ('A' for Active; 'I' for Inactive)
REMARK    1  A    between atoms: O_1  and  C_9
REMARK    2  A    between atoms: O_1  and  C_12
REMARK    3  A    between atoms: C_4  and  C_5
REMARK    4  A    between atoms: C_4  and  C_6
REMARK    5  A    between atoms: C_4  and  C_7
REMARK    6  A    between atoms: C_5  and  C_8
REMARK                            x       y       z     vdW  Elec       q    Type
REMARK                         _______ _______ _______ _____ _____    ______ ____
ROOT
ATOM      1  C   UNL     1     -10.271 -12.032  17.190  0.00  0.00    +0.000 C 
ATOM      2  H   UNL     1      -9.443 -12.626  17.600  0.00  0.00    +0.000 HD
ATOM      3  H   UNL     1     -10.501 -11.289  17.966  0.00  0.00    +0.000 HD
ENDROOT
BRANCH   1   6
ATOM      4  N   UNL     1      -8.817 -11.952  15.260  0.00  0.00    +0.000 NA
ATOM      5  N   UNL     1      -9.930  -9.513  14.436  0.00  0.00    +0.000 NA
ATOM      6  C   UNL     1      -9.794 -11.337  15.939  0.00  0.00    +0.000 A 
ATOM      7  C   UNL     1     -10.346 -10.148  15.550  0.00  0.00    +0.000 A 
ATOM      8  C   UNL     1      -8.400 -11.318  14.146  0.00  0.00    +0.000 A 
ATOM      9  C   UNL     1      -8.947 -10.120  13.741  0.00  0.00    +0.000 A 
ATOM     10  H   UNL     1      -7.612 -11.805  13.587  0.00  0.00    +0.000 HD
ATOM     11  H   UNL     1      -8.613  -9.611  12.845  0.00  0.00    +0.000 HD
BRANCH   7  12
ATOM     12  O   UNL     1     -11.342  -9.551  16.271  0.00  0.00    +0.000 OA
BRANCH  12  13
ATOM     13  C   UNL     1     -12.603  -9.401  15.625  0.00  0.00    +0.000 C 
ATOM     14  H   UNL     1     -12.718 -10.131  14.817  0.00  0.00    +0.000 HD
ATOM     15  H   UNL     1     -12.733  -8.380  15.251  0.00  0.00    +0.000 HD
ATOM     16  H   UNL     1     -13.385  -9.593  16.366  0.00  0.00    +0.000 HD
ENDBRANCH  12  13
ENDBRANCH   7  12
ENDBRANCH   1   6
BRANCH   1  17
ATOM     17  C   UNL     1     -11.494 -12.943  16.969  0.00  0.00    +0.000 C 
ATOM     18  H   UNL     1     -11.953 -12.669  16.010  0.00  0.00    +0.000 HD
BRANCH  17  19
ATOM     19  C   UNL     1     -11.108 -14.423  16.926  0.00  0.00    +0.000 C 
ATOM     20  H   UNL     1     -10.110 -14.591  16.509  0.00  0.00    +0.000 HD
ATOM     21  H   UNL     1     -11.839 -15.004  16.357  0.00  0.00    +0.000 HD
ATOM     22  H   UNL     1     -11.098 -14.832  17.943  0.00  0.00    +0.000 HD
ENDBRANCH  17  19
BRANCH  17  23
ATOM     23  C   UNL     1     -12.521 -12.710  18.079  0.00  0.00    +0.000 C 
ATOM     24  H   UNL     1     -12.251 -13.290  18.969  0.00  0.00    +0.000 HD
ATOM     25  H   UNL     1     -12.579 -11.660  18.383  0.00  0.00    +0.000 HD
ATOM     26  H   UNL     1     -13.521 -13.036  17.768  0.00  0.00    +0.000 HD
ENDBRANCH  17  23
ENDBRANCH   1  17
TORSDOF 6
ENDMDL
MODEL 9
REMARK VINA RESULT:    -4.162     13.696     15.012
REMARK INTER + INTRA:          -5.468
REMARK INTER:                  -5.222
REMARK INTRA:                  -0.246
REMARK UNBOUND:                -0.211
REMARK  Name = 32594
REMARK  6 active torsions:
REMARK  status: ('A' for Active; 'I' for Inactive)
REMARK    1  A    between atoms: O_1  and  C_9
REMARK    2  A    between atoms: O_1  and  C_12
REMARK    3  A    between atoms: C_4  and  C_5
REMARK    4  A    between atoms: C_4  and  C_6
REMARK    5  A    between atoms: C_4  and  C_7
REMARK    6  A    between atoms: C_5  and  C_8
REMARK                            x       y       z     vdW  Elec       q    Type
REMARK                         _______ _______ _______ _____ _____    ______ ____
ROOT
ATOM      1  C   UNL     1      -8.171  12.442   6.757  0.00  0.00    +0.000 C 
ATOM      2  H   UNL     1      -9.188  12.249   6.390  0.00  0.00    +0.000 HD
ATOM      3  H   UNL     1      -8.164  13.504   7.034  0.00  0.00    +0.000 HD
ENDROOT
BRANCH   1   6
ATOM      4  N   UNL     1      -7.099  12.100   8.898  0.00  0.00    +0.000 NA
ATOM      5  N   UNL     1      -8.330   9.597   9.191  0.00  0.00    +0.000 NA
ATOM      6  C   UNL     1      -7.929  11.590   7.978  0.00  0.00    +0.000 A 
ATOM      7  C   UNL     1      -8.536  10.371   8.108  0.00  0.00    +0.000 A 
ATOM      8  C   UNL     1      -6.892  11.326   9.982  0.00  0.00    +0.000 A 
ATOM      9  C   UNL     1      -7.497  10.097  10.126  0.00  0.00    +0.000 A 
ATOM     10  H   UNL     1      -6.224  11.728  10.733  0.00  0.00    +0.000 HD
ATOM     11  H   UNL     1      -7.332   9.476  10.998  0.00  0.00    +0.000 HD
BRANCH   7  12
ATOM     12  O   UNL     1      -9.378   9.885   7.146  0.00  0.00    +0.000 OA
BRANCH  12  13
ATOM     13  C   UNL     1     -10.701   9.555   7.557  0.00  0.00    +0.000 C 
ATOM     14  H   UNL     1     -10.688   8.893   8.429  0.00  0.00    +0.000 HD
ATOM     15  H   UNL     1     -11.267   9.105   6.734  0.00  0.00    +0.000 HD
ATOM     16  H   UNL     1     -11.205  10.483   7.845  0.00  0.00    +0.000 HD
ENDBRANCH  12  13
ENDBRANCH   7  12
ENDBRANCH   1   6
BRANCH   1  17
ATOM     17  C   UNL     1      -7.161  12.199   5.618  0.00  0.00    +0.000 C 
ATOM     18  H   UNL     1      -6.383  11.522   5.992  0.00  0.00    +0.000 HD
BRANCH  17  19
ATOM     19  C   UNL     1      -7.820  11.563   4.392  0.00  0.00    +0.000 C 
ATOM     20  H   UNL     1      -8.894  11.394   4.524  0.00  0.00    +0.000 HD
ATOM     21  H   UNL     1      -7.335  10.618   4.131  0.00  0.00    +0.000 HD
ATOM     22  H   UNL     1      -7.710  12.227   3.527  0.00  0.00    +0.000 HD
ENDBRANCH  17  19
BRANCH  17  23
ATOM     23  C   UNL     1      -6.501  13.521   5.221  0.00  0.00    +0.000 C 
ATOM     24  H   UNL     1      -5.496  13.585   5.654  0.00  0.00    +0.000 HD
ATOM     25  H   UNL     1      -6.391  13.625   4.136  0.00  0.00    +0.000 HD
ATOM     26  H   UNL     1      -7.073  14.378   5.595  0.00  0.00    +0.000 HD
ENDBRANCH  17  23
ENDBRANCH   1  17
TORSDOF 6
ENDMDL
MODEL 10
REMARK VINA RESULT:    -4.043     14.068     15.508
REMARK INTER + INTRA:          -5.318
REMARK INTER:                  -5.107
REMARK INTRA:                  -0.211
REMARK UNBOUND:                -0.211
REMARK  Name = 32594
REMARK  6 active torsions:
REMARK  status: ('A' for Active; 'I' for Inactive)
REMARK    1  A    between atoms: O_1  and  C_9
REMARK    2  A    between atoms: O_1  and  C_12
REMARK    3  A    between atoms: C_4  and  C_5
REMARK    4  A    between atoms: C_4  and  C_6
REMARK    5  A    between atoms: C_4  and  C_7
REMARK    6  A    between atoms: C_5  and  C_8
REMARK                            x       y       z     vdW  Elec       q    Type
REMARK                         _______ _______ _______ _____ _____    ______ ____
ROOT
ATOM      1  C   UNL     1      -2.740   8.575 -10.334  0.00  0.00    +0.000 C 
ATOM      2  H   UNL     1      -2.102   8.823  -9.475  0.00  0.00    +0.000 HD
ATOM      3  H   UNL     1      -3.643   9.184 -10.205  0.00  0.00    +0.000 HD
ENDROOT
BRANCH   1   6
ATOM      4  N   UNL     1      -0.768   8.533 -11.734  0.00  0.00    +0.000 NA
ATOM      5  N   UNL     1      -2.024  10.128 -13.668  0.00  0.00    +0.000 NA
ATOM      6  C   UNL     1      -2.024   8.979 -11.599  0.00  0.00    +0.000 A 
ATOM      7  C   UNL     1      -2.649   9.757 -12.534  0.00  0.00    +0.000 A 
ATOM      8  C   UNL     1      -0.142   8.904 -12.868  0.00  0.00    +0.000 A 
ATOM      9  C   UNL     1      -0.759   9.687 -13.819  0.00  0.00    +0.000 A 
ATOM     10  H   UNL     1       0.874   8.549 -12.989  0.00  0.00    +0.000 HD
ATOM     11  H   UNL     1      -0.256   9.984 -14.731  0.00  0.00    +0.000 HD
BRANCH   7  12
ATOM     12  O   UNL     1      -3.933  10.193 -12.360  0.00  0.00    +0.000 OA
BRANCH  12  13
ATOM     13  C   UNL     1      -4.569  10.787 -13.487  0.00  0.00    +0.000 C 
ATOM     14  H   UNL     1      -4.156  10.395 -14.423  0.00  0.00    +0.000 HD
ATOM     15  H   UNL     1      -4.489  11.879 -13.453  0.00  0.00    +0.000 HD
ATOM     16  H   UNL     1      -5.631  10.524 -13.452  0.00  0.00    +0.000 HD
ENDBRANCH  12  13
ENDBRANCH   7  12
ENDBRANCH   1   6
BRANCH   1  17
ATOM     17  C   UNL     1      -3.112   7.081 -10.279  0.00  0.00    +0.000 C 
ATOM     18  H   UNL     1      -2.241   6.500 -10.607  0.00  0.00    +0.000 HD
BRANCH  17  19
ATOM     19  C   UNL     1      -3.497   6.636  -8.866  0.00  0.00    +0.000 C 
ATOM     20  H   UNL     1      -2.638   6.300  -8.276  0.00  0.00    +0.000 HD
ATOM     21  H   UNL     1      -4.248   5.841  -8.894  0.00  0.00    +0.000 HD
ATOM     22  H   UNL     1      -3.943   7.477  -8.322  0.00  0.00    +0.000 HD
ENDBRANCH  17  19
BRANCH  17  23
ATOM     23  C   UNL     1      -4.269   6.800 -11.240  0.00  0.00    +0.000 C 
ATOM     24  H   UNL     1      -4.524   7.708 -11.798  0.00  0.00    +0.000 HD
ATOM     25  H   UNL     1      -4.024   6.027 -11.976  0.00  0.00    +0.000 HD
ATOM     26  H   UNL     1      -5.168   6.487 -10.697  0.00  0.00    +0.000 HD
ENDBRANCH  17  23
ENDBRANCH   1  17
TORSDOF 6
ENDMDL
