MODEL 1
REMARK VINA RESULT:    -4.780      0.000      0.000
REMARK INTER + INTRA:          -6.308
REMARK INTER:                  -6.225
REMARK INTRA:                  -0.084
REMARK UNBOUND:                -0.271
REMARK  Name = 32594
REMARK  6 active torsions:
REMARK  status: ('A' for Active; 'I' for Inactive)
REMARK    1  A    between atoms: O_1  and  C_9
REMARK    2  A    between atoms: O_1  and  C_12
REMARK    3  A    between atoms: C_4  and  C_5
REMARK    4  A    between atoms: C_4  and  C_6
REMARK    5  A    between atoms: C_4  and  C_7
REMARK    6  A    between atoms: C_5  and  C_8
REMARK                            x       y       z     vdW  Elec       q    Type
REMARK                         _______ _______ _______ _____ _____    ______ ____
ROOT
ATOM      1  C   UNL     1       3.982   8.345   2.407  0.00  0.00    +0.000 C 
ATOM      2  H   UNL     1       3.043   8.533   2.944  0.00  0.00    +0.000 HD
ATOM      3  H   UNL     1       3.828   7.391   1.885  0.00  0.00    +0.000 HD
ENDROOT
BRANCH   1   6
ATOM      4  N   UNL     1       3.395  10.519   1.526  0.00  0.00    +0.000 NA
ATOM      5  N   UNL     1       5.354  10.316  -0.470  0.00  0.00    +0.000 NA
ATOM      6  C   UNL     1       4.194   9.451   1.403  0.00  0.00    +0.000 A 
ATOM      7  C   UNL     1       5.153   9.338   0.435  0.00  0.00    +0.000 A 
ATOM      8  C   UNL     1       3.595  11.498   0.621  0.00  0.00    +0.000 A 
ATOM      9  C   UNL     1       4.558  11.398  -0.359  0.00  0.00    +0.000 A 
ATOM     10  H   UNL     1       2.956  12.367   0.710  0.00  0.00    +0.000 HD
ATOM     11  H   UNL     1       4.720  12.185  -1.086  0.00  0.00    +0.000 HD
BRANCH   7  12
ATOM     12  O   UNL     1       5.950   8.231   0.342  0.00  0.00    +0.000 OA
BRANCH  12  13
ATOM     13  C   UNL     1       7.002   8.274  -0.616  0.00  0.00    +0.000 C 
ATOM     14  H   UNL     1       7.016   7.364  -1.225  0.00  0.00    +0.000 HD
ATOM     15  H   UNL     1       7.971   8.433  -0.129  0.00  0.00    +0.000 HD
ATOM     16  H   UNL     1       6.816   9.122  -1.282  0.00  0.00    +0.000 HD
ENDBRANCH  12  13
ENDBRANCH   7  12
ENDBRANCH   1   6
BRANCH   1  17
ATOM     17  C   UNL     1       5.132   8.197   3.423  0.00  0.00    +0.000 C 
ATOM     18  H   UNL     1       6.009   8.721   3.022  0.00  0.00    +0.000 HD
BRANCH  17  19
ATOM     19  C   UNL     1       4.776   8.800   4.784  0.00  0.00    +0.000 C 
ATOM     20  H   UNL     1       4.915   9.886   4.819  0.00  0.00    +0.000 HD
ATOM     21  H   UNL     1       5.360   8.336   5.584  0.00  0.00    +0.000 HD
ATOM     22  H   UNL     1       3.720   8.611   5.008  0.00  0.00    +0.000 HD
ENDBRANCH  17  19
BRANCH  17  23
ATOM     23  C   UNL     1       5.487   6.718   3.592  0.00  0.00    +0.000 C 
ATOM     24  H   UNL     1       6.566   6.575   3.471  0.00  0.00    +0.000 HD
ATOM     25  H   UNL     1       5.219   6.334   4.581  0.00  0.00    +0.000 HD
ATOM     26  H   UNL     1       4.989   6.103   2.834  0.00  0.00    +0.000 HD
ENDBRANCH  17  23
ENDBRANCH   1  17
TORSDOF 6
ENDMDL
MODEL 2
REMARK VINA RESULT:    -4.420     14.311     15.577
REMARK INTER + INTRA:          -5.854
REMARK INTER:                  -5.634
REMARK INTRA:                  -0.220
REMARK UNBOUND:                -0.271
REMARK  Name = 32594
REMARK  6 active torsions:
REMARK  status: ('A' for Active; 'I' for Inactive)
REMARK    1  A    between atoms: O_1  and  C_9
REMARK    2  A    between atoms: O_1  and  C_12
REMARK    3  A    between atoms: C_4  and  C_5
REMARK    4  A    between atoms: C_4  and  C_6
REMARK    5  A    between atoms: C_4  and  C_7
REMARK    6  A    between atoms: C_5  and  C_8
REMARK                            x       y       z     vdW  Elec       q    Type
REMARK                         _______ _______ _______ _____ _____    ______ ____
ROOT
ATOM      1  C   UNL     1      -8.069  11.788   6.633  0.00  0.00    +0.000 C 
ATOM      2  H   UNL     1      -8.029  12.608   7.362  0.00  0.00    +0.000 HD
ATOM      3  H   UNL     1      -7.314  11.067   6.971  0.00  0.00    +0.000 HD
ENDROOT
BRANCH   1   6
ATOM      4  N   UNL     1     -10.429  11.848   6.103  0.00  0.00    +0.000 NA
ATOM      5  N   UNL     1     -10.846   9.381   7.370  0.00  0.00    +0.000 NA
ATOM      6  C   UNL     1      -9.440  11.159   6.688  0.00  0.00    +0.000 A 
ATOM      7  C   UNL     1      -9.628   9.955   7.310  0.00  0.00    +0.000 A 
ATOM      8  C   UNL     1     -11.647  11.274   6.163  0.00  0.00    +0.000 A 
ATOM      9  C   UNL     1     -11.852  10.062   6.785  0.00  0.00    +0.000 A 
ATOM     10  H   UNL     1     -12.454  11.820   5.692  0.00  0.00    +0.000 HD
ATOM     11  H   UNL     1     -12.830   9.600   6.832  0.00  0.00    +0.000 HD
BRANCH   7  12
ATOM     12  O   UNL     1      -8.593   9.282   7.896  0.00  0.00    +0.000 OA
BRANCH  12  13
ATOM     13  C   UNL     1      -8.606   9.194   9.318  0.00  0.00    +0.000 C 
ATOM     14  H   UNL     1      -8.992  10.116   9.765  0.00  0.00    +0.000 HD
ATOM     15  H   UNL     1      -7.609   8.960   9.706  0.00  0.00    +0.000 HD
ATOM     16  H   UNL     1      -9.278   8.377   9.598  0.00  0.00    +0.000 HD
ENDBRANCH  12  13
ENDBRANCH   7  12
ENDBRANCH   1   6
BRANCH   1  17
ATOM     17  C   UNL     1      -7.686  12.323   5.239  0.00  0.00    +0.000 C 
ATOM     18  H   UNL     1      -8.556  12.849   4.826  0.00  0.00    +0.000 HD
BRANCH  17  19
ATOM     19  C   UNL     1      -6.506  13.295   5.302  0.00  0.00    +0.000 C 
ATOM     20  H   UNL     1      -6.765  14.304   4.964  0.00  0.00    +0.000 HD
ATOM     21  H   UNL     1      -5.660  12.925   4.716  0.00  0.00    +0.000 HD
ATOM     22  H   UNL     1      -6.159  13.390   6.338  0.00  0.00    +0.000 HD
ENDBRANCH  17  19
BRANCH  17  23
ATOM     23  C   UNL     1      -7.342  11.155   4.312  0.00  0.00    +0.000 C 
ATOM     24  H   UNL     1      -7.980  11.181   3.422  0.00  0.00    +0.000 HD
ATOM     25  H   UNL     1      -6.304  11.186   3.966  0.00  0.00    +0.000 HD
ATOM     26  H   UNL     1      -7.514  10.192   4.808  0.00  0.00    +0.000 HD
ENDBRANCH  17  23
ENDBRANCH   1  17
TORSDOF 6
ENDMDL
MODEL 3
REMARK VINA RESULT:    -4.404     14.031     15.146
REMARK INTER + INTRA:          -5.834
REMARK INTER:                  -5.617
REMARK INTRA:                  -0.217
REMARK UNBOUND:                -0.271
REMARK  Name = 32594
REMARK  6 active torsions:
REMARK  status: ('A' for Active; 'I' for Inactive)
REMARK    1  A    between atoms: O_1  and  C_9
REMARK    2  A    between atoms: O_1  and  C_12
REMARK    3  A    between atoms: C_4  and  C_5
REMARK    4  A    between atoms: C_4  and  C_6
REMARK    5  A    between atoms: C_4  and  C_7
REMARK    6  A    between atoms: C_5  and  C_8
REMARK                            x       y       z     vdW  Elec       q    Type
REMARK                         _______ _______ _______ _____ _____    ______ ____
ROOT
ATOM      1  C   UNL     1      -2.454   6.853 -10.854  0.00  0.00    +0.000 C 
ATOM      2  H   UNL     1      -2.560   6.095 -11.642  0.00  0.00    +0.000 HD
ATOM      3  H   UNL     1      -1.806   6.391 -10.098  0.00  0.00    +0.000 HD
ENDROOT
BRANCH   1   6
ATOM      4  N   UNL     1      -1.648   9.122 -10.625  0.00  0.00    +0.000 NA
ATOM      5  N   UNL     1      -0.722   9.132 -13.273  0.00  0.00    +0.000 NA
ATOM      6  C   UNL     1      -1.775   8.067 -11.440  0.00  0.00    +0.000 A 
ATOM      7  C   UNL     1      -1.328   8.057 -12.733  0.00  0.00    +0.000 A 
ATOM      8  C   UNL     1      -1.041  10.198 -11.164  0.00  0.00    +0.000 A 
ATOM      9  C   UNL     1      -0.585  10.204 -12.465  0.00  0.00    +0.000 A 
ATOM     10  H   UNL     1      -0.931  11.058 -10.516  0.00  0.00    +0.000 HD
ATOM     11  H   UNL     1      -0.097  11.068 -12.897  0.00  0.00    +0.000 HD
BRANCH   7  12
ATOM     12  O   UNL     1      -1.477   6.959 -13.534  0.00  0.00    +0.000 OA
BRANCH  12  13
ATOM     13  C   UNL     1      -2.332   7.099 -14.665  0.00  0.00    +0.000 C 
ATOM     14  H   UNL     1      -3.385   7.086 -14.364  0.00  0.00    +0.000 HD
ATOM     15  H   UNL     1      -2.128   6.321 -15.409  0.00  0.00    +0.000 HD
ATOM     16  H   UNL     1      -2.124   8.069 -15.125  0.00  0.00    +0.000 HD
ENDBRANCH  12  13
ENDBRANCH   7  12
ENDBRANCH   1   6
BRANCH   1  17
ATOM     17  C   UNL     1      -3.835   7.149 -10.239  0.00  0.00    +0.000 C 
ATOM     18  H   UNL     1      -3.930   8.236 -10.122  0.00  0.00    +0.000 HD
BRANCH  17  19
ATOM     19  C   UNL     1      -4.978   6.647 -11.125  0.00  0.00    +0.000 C 
ATOM     20  H   UNL     1      -5.008   5.556 -11.205  0.00  0.00    +0.000 HD
ATOM     21  H   UNL     1      -4.918   7.081 -12.128  0.00  0.00    +0.000 HD
ATOM     22  H   UNL     1      -5.940   6.959 -10.701  0.00  0.00    +0.000 HD
ENDBRANCH  17  19
BRANCH  17  23
ATOM     23  C   UNL     1      -3.935   6.503  -8.855  0.00  0.00    +0.000 C 
ATOM     24  H   UNL     1      -3.979   7.278  -8.081  0.00  0.00    +0.000 HD
ATOM     25  H   UNL     1      -4.833   5.886  -8.745  0.00  0.00    +0.000 HD
ATOM     26  H   UNL     1      -3.058   5.880  -8.645  0.00  0.00    +0.000 HD
ENDBRANCH  17  23
ENDBRANCH   1  17
TORSDOF 6
ENDMDL
MODEL 4
REMARK VINA RESULT:    -4.403      1.688      2.126
REMARK INTER + INTRA:          -5.833
REMARK INTER:                  -5.627
REMARK INTRA:                  -0.205
REMARK UNBOUND:                -0.271
REMARK  Name = 32594
REMARK  6 active torsions:
REMARK  status: ('A' for Active; 'I' for Inactive)
REMARK    1  A    between atoms: O_1  and  C_9
REMARK    2  A    between atoms: O_1  and  C_12
REMARK    3  A    between atoms: C_4  and  C_5
REMARK    4  A    between atoms: C_4  and  C_6
REMARK    5  A    between atoms: C_4  and  C_7
REMARK    6  A    between atoms: C_5  and  C_8
REMARK                            x       y       z     vdW  Elec       q    Type
REMARK                         _______ _______ _______ _____ _____    ______ ____
ROOT
ATOM      1  C   UNL     1       6.590   7.869   1.597  0.00  0.00    +0.000 C 
ATOM      2  H   UNL     1       6.104   6.972   1.190  0.00  0.00    +0.000 HD
ATOM      3  H   UNL     1       7.665   7.653   1.561  0.00  0.00    +0.000 HD
ENDROOT
BRANCH   1   6
ATOM      4  N   UNL     1       5.175   9.743   1.017  0.00  0.00    +0.000 NA
ATOM      5  N   UNL     1       6.799  10.378  -1.179  0.00  0.00    +0.000 NA
ATOM      6  C   UNL     1       6.270   9.040   0.700  0.00  0.00    +0.000 A 
ATOM      7  C   UNL     1       7.071   9.338  -0.367  0.00  0.00    +0.000 A 
ATOM      8  C   UNL     1       4.902  10.784   0.206  0.00  0.00    +0.000 A 
ATOM      9  C   UNL     1       5.700  11.097  -0.873  0.00  0.00    +0.000 A 
ATOM     10  H   UNL     1       4.019  11.361   0.452  0.00  0.00    +0.000 HD
ATOM     11  H   UNL     1       5.481  11.934  -1.524  0.00  0.00    +0.000 HD
BRANCH   7  12
ATOM     12  O   UNL     1       8.182   8.595  -0.658  0.00  0.00    +0.000 OA
BRANCH  12  13
ATOM     13  C   UNL     1       9.116   9.165  -1.569  0.00  0.00    +0.000 C 
ATOM     14  H   UNL     1       9.961   9.613  -1.036  0.00  0.00    +0.000 HD
ATOM     15  H   UNL     1       8.631   9.901  -2.220  0.00  0.00    +0.000 HD
ATOM     16  H   UNL     1       9.504   8.360  -2.201  0.00  0.00    +0.000 HD
ENDBRANCH  12  13
ENDBRANCH   7  12
ENDBRANCH   1   6
BRANCH   1  17
ATOM     17  C   UNL     1       6.152   8.068   3.061  0.00  0.00    +0.000 C 
ATOM     18  H   UNL     1       5.345   8.811   3.077  0.00  0.00    +0.000 HD
BRANCH  17  19
ATOM     19  C   UNL     1       5.639   6.770   3.689  0.00  0.00    +0.000 C 
ATOM     20  H   UNL     1       4.730   6.913   4.282  0.00  0.00    +0.000 HD
ATOM     21  H   UNL     1       6.408   6.305   4.313  0.00  0.00    +0.000 HD
ATOM     22  H   UNL     1       5.390   6.050   2.900  0.00  0.00    +0.000 HD
ENDBRANCH  17  19
BRANCH  17  23
ATOM     23  C   UNL     1       7.324   8.610   3.883  0.00  0.00    +0.000 C 
ATOM     24  H   UNL     1       7.053   8.648   4.944  0.00  0.00    +0.000 HD
ATOM     25  H   UNL     1       8.218   7.985   3.800  0.00  0.00    +0.000 HD
ATOM     26  H   UNL     1       7.584   9.630   3.575  0.00  0.00    +0.000 HD
ENDBRANCH  17  23
ENDBRANCH   1  17
TORSDOF 6
ENDMDL
MODEL 5
REMARK VINA RESULT:    -4.306     28.384     29.537
REMARK INTER + INTRA:          -5.709
REMARK INTER:                  -5.521
REMARK INTRA:                  -0.188
REMARK UNBOUND:                -0.271
REMARK  Name = 32594
REMARK  6 active torsions:
REMARK  status: ('A' for Active; 'I' for Inactive)
REMARK    1  A    between atoms: O_1  and  C_9
REMARK    2  A    between atoms: O_1  and  C_12
REMARK    3  A    between atoms: C_4  and  C_5
REMARK    4  A    between atoms: C_4  and  C_6
REMARK    5  A    between atoms: C_4  and  C_7
REMARK    6  A    between atoms: C_5  and  C_8
REMARK                            x       y       z     vdW  Elec       q    Type
REMARK                         _______ _______ _______ _____ _____    ______ ____
ROOT
ATOM      1  C   UNL     1     -21.224  -3.007   6.567  0.00  0.00    +0.000 C 
ATOM      2  H   UNL     1     -22.307  -2.825   6.606  0.00  0.00    +0.000 HD
ATOM      3  H   UNL     1     -20.990  -3.541   7.497  0.00  0.00    +0.000 HD
ENDROOT
BRANCH   1   6
ATOM      4  N   UNL     1     -19.688  -4.398   5.319  0.00  0.00    +0.000 NA
ATOM      5  N   UNL     1     -21.637  -4.919   3.370  0.00  0.00    +0.000 NA
ATOM      6  C   UNL     1     -20.926  -3.890   5.380  0.00  0.00    +0.000 A 
ATOM      7  C   UNL     1     -21.886  -4.135   4.437  0.00  0.00    +0.000 A 
ATOM      8  C   UNL     1     -19.437  -5.182   4.252  0.00  0.00    +0.000 A 
ATOM      9  C   UNL     1     -20.394  -5.439   3.295  0.00  0.00    +0.000 A 
ATOM     10  H   UNL     1     -18.440  -5.600   4.191  0.00  0.00    +0.000 HD
ATOM     11  H   UNL     1     -20.193  -6.070   2.438  0.00  0.00    +0.000 HD
BRANCH   7  12
ATOM     12  O   UNL     1     -23.139  -3.598   4.535  0.00  0.00    +0.000 OA
BRANCH  12  13
ATOM     13  C   UNL     1     -24.215  -4.508   4.748  0.00  0.00    +0.000 C 
ATOM     14  H   UNL     1     -24.690  -4.332   5.719  0.00  0.00    +0.000 HD
ATOM     15  H   UNL     1     -23.874  -5.545   4.663  0.00  0.00    +0.000 HD
ATOM     16  H   UNL     1     -24.963  -4.332   3.969  0.00  0.00    +0.000 HD
ENDBRANCH  12  13
ENDBRANCH   7  12
ENDBRANCH   1   6
BRANCH   1  17
ATOM     17  C   UNL     1     -20.478  -1.659   6.543  0.00  0.00    +0.000 C 
ATOM     18  H   UNL     1     -19.405  -1.862   6.648  0.00  0.00    +0.000 HD
BRANCH  17  19
ATOM     19  C   UNL     1     -20.710  -0.897   5.237  0.00  0.00    +0.000 C 
ATOM     20  H   UNL     1     -19.789  -0.739   4.665  0.00  0.00    +0.000 HD
ATOM     21  H   UNL     1     -21.188   0.069   5.424  0.00  0.00    +0.000 HD
ATOM     22  H   UNL     1     -21.387  -1.468   4.590  0.00  0.00    +0.000 HD
ENDBRANCH  17  19
BRANCH  17  23
ATOM     23  C   UNL     1     -20.925  -0.799   7.728  0.00  0.00    +0.000 C 
ATOM     24  H   UNL     1     -21.358   0.141   7.367  0.00  0.00    +0.000 HD
ATOM     25  H   UNL     1     -21.688  -1.292   8.339  0.00  0.00    +0.000 HD
ATOM     26  H   UNL     1     -20.077  -0.542   8.373  0.00  0.00    +0.000 HD
ENDBRANCH  17  23
ENDBRANCH   1  17
TORSDOF 6
ENDMDL
MODEL 6
REMARK VINA RESULT:    -4.277     13.942     15.208
REMARK INTER + INTRA:          -5.673
REMARK INTER:                  -5.553
REMARK INTRA:                  -0.120
REMARK UNBOUND:                -0.271
REMARK  Name = 32594
REMARK  6 active torsions:
REMARK  status: ('A' for Active; 'I' for Inactive)
REMARK    1  A    between atoms: O_1  and  C_9
REMARK    2  A    between atoms: O_1  and  C_12
REMARK    3  A    between atoms: C_4  and  C_5
REMARK    4  A    between atoms: C_4  and  C_6
REMARK    5  A    between atoms: C_4  and  C_7
REMARK    6  A    between atoms: C_5  and  C_8
REMARK                            x       y       z     vdW  Elec       q    Type
REMARK                         _______ _______ _______ _____ _____    ______ ____
ROOT
ATOM      1  C   UNL     1      -3.408   7.019 -10.987  0.00  0.00    +0.000 C 
ATOM      2  H   UNL     1      -4.428   7.364 -11.202  0.00  0.00    +0.000 HD
ATOM      3  H   UNL     1      -3.361   5.998 -11.390  0.00  0.00    +0.000 HD
ENDROOT
BRANCH   1   6
ATOM      4  N   UNL     1      -1.163   7.482 -11.760  0.00  0.00    +0.000 NA
ATOM      5  N   UNL     1      -1.997   9.877 -12.958  0.00  0.00    +0.000 NA
ATOM      6  C   UNL     1      -2.433   7.906 -11.721  0.00  0.00    +0.000 A 
ATOM      7  C   UNL     1      -2.854   9.071 -12.301  0.00  0.00    +0.000 A 
ATOM      8  C   UNL     1      -0.305   8.287 -12.418  0.00  0.00    +0.000 A 
ATOM      9  C   UNL     1      -0.714   9.463 -13.007  0.00  0.00    +0.000 A 
ATOM     10  H   UNL     1       0.725   7.954 -12.457  0.00  0.00    +0.000 HD
ATOM     11  H   UNL     1      -0.025  10.109 -13.536  0.00  0.00    +0.000 HD
BRANCH   7  12
ATOM     12  O   UNL     1      -4.160   9.471 -12.239  0.00  0.00    +0.000 OA
BRANCH  12  13
ATOM     13  C   UNL     1      -4.551  10.530 -13.108  0.00  0.00    +0.000 C 
ATOM     14  H   UNL     1      -5.206  10.162 -13.905  0.00  0.00    +0.000 HD
ATOM     15  H   UNL     1      -3.675  11.038 -13.526  0.00  0.00    +0.000 HD
ATOM     16  H   UNL     1      -5.114  11.259 -12.518  0.00  0.00    +0.000 HD
ENDBRANCH  12  13
ENDBRANCH   7  12
ENDBRANCH   1   6
BRANCH   1  17
ATOM     17  C   UNL     1      -3.190   6.983  -9.462  0.00  0.00    +0.000 C 
ATOM     18  H   UNL     1      -2.317   6.352  -9.257  0.00  0.00    +0.000 HD
BRANCH  17  19
ATOM     19  C   UNL     1      -2.937   8.377  -8.885  0.00  0.00    +0.000 C 
ATOM     20  H   UNL     1      -3.840   8.839  -8.473  0.00  0.00    +0.000 HD
ATOM     21  H   UNL     1      -2.503   9.042  -9.638  0.00  0.00    +0.000 HD
ATOM     22  H   UNL     1      -2.214   8.312  -8.063  0.00  0.00    +0.000 HD
ENDBRANCH  17  19
BRANCH  17  23
ATOM     23  C   UNL     1      -4.409   6.356  -8.780  0.00  0.00    +0.000 C 
ATOM     24  H   UNL     1      -4.304   6.420  -7.691  0.00  0.00    +0.000 HD
ATOM     25  H   UNL     1      -5.343   6.862  -9.044  0.00  0.00    +0.000 HD
ATOM     26  H   UNL     1      -4.505   5.295  -9.037  0.00  0.00    +0.000 HD
ENDBRANCH  17  23
ENDBRANCH   1  17
TORSDOF 6
ENDMDL
MODEL 7
REMARK VINA RESULT:    -4.273     14.179     15.468
REMARK INTER + INTRA:          -5.668
REMARK INTER:                  -5.397
REMARK INTRA:                  -0.271
REMARK UNBOUND:                -0.271
REMARK  Name = 32594
REMARK  6 active torsions:
REMARK  status: ('A' for Active; 'I' for Inactive)
REMARK    1  A    between atoms: O_1  and  C_9
REMARK    2  A    between atoms: O_1  and  C_12
REMARK    3  A    between atoms: C_4  and  C_5
REMARK    4  A    between atoms: C_4  and  C_6
REMARK    5  A    between atoms: C_4  and  C_7
REMARK    6  A    between atoms: C_5  and  C_8
REMARK                            x       y       z     vdW  Elec       q    Type
REMARK                         _______ _______ _______ _____ _____    ______ ____
ROOT
ATOM      1  C   UNL     1      -2.229   6.771 -11.091  0.00  0.00    +0.000 C 
ATOM      2  H   UNL     1      -2.443   5.699 -11.200  0.00  0.00    +0.000 HD
ATOM      3  H   UNL     1      -1.386   6.825 -10.390  0.00  0.00    +0.000 HD
ENDROOT
BRANCH   1   6
ATOM      4  N   UNL     1      -2.343   6.713 -13.506  0.00  0.00    +0.000 NA
ATOM      5  N   UNL     1      -0.572   8.879 -13.709  0.00  0.00    +0.000 NA
ATOM      6  C   UNL     1      -1.817   7.320 -12.434  0.00  0.00    +0.000 A 
ATOM      7  C   UNL     1      -0.953   8.377 -12.518  0.00  0.00    +0.000 A 
ATOM      8  C   UNL     1      -1.963   7.214 -14.698  0.00  0.00    +0.000 A 
ATOM      9  C   UNL     1      -1.094   8.278 -14.798  0.00  0.00    +0.000 A 
ATOM     10  H   UNL     1      -2.381   6.732 -15.573  0.00  0.00    +0.000 HD
ATOM     11  H   UNL     1      -0.789   8.681 -15.756  0.00  0.00    +0.000 HD
BRANCH   7  12
ATOM     12  O   UNL     1      -0.437   8.971 -11.400  0.00  0.00    +0.000 OA
BRANCH  12  13
ATOM     13  C   UNL     1      -0.983  10.234 -11.032  0.00  0.00    +0.000 C 
ATOM     14  H   UNL     1      -2.047  10.291 -11.288  0.00  0.00    +0.000 HD
ATOM     15  H   UNL     1      -0.425  11.053 -11.497  0.00  0.00    +0.000 HD
ATOM     16  H   UNL     1      -0.892  10.336  -9.946  0.00  0.00    +0.000 HD
ENDBRANCH  12  13
ENDBRANCH   7  12
ENDBRANCH   1   6
BRANCH   1  17
ATOM     17  C   UNL     1      -3.455   7.477 -10.479  0.00  0.00    +0.000 C 
ATOM     18  H   UNL     1      -3.604   8.424 -11.013  0.00  0.00    +0.000 HD
BRANCH  17  19
ATOM     19  C   UNL     1      -4.727   6.635 -10.607  0.00  0.00    +0.000 C 
ATOM     20  H   UNL     1      -5.633   7.242 -10.696  0.00  0.00    +0.000 HD
ATOM     21  H   UNL     1      -4.832   5.950  -9.761  0.00  0.00    +0.000 HD
ATOM     22  H   UNL     1      -4.672   6.018 -11.512  0.00  0.00    +0.000 HD
ENDBRANCH  17  19
BRANCH  17  23
ATOM     23  C   UNL     1      -3.191   7.790  -9.005  0.00  0.00    +0.000 C 
ATOM     24  H   UNL     1      -3.915   7.263  -8.373  0.00  0.00    +0.000 HD
ATOM     25  H   UNL     1      -2.193   7.475  -8.682  0.00  0.00    +0.000 HD
ATOM     26  H   UNL     1      -3.298   8.861  -8.802  0.00  0.00    +0.000 HD
ENDBRANCH  17  23
ENDBRANCH   1  17
TORSDOF 6
ENDMDL
MODEL 8
REMARK VINA RESULT:    -4.198     28.370     29.450
REMARK INTER + INTRA:          -5.574
REMARK INTER:                  -5.357
REMARK INTRA:                  -0.217
REMARK UNBOUND:                -0.271
REMARK  Name = 32594
REMARK  6 active torsions:
REMARK  status: ('A' for Active; 'I' for Inactive)
REMARK    1  A    between atoms: O_1  and  C_9
REMARK    2  A    between atoms: O_1  and  C_12
REMARK    3  A    between atoms: C_4  and  C_5
REMARK    4  A    between atoms: C_4  and  C_6
REMARK    5  A    between atoms: C_4  and  C_7
REMARK    6  A    between atoms: C_5  and  C_8
REMARK                            x       y       z     vdW  Elec       q    Type
REMARK                         _______ _______ _______ _____ _____    ______ ____
ROOT
ATOM      1  C   UNL     1     -20.845  -2.833   6.380  0.00  0.00    +0.000 C 
ATOM      2  H   UNL     1     -20.977  -3.381   7.323  0.00  0.00    +0.000 HD
ATOM      3  H   UNL     1     -19.764  -2.847   6.189  0.00  0.00    +0.000 HD
ENDROOT
BRANCH   1   6
ATOM      4  N   UNL     1     -22.908  -3.522   5.321  0.00  0.00    +0.000 NA
ATOM      5  N   UNL     1     -21.503  -4.927   3.342  0.00  0.00    +0.000 NA
ATOM      6  C   UNL     1     -21.570  -3.576   5.284  0.00  0.00    +0.000 A 
ATOM      7  C   UNL     1     -20.871  -4.257   4.326  0.00  0.00    +0.000 A 
ATOM      8  C   UNL     1     -23.540  -4.192   4.337  0.00  0.00    +0.000 A 
ATOM      9  C   UNL     1     -22.850  -4.881   3.365  0.00  0.00    +0.000 A 
ATOM     10  H   UNL     1     -24.622  -4.155   4.355  0.00  0.00    +0.000 HD
ATOM     11  H   UNL     1     -23.358  -5.419   2.574  0.00  0.00    +0.000 HD
BRANCH   7  12
ATOM     12  O   UNL     1     -19.505  -4.288   4.322  0.00  0.00    +0.000 OA
BRANCH  12  13
ATOM     13  C   UNL     1     -18.889  -5.542   4.602  0.00  0.00    +0.000 C 
ATOM     14  H   UNL     1     -17.803  -5.484   4.471  0.00  0.00    +0.000 HD
ATOM     15  H   UNL     1     -19.315  -6.336   3.979  0.00  0.00    +0.000 HD
ATOM     16  H   UNL     1     -19.090  -5.789   5.649  0.00  0.00    +0.000 HD
ENDBRANCH  12  13
ENDBRANCH   7  12
ENDBRANCH   1   6
BRANCH   1  17
ATOM     17  C   UNL     1     -21.318  -1.378   6.564  0.00  0.00    +0.000 C 
ATOM     18  H   UNL     1     -22.312  -1.283   6.109  0.00  0.00    +0.000 HD
BRANCH  17  19
ATOM     19  C   UNL     1     -21.412  -0.986   8.040  0.00  0.00    +0.000 C 
ATOM     20  H   UNL     1     -22.430  -0.729   8.349  0.00  0.00    +0.000 HD
ATOM     21  H   UNL     1     -20.744  -0.152   8.269  0.00  0.00    +0.000 HD
ATOM     22  H   UNL     1     -21.096  -1.829   8.667  0.00  0.00    +0.000 HD
ENDBRANCH  17  19
BRANCH  17  23
ATOM     23  C   UNL     1     -20.363  -0.427   5.839  0.00  0.00    +0.000 C 
ATOM     24  H   UNL     1     -20.529   0.602   6.175  0.00  0.00    +0.000 HD
ATOM     25  H   UNL     1     -19.311  -0.663   6.031  0.00  0.00    +0.000 HD
ATOM     26  H   UNL     1     -20.530  -0.448   4.756  0.00  0.00    +0.000 HD
ENDBRANCH  17  23
ENDBRANCH   1  17
TORSDOF 6
ENDMDL
MODEL 9
REMARK VINA RESULT:    -4.136     18.009     19.586
REMARK INTER + INTRA:          -5.495
REMARK INTER:                  -5.208
REMARK INTRA:                  -0.287
REMARK UNBOUND:                -0.271
REMARK  Name = 32594
REMARK  6 active torsions:
REMARK  status: ('A' for Active; 'I' for Inactive)
REMARK    1  A    between atoms: O_1  and  C_9
REMARK    2  A    between atoms: O_1  and  C_12
REMARK    3  A    between atoms: C_4  and  C_5
REMARK    4  A    between atoms: C_4  and  C_6
REMARK    5  A    between atoms: C_4  and  C_7
REMARK    6  A    between atoms: C_5  and  C_8
REMARK                            x       y       z     vdW  Elec       q    Type
REMARK                         _______ _______ _______ _____ _____    ______ ____
ROOT
ATOM      1  C   UNL     1       5.534  -0.794 -15.427  0.00  0.00    +0.000 C 
ATOM      2  H   UNL     1       6.211   0.063 -15.547  0.00  0.00    +0.000 HD
ATOM      3  H   UNL     1       6.035  -1.456 -14.708  0.00  0.00    +0.000 HD
ENDROOT
BRANCH   1   6
ATOM      4  N   UNL     1       3.672   0.749 -15.466  0.00  0.00    +0.000 NA
ATOM      5  N   UNL     1       2.515  -0.485 -13.228  0.00  0.00    +0.000 NA
ATOM      6  C   UNL     1       4.230  -0.301 -14.850  0.00  0.00    +0.000 A 
ATOM      7  C   UNL     1       3.678  -0.913 -13.758  0.00  0.00    +0.000 A 
ATOM      8  C   UNL     1       2.509   1.178 -14.937  0.00  0.00    +0.000 A 
ATOM      9  C   UNL     1       1.940   0.572 -13.838  0.00  0.00    +0.000 A 
ATOM     10  H   UNL     1       2.047   2.026 -15.427  0.00  0.00    +0.000 HD
ATOM     11  H   UNL     1       1.005   0.916 -13.414  0.00  0.00    +0.000 HD
BRANCH   7  12
ATOM     12  O   UNL     1       4.279  -1.983 -13.156  0.00  0.00    +0.000 OA
BRANCH  12  13
ATOM     13  C   UNL     1       3.562  -3.214 -13.168  0.00  0.00    +0.000 C 
ATOM     14  H   UNL     1       4.239  -4.061 -13.322  0.00  0.00    +0.000 HD
ATOM     15  H   UNL     1       2.773  -3.202 -13.928  0.00  0.00    +0.000 HD
ATOM     16  H   UNL     1       3.087  -3.335 -12.190  0.00  0.00    +0.000 HD
ENDBRANCH  12  13
ENDBRANCH   7  12
ENDBRANCH   1   6
BRANCH   1  17
ATOM     17  C   UNL     1       5.382  -1.520 -16.778  0.00  0.00    +0.000 C 
ATOM     18  H   UNL     1       4.459  -1.165 -17.253  0.00  0.00    +0.000 HD
BRANCH  17  19
ATOM     19  C   UNL     1       6.558  -1.238 -17.717  0.00  0.00    +0.000 C 
ATOM     20  H   UNL     1       7.253  -0.492 -17.318  0.00  0.00    +0.000 HD
ATOM     21  H   UNL     1       6.207  -0.915 -18.701  0.00  0.00    +0.000 HD
ATOM     22  H   UNL     1       7.137  -2.156 -17.870  0.00  0.00    +0.000 HD
ENDBRANCH  17  19
BRANCH  17  23
ATOM     23  C   UNL     1       5.259  -3.027 -16.545  0.00  0.00    +0.000 C 
ATOM     24  H   UNL     1       4.218  -3.289 -16.325  0.00  0.00    +0.000 HD
ATOM     25  H   UNL     1       5.560  -3.612 -17.420  0.00  0.00    +0.000 HD
ATOM     26  H   UNL     1       5.864  -3.347 -15.690  0.00  0.00    +0.000 HD
ENDBRANCH  17  23
ENDBRANCH   1  17
TORSDOF 6
ENDMDL
MODEL 10
REMARK VINA RESULT:    -4.129     27.794     29.595
REMARK INTER + INTRA:          -5.486
REMARK INTER:                  -5.215
REMARK INTRA:                  -0.271
REMARK UNBOUND:                -0.271
REMARK  Name = 32594
REMARK  6 active torsions:
REMARK  status: ('A' for Active; 'I' for Inactive)
REMARK    1  A    between atoms: O_1  and  C_9
REMARK    2  A    between atoms: O_1  and  C_12
REMARK    3  A    between atoms: C_4  and  C_5
REMARK    4  A    between atoms: C_4  and  C_6
REMARK    5  A    between atoms: C_4  and  C_7
REMARK    6  A    between atoms: C_5  and  C_8
REMARK                            x       y       z     vdW  Elec       q    Type
REMARK                         _______ _______ _______ _____ _____    ______ ____
ROOT
ATOM      1  C   UNL     1     -10.348 -11.986  17.224  0.00  0.00    +0.000 C 
ATOM      2  H   UNL     1      -9.529 -12.580  17.653  0.00  0.00    +0.000 HD
ATOM      3  H   UNL     1     -10.584 -11.232  17.986  0.00  0.00    +0.000 HD
ENDROOT
BRANCH   1   6
ATOM      4  N   UNL     1      -8.873 -11.945  15.308  0.00  0.00    +0.000 NA
ATOM      5  N   UNL     1      -9.948  -9.502  14.446  0.00  0.00    +0.000 NA
ATOM      6  C   UNL     1      -9.849 -11.311  15.970  0.00  0.00    +0.000 A 
ATOM      7  C   UNL     1     -10.383 -10.120  15.562  0.00  0.00    +0.000 A 
ATOM      8  C   UNL     1      -8.437 -11.328  14.192  0.00  0.00    +0.000 A 
ATOM      9  C   UNL     1      -8.966 -10.129  13.768  0.00  0.00    +0.000 A 
ATOM     10  H   UNL     1      -7.648 -11.831  13.646  0.00  0.00    +0.000 HD
ATOM     11  H   UNL     1      -8.616  -9.634  12.870  0.00  0.00    +0.000 HD
BRANCH   7  12
ATOM     12  O   UNL     1     -11.380  -9.503  16.266  0.00  0.00    +0.000 OA
BRANCH  12  13
ATOM     13  C   UNL     1     -12.651  -9.405  15.631  0.00  0.00    +0.000 C 
ATOM     14  H   UNL     1     -12.573  -8.868  14.679  0.00  0.00    +0.000 HD
ATOM     15  H   UNL     1     -13.383  -8.927  16.290  0.00  0.00    +0.000 HD
ATOM     16  H   UNL     1     -12.999 -10.420  15.418  0.00  0.00    +0.000 HD
ENDBRANCH  12  13
ENDBRANCH   7  12
ENDBRANCH   1   6
BRANCH   1  17
ATOM     17  C   UNL     1     -11.573 -12.893  16.998  0.00  0.00    +0.000 C 
ATOM     18  H   UNL     1     -12.045 -12.598  16.052  0.00  0.00    +0.000 HD
BRANCH  17  19
ATOM     19  C   UNL     1     -11.186 -14.371  16.915  0.00  0.00    +0.000 C 
ATOM     20  H   UNL     1     -10.176 -14.526  16.521  0.00  0.00    +0.000 HD
ATOM     21  H   UNL     1     -11.901 -14.931  16.306  0.00  0.00    +0.000 HD
ATOM     22  H   UNL     1     -11.205 -14.815  17.917  0.00  0.00    +0.000 HD
ENDBRANCH  17  19
BRANCH  17  23
ATOM     23  C   UNL     1     -12.585 -12.688  18.128  0.00  0.00    +0.000 C 
ATOM     24  H   UNL     1     -13.472 -13.307  17.955  0.00  0.00    +0.000 HD
ATOM     25  H   UNL     1     -12.182 -12.967  19.106  0.00  0.00    +0.000 HD
ATOM     26  H   UNL     1     -12.919 -11.645  18.175  0.00  0.00    +0.000 HD
ENDBRANCH  17  23
ENDBRANCH   1  17
TORSDOF 6
ENDMDL
