MODEL 1
REMARK VINA RESULT:    -3.778      0.000      0.000
REMARK INTER + INTRA:          -3.888
REMARK INTER:                  -3.888
REMARK INTRA:                   0.000
REMARK UNBOUND:                 0.000
REMARK  Name = 7976
REMARK  1 active torsions:
REMARK  status: ('A' for Active; 'I' for Inactive)
REMARK    1  A    between atoms: C_3  and  C_4
REMARK                            x       y       z     vdW  Elec       q    Type
REMARK                         _______ _______ _______ _____ _____    ______ ____
ROOT
ATOM      1  N   UNL     1      -2.056   7.827 -10.998  0.00  0.00    +0.000 NA
ATOM      2  N   UNL     1      -3.207   8.074  -8.452  0.00  0.00    +0.000 NA
ATOM      3  C   UNL     1      -1.948   8.958 -10.272  0.00  0.00    +0.000 A 
ATOM      4  C   UNL     1      -2.513   9.079  -9.021  0.00  0.00    +0.000 A 
ATOM      5  C   UNL     1      -2.751   6.822 -10.427  0.00  0.00    +0.000 A 
ATOM      6  C   UNL     1      -3.315   6.944  -9.177  0.00  0.00    +0.000 A 
ATOM      7  H   UNL     1      -2.431   9.985  -8.431  0.00  0.00    +0.000 HD
ATOM      8  H   UNL     1      -2.838   5.913 -11.010  0.00  0.00    +0.000 HD
ATOM      9  H   UNL     1      -3.873   6.135  -8.720  0.00  0.00    +0.000 HD
ENDROOT
BRANCH   3  10
ATOM     10  C   UNL     1      -1.188  10.090 -10.870  0.00  0.00    +0.000 C 
ATOM     11  H   UNL     1      -0.283  10.292 -10.287  0.00  0.00    +0.000 HD
ATOM     12  H   UNL     1      -0.903   9.855 -11.901  0.00  0.00    +0.000 HD
ATOM     13  H   UNL     1      -1.791  11.004 -10.886  0.00  0.00    +0.000 HD
ENDBRANCH   3  10
TORSDOF 1
ENDMDL
MODEL 2
REMARK VINA RESULT:    -3.721     12.802     12.807
REMARK INTER + INTRA:          -3.830
REMARK INTER:                  -3.830
REMARK INTRA:                   0.000
REMARK UNBOUND:                 0.000
REMARK  Name = 7976
REMARK  1 active torsions:
REMARK  status: ('A' for Active; 'I' for Inactive)
REMARK    1  A    between atoms: C_3  and  C_4
REMARK                            x       y       z     vdW  Elec       q    Type
REMARK                         _______ _______ _______ _____ _____    ______ ____
ROOT
ATOM      1  N   UNL     1       5.496   9.474   0.120  0.00  0.00    +0.000 NA
ATOM      2  N   UNL     1       3.607  11.307   1.089  0.00  0.00    +0.000 NA
ATOM      3  C   UNL     1       5.525  10.778  -0.222  0.00  0.00    +0.000 A 
ATOM      4  C   UNL     1       4.596  11.678   0.254  0.00  0.00    +0.000 A 
ATOM      5  C   UNL     1       4.505   9.104   0.956  0.00  0.00    +0.000 A 
ATOM      6  C   UNL     1       3.577  10.004   1.432  0.00  0.00    +0.000 A 
ATOM      7  H   UNL     1       4.613  12.728  -0.017  0.00  0.00    +0.000 HD
ATOM      8  H   UNL     1       4.481   8.057   1.231  0.00  0.00    +0.000 HD
ATOM      9  H   UNL     1       2.782   9.705   2.103  0.00  0.00    +0.000 HD
ENDROOT
BRANCH   3  10
ATOM     10  C   UNL     1       6.605  11.224  -1.144  0.00  0.00    +0.000 C 
ATOM     11  H   UNL     1       6.179  11.572  -2.091  0.00  0.00    +0.000 HD
ATOM     12  H   UNL     1       7.181  12.037  -0.691  0.00  0.00    +0.000 HD
ATOM     13  H   UNL     1       7.296  10.403  -1.366  0.00  0.00    +0.000 HD
ENDBRANCH   3  10
TORSDOF 1
ENDMDL
MODEL 3
REMARK VINA RESULT:    -3.706     12.329     13.152
REMARK INTER + INTRA:          -3.815
REMARK INTER:                  -3.815
REMARK INTRA:                   0.000
REMARK UNBOUND:                 0.000
REMARK  Name = 7976
REMARK  1 active torsions:
REMARK  status: ('A' for Active; 'I' for Inactive)
REMARK    1  A    between atoms: C_3  and  C_4
REMARK                            x       y       z     vdW  Elec       q    Type
REMARK                         _______ _______ _______ _____ _____    ______ ____
ROOT
ATOM      1  N   UNL     1       3.165  10.345   1.812  0.00  0.00    +0.000 NA
ATOM      2  N   UNL     1       5.485   9.023   0.952  0.00  0.00    +0.000 NA
ATOM      3  C   UNL     1       3.800  10.685   0.673  0.00  0.00    +0.000 A 
ATOM      4  C   UNL     1       4.940  10.036   0.250  0.00  0.00    +0.000 A 
ATOM      5  C   UNL     1       3.712   9.331   2.513  0.00  0.00    +0.000 A 
ATOM      6  C   UNL     1       4.850   8.682   2.091  0.00  0.00    +0.000 A 
ATOM      7  H   UNL     1       5.456  10.304  -0.664  0.00  0.00    +0.000 HD
ATOM      8  H   UNL     1       3.202   9.056   3.429  0.00  0.00    +0.000 HD
ATOM      9  H   UNL     1       5.288   7.868   2.656  0.00  0.00    +0.000 HD
ENDROOT
BRANCH   3  10
ATOM     10  C   UNL     1       3.226  11.801  -0.128  0.00  0.00    +0.000 C 
ATOM     11  H   UNL     1       3.926  12.642  -0.167  0.00  0.00    +0.000 HD
ATOM     12  H   UNL     1       3.012  11.467  -1.149  0.00  0.00    +0.000 HD
ATOM     13  H   UNL     1       2.290  12.161   0.313  0.00  0.00    +0.000 HD
ENDBRANCH   3  10
TORSDOF 1
ENDMDL
MODEL 4
REMARK VINA RESULT:    -3.614      1.374      2.824
REMARK INTER + INTRA:          -3.719
REMARK INTER:                  -3.719
REMARK INTRA:                   0.000
REMARK UNBOUND:                 0.000
REMARK  Name = 7976
REMARK  1 active torsions:
REMARK  status: ('A' for Active; 'I' for Inactive)
REMARK    1  A    between atoms: C_3  and  C_4
REMARK                            x       y       z     vdW  Elec       q    Type
REMARK                         _______ _______ _______ _____ _____    ______ ____
ROOT
ATOM      1  N   UNL     1      -1.776   7.514 -11.414  0.00  0.00    +0.000 NA
ATOM      2  N   UNL     1      -1.458  10.049 -10.256  0.00  0.00    +0.000 NA
ATOM      3  C   UNL     1      -2.396   7.858 -10.268  0.00  0.00    +0.000 A 
ATOM      4  C   UNL     1      -2.240   9.104  -9.699  0.00  0.00    +0.000 A 
ATOM      5  C   UNL     1      -0.994   8.461 -11.971  0.00  0.00    +0.000 A 
ATOM      6  C   UNL     1      -0.838   9.705 -11.402  0.00  0.00    +0.000 A 
ATOM      7  H   UNL     1      -2.735   9.388  -8.778  0.00  0.00    +0.000 HD
ATOM      8  H   UNL     1      -0.495   8.185 -12.892  0.00  0.00    +0.000 HD
ATOM      9  H   UNL     1      -0.209  10.464 -11.851  0.00  0.00    +0.000 HD
ENDROOT
BRANCH   3  10
ATOM     10  C   UNL     1      -3.268   6.838  -9.624  0.00  0.00    +0.000 C 
ATOM     11  H   UNL     1      -3.940   6.389 -10.363  0.00  0.00    +0.000 HD
ATOM     12  H   UNL     1      -2.660   6.049  -9.169  0.00  0.00    +0.000 HD
ATOM     13  H   UNL     1      -3.883   7.286  -8.837  0.00  0.00    +0.000 HD
ENDBRANCH   3  10
TORSDOF 1
ENDMDL
MODEL 5
REMARK VINA RESULT:    -3.602      1.402      2.133
REMARK INTER + INTRA:          -3.707
REMARK INTER:                  -3.707
REMARK INTRA:                   0.000
REMARK UNBOUND:                 0.000
REMARK  Name = 7976
REMARK  1 active torsions:
REMARK  status: ('A' for Active; 'I' for Inactive)
REMARK    1  A    between atoms: C_3  and  C_4
REMARK                            x       y       z     vdW  Elec       q    Type
REMARK                         _______ _______ _______ _____ _____    ______ ____
ROOT
ATOM      1  N   UNL     1      -2.816   6.733 -10.246  0.00  0.00    +0.000 NA
ATOM      2  N   UNL     1      -2.137   9.393  -9.671  0.00  0.00    +0.000 NA
ATOM      3  C   UNL     1      -2.087   7.484 -11.096  0.00  0.00    +0.000 A 
ATOM      4  C   UNL     1      -1.753   8.791 -10.813  0.00  0.00    +0.000 A 
ATOM      5  C   UNL     1      -3.199   7.337  -9.103  0.00  0.00    +0.000 A 
ATOM      6  C   UNL     1      -2.865   8.643  -8.821  0.00  0.00    +0.000 A 
ATOM      7  H   UNL     1      -1.168   9.401 -11.491  0.00  0.00    +0.000 HD
ATOM      8  H   UNL     1      -3.785   6.734  -8.420  0.00  0.00    +0.000 HD
ATOM      9  H   UNL     1      -3.174   9.126  -7.902  0.00  0.00    +0.000 HD
ENDROOT
BRANCH   3  10
ATOM     10  C   UNL     1      -1.646   6.850 -12.369  0.00  0.00    +0.000 C 
ATOM     11  H   UNL     1      -0.710   6.303 -12.218  0.00  0.00    +0.000 HD
ATOM     12  H   UNL     1      -2.410   6.157 -12.735  0.00  0.00    +0.000 HD
ATOM     13  H   UNL     1      -1.474   7.604 -13.145  0.00  0.00    +0.000 HD
ENDBRANCH   3  10
TORSDOF 1
ENDMDL
MODEL 6
REMARK VINA RESULT:    -3.401     32.126     33.023
REMARK INTER + INTRA:          -3.500
REMARK INTER:                  -3.500
REMARK INTRA:                   0.000
REMARK UNBOUND:                 0.000
REMARK  Name = 7976
REMARK  1 active torsions:
REMARK  status: ('A' for Active; 'I' for Inactive)
REMARK    1  A    between atoms: C_3  and  C_4
REMARK                            x       y       z     vdW  Elec       q    Type
REMARK                         _______ _______ _______ _____ _____    ______ ____
ROOT
ATOM      1  N   UNL     1      -9.975 -12.314  15.908  0.00  0.00    +0.000 NA
ATOM      2  N   UNL     1     -10.978  -9.698  15.770  0.00  0.00    +0.000 NA
ATOM      3  C   UNL     1      -9.294 -11.319  15.305  0.00  0.00    +0.000 A 
ATOM      4  C   UNL     1      -9.787 -10.034  15.237  0.00  0.00    +0.000 A 
ATOM      5  C   UNL     1     -11.167 -11.977  16.441  0.00  0.00    +0.000 A 
ATOM      6  C   UNL     1     -11.659 -10.693  16.373  0.00  0.00    +0.000 A 
ATOM      7  H   UNL     1      -9.246  -9.229  14.754  0.00  0.00    +0.000 HD
ATOM      8  H   UNL     1     -11.715 -12.776  16.926  0.00  0.00    +0.000 HD
ATOM      9  H   UNL     1     -12.617 -10.423  16.802  0.00  0.00    +0.000 HD
ENDROOT
BRANCH   3  10
ATOM     10  C   UNL     1      -7.974 -11.654  14.705  0.00  0.00    +0.000 C 
ATOM     11  H   UNL     1      -7.535 -12.522  15.209  0.00  0.00    +0.000 HD
ATOM     12  H   UNL     1      -8.085 -11.880  13.639  0.00  0.00    +0.000 HD
ATOM     13  H   UNL     1      -7.274 -10.818  14.802  0.00  0.00    +0.000 HD
ENDBRANCH   3  10
TORSDOF 1
ENDMDL
MODEL 7
REMARK VINA RESULT:    -3.265     31.509     32.742
REMARK INTER + INTRA:          -3.361
REMARK INTER:                  -3.361
REMARK INTRA:                   0.000
REMARK UNBOUND:                 0.000
REMARK  Name = 7976
REMARK  1 active torsions:
REMARK  status: ('A' for Active; 'I' for Inactive)
REMARK    1  A    between atoms: C_3  and  C_4
REMARK                            x       y       z     vdW  Elec       q    Type
REMARK                         _______ _______ _______ _____ _____    ______ ____
ROOT
ATOM      1  N   UNL     1     -10.082 -11.718  16.382  0.00  0.00    +0.000 NA
ATOM      2  N   UNL     1      -8.551 -10.482  14.383  0.00  0.00    +0.000 NA
ATOM      3  C   UNL     1     -10.470 -10.568  15.795  0.00  0.00    +0.000 A 
ATOM      4  C   UNL     1      -9.718  -9.961  14.812  0.00  0.00    +0.000 A 
ATOM      5  C   UNL     1      -8.915 -12.238  15.952  0.00  0.00    +0.000 A 
ATOM      6  C   UNL     1      -8.164 -11.631  14.971  0.00  0.00    +0.000 A 
ATOM      7  H   UNL     1     -10.022  -9.037  14.335  0.00  0.00    +0.000 HD
ATOM      8  H   UNL     1      -8.603 -13.162  16.424  0.00  0.00    +0.000 HD
ATOM      9  H   UNL     1      -7.226 -12.051  14.627  0.00  0.00    +0.000 HD
ENDROOT
BRANCH   3  10
ATOM     10  C   UNL     1     -11.754  -9.964  16.244  0.00  0.00    +0.000 C 
ATOM     11  H   UNL     1     -11.569  -9.196  17.002  0.00  0.00    +0.000 HD
ATOM     12  H   UNL     1     -12.279  -9.511  15.397  0.00  0.00    +0.000 HD
ATOM     13  H   UNL     1     -12.412 -10.721  16.684  0.00  0.00    +0.000 HD
ENDBRANCH   3  10
TORSDOF 1
ENDMDL
MODEL 8
REMARK VINA RESULT:    -3.231     31.692     33.249
REMARK INTER + INTRA:          -3.325
REMARK INTER:                  -3.325
REMARK INTRA:                   0.000
REMARK UNBOUND:                 0.000
REMARK  Name = 7976
REMARK  1 active torsions:
REMARK  status: ('A' for Active; 'I' for Inactive)
REMARK    1  A    between atoms: C_3  and  C_4
REMARK                            x       y       z     vdW  Elec       q    Type
REMARK                         _______ _______ _______ _____ _____    ______ ____
ROOT
ATOM      1  N   UNL     1     -10.123 -11.288  16.703  0.00  0.00    +0.000 NA
ATOM      2  N   UNL     1      -8.292 -10.848  14.624  0.00  0.00    +0.000 NA
ATOM      3  C   UNL     1      -8.992 -12.012  16.582  0.00  0.00    +0.000 A 
ATOM      4  C   UNL     1      -8.093 -11.796  15.560  0.00  0.00    +0.000 A 
ATOM      5  C   UNL     1     -10.322 -10.340  15.765  0.00  0.00    +0.000 A 
ATOM      6  C   UNL     1      -9.423 -10.124  14.745  0.00  0.00    +0.000 A 
ATOM      7  H   UNL     1      -7.182 -12.373  15.456  0.00  0.00    +0.000 HD
ATOM      8  H   UNL     1     -11.230  -9.758  15.862  0.00  0.00    +0.000 HD
ATOM      9  H   UNL     1      -9.584  -9.362  13.992  0.00  0.00    +0.000 HD
ENDROOT
BRANCH   3  10
ATOM     10  C   UNL     1      -8.739 -13.069  17.600  0.00  0.00    +0.000 C 
ATOM     11  H   UNL     1      -7.770 -12.907  18.084  0.00  0.00    +0.000 HD
ATOM     12  H   UNL     1      -9.524 -13.060  18.362  0.00  0.00    +0.000 HD
ATOM     13  H   UNL     1      -8.725 -14.062  17.140  0.00  0.00    +0.000 HD
ENDBRANCH   3  10
TORSDOF 1
ENDMDL
MODEL 9
REMARK VINA RESULT:    -3.189      8.138      9.264
REMARK INTER + INTRA:          -3.282
REMARK INTER:                  -3.282
REMARK INTRA:                   0.000
REMARK UNBOUND:                 0.000
REMARK  Name = 7976
REMARK  1 active torsions:
REMARK  status: ('A' for Active; 'I' for Inactive)
REMARK    1  A    between atoms: C_3  and  C_4
REMARK                            x       y       z     vdW  Elec       q    Type
REMARK                         _______ _______ _______ _____ _____    ______ ____
ROOT
ATOM      1  N   UNL     1     -10.561   4.962  -5.334  0.00  0.00    +0.000 NA
ATOM      2  N   UNL     1      -8.696   7.057  -5.379  0.00  0.00    +0.000 NA
ATOM      3  C   UNL     1      -9.261   4.767  -5.036  0.00  0.00    +0.000 A 
ATOM      4  C   UNL     1      -8.345   5.796  -5.059  0.00  0.00    +0.000 A 
ATOM      5  C   UNL     1     -10.912   6.224  -5.654  0.00  0.00    +0.000 A 
ATOM      6  C   UNL     1      -9.996   7.252  -5.676  0.00  0.00    +0.000 A 
ATOM      7  H   UNL     1      -7.298   5.647  -4.821  0.00  0.00    +0.000 HD
ATOM      8  H   UNL     1     -11.957   6.381  -5.893  0.00  0.00    +0.000 HD
ATOM      9  H   UNL     1     -10.280   8.265  -5.934  0.00  0.00    +0.000 HD
ENDROOT
BRANCH   3  10
ATOM     10  C   UNL     1      -8.837   3.386  -4.678  0.00  0.00    +0.000 C 
ATOM     11  H   UNL     1      -9.712   2.746  -4.522  0.00  0.00    +0.000 HD
ATOM     12  H   UNL     1      -8.219   2.958  -5.474  0.00  0.00    +0.000 HD
ATOM     13  H   UNL     1      -8.248   3.382  -3.754  0.00  0.00    +0.000 HD
ENDBRANCH   3  10
TORSDOF 1
ENDMDL
MODEL 10
REMARK VINA RESULT:    -3.029     31.175     31.416
REMARK INTER + INTRA:          -3.117
REMARK INTER:                  -3.117
REMARK INTRA:                   0.000
REMARK UNBOUND:                 0.000
REMARK  Name = 7976
REMARK  1 active torsions:
REMARK  status: ('A' for Active; 'I' for Inactive)
REMARK    1  A    between atoms: C_3  and  C_4
REMARK                            x       y       z     vdW  Elec       q    Type
REMARK                         _______ _______ _______ _____ _____    ______ ____
ROOT
ATOM      1  N   UNL     1     -14.311  -6.803  14.849  0.00  0.00    +0.000 NA
ATOM      2  N   UNL     1     -15.920  -4.539  15.239  0.00  0.00    +0.000 NA
ATOM      3  C   UNL     1     -15.590  -6.755  14.427  0.00  0.00    +0.000 A 
ATOM      4  C   UNL     1     -16.381  -5.643  14.619  0.00  0.00    +0.000 A 
ATOM      5  C   UNL     1     -13.851  -5.697  15.469  0.00  0.00    +0.000 A 
ATOM      6  C   UNL     1     -14.641  -4.586  15.661  0.00  0.00    +0.000 A 
ATOM      7  H   UNL     1     -17.410  -5.597  14.283  0.00  0.00    +0.000 HD
ATOM      8  H   UNL     1     -12.822  -5.735  15.808  0.00  0.00    +0.000 HD
ATOM      9  H   UNL     1     -14.269  -3.699  16.159  0.00  0.00    +0.000 HD
ENDROOT
BRANCH   3  10
ATOM     10  C   UNL     1     -16.133  -7.957  13.738  0.00  0.00    +0.000 C 
ATOM     11  H   UNL     1     -16.062  -7.839  12.652  0.00  0.00    +0.000 HD
ATOM     12  H   UNL     1     -15.576  -8.852  14.036  0.00  0.00    +0.000 HD
ATOM     13  H   UNL     1     -17.186  -8.115  13.992  0.00  0.00    +0.000 HD
ENDBRANCH   3  10
TORSDOF 1
ENDMDL
