MODEL 1
REMARK VINA RESULT:    -4.658      0.000      0.000
REMARK INTER + INTRA:          -6.902
REMARK INTER:                  -6.436
REMARK INTRA:                  -0.466
REMARK UNBOUND:                -0.201
REMARK  Name = 12367
REMARK  9 active torsions:
REMARK  status: ('A' for Active; 'I' for Inactive)
REMARK    1  A    between atoms: O_1  and  C_7
REMARK    2  A    between atoms: C_2  and  C_3
REMARK    3  A    between atoms: C_2  and  C_4
REMARK    4  A    between atoms: C_3  and  C_5
REMARK    5  A    between atoms: C_4  and  C_6
REMARK    6  A    between atoms: C_5  and  C_7
REMARK    7  A    between atoms: C_6  and  C_8
REMARK    8  A    between atoms: C_7  and  C_9
REMARK    9  A    between atoms: C_8  and  C_10
REMARK                            x       y       z     vdW  Elec       q    Type
REMARK                         _______ _______ _______ _____ _____    ______ ____
ROOT
ATOM      1  C   UNL     1       5.470   8.637   1.282  0.00  0.00    +0.000 C 
ATOM      2  H   UNL     1       5.133   7.601   1.408  0.00  0.00    +0.000 HD
ATOM      3  H   UNL     1       5.458   9.104   2.274  0.00  0.00    +0.000 HD
ENDROOT
BRANCH   1   4
ATOM      4  C   UNL     1       6.895   8.653   0.725  0.00  0.00    +0.000 C 
ATOM      5  H   UNL     1       7.574   8.155   1.429  0.00  0.00    +0.000 HD
ATOM      6  H   UNL     1       7.231   9.693   0.632  0.00  0.00    +0.000 HD
BRANCH   4   7
ATOM      7  C   UNL     1       6.968   7.953  -0.637  0.00  0.00    +0.000 C 
ATOM      8  H   UNL     1       7.328   6.926  -0.506  0.00  0.00    +0.000 HD
ATOM      9  H   UNL     1       5.953   7.896  -1.051  0.00  0.00    +0.000 HD
BRANCH   7  10
ATOM     10  C   UNL     1       7.874   8.698  -1.621  0.00  0.00    +0.000 C 
ATOM     11  H   UNL     1       7.498   8.569  -2.642  0.00  0.00    +0.000 HD
BRANCH  10  12
ATOM     12  C   UNL     1       7.955  10.180  -1.284  0.00  0.00    +0.000 C 
ATOM     13  H   UNL     1       7.329  10.775  -1.957  0.00  0.00    +0.000 HD
ATOM     14  H   UNL     1       7.637  10.366  -0.252  0.00  0.00    +0.000 HD
ATOM     15  H   UNL     1       8.988  10.536  -1.363  0.00  0.00    +0.000 HD
ENDBRANCH  10  12
BRANCH  10  16
ATOM     16  O   UNL     1       9.185   8.141  -1.562  0.00  0.00    +0.000 OA
ATOM     17  H   UNL     1       9.191   7.345  -2.121  0.00  0.00    +0.000 HD
ENDBRANCH  10  16
ENDBRANCH   7  10
ENDBRANCH   4   7
ENDBRANCH   1   4
BRANCH   1  18
ATOM     18  C   UNL     1       4.504   9.377   0.355  0.00  0.00    +0.000 C 
ATOM     19  H   UNL     1       4.726   9.114  -0.686  0.00  0.00    +0.000 HD
ATOM     20  H   UNL     1       3.480   9.040   0.556  0.00  0.00    +0.000 HD
BRANCH  18  21
ATOM     21  C   UNL     1       4.564  10.901   0.503  0.00  0.00    +0.000 C 
ATOM     22  H   UNL     1       5.536  11.252   0.136  0.00  0.00    +0.000 HD
ATOM     23  H   UNL     1       4.530  11.148   1.572  0.00  0.00    +0.000 HD
BRANCH  21  24
ATOM     24  C   UNL     1       3.459  11.682  -0.212  0.00  0.00    +0.000 C 
ATOM     25  H   UNL     1       2.535  11.620   0.376  0.00  0.00    +0.000 HD
ATOM     26  H   UNL     1       3.737  12.742  -0.255  0.00  0.00    +0.000 HD
BRANCH  24  27
ATOM     27  C   UNL     1       3.182  11.191  -1.624  0.00  0.00    +0.000 C 
ATOM     28  H   UNL     1       3.322  12.003  -2.344  0.00  0.00    +0.000 HD
ATOM     29  H   UNL     1       2.153  10.828  -1.715  0.00  0.00    +0.000 HD
ATOM     30  H   UNL     1       3.859  10.374  -1.893  0.00  0.00    +0.000 HD
ENDBRANCH  24  27
ENDBRANCH  21  24
ENDBRANCH  18  21
ENDBRANCH   1  18
TORSDOF 9
ENDMDL
MODEL 2
REMARK VINA RESULT:    -4.656      2.906      4.734
REMARK INTER + INTRA:          -6.898
REMARK INTER:                  -6.275
REMARK INTRA:                  -0.623
REMARK UNBOUND:                -0.201
REMARK  Name = 12367
REMARK  9 active torsions:
REMARK  status: ('A' for Active; 'I' for Inactive)
REMARK    1  A    between atoms: O_1  and  C_7
REMARK    2  A    between atoms: C_2  and  C_3
REMARK    3  A    between atoms: C_2  and  C_4
REMARK    4  A    between atoms: C_3  and  C_5
REMARK    5  A    between atoms: C_4  and  C_6
REMARK    6  A    between atoms: C_5  and  C_7
REMARK    7  A    between atoms: C_6  and  C_8
REMARK    8  A    between atoms: C_7  and  C_9
REMARK    9  A    between atoms: C_8  and  C_10
REMARK                            x       y       z     vdW  Elec       q    Type
REMARK                         _______ _______ _______ _____ _____    ______ ____
ROOT
ATOM      1  C   UNL     1       4.369   8.900   3.330  0.00  0.00    +0.000 C 
ATOM      2  H   UNL     1       5.201   9.566   3.070  0.00  0.00    +0.000 HD
ATOM      3  H   UNL     1       4.070   9.140   4.357  0.00  0.00    +0.000 HD
ENDROOT
BRANCH   1   4
ATOM      4  C   UNL     1       3.193   9.148   2.382  0.00  0.00    +0.000 C 
ATOM      5  H   UNL     1       2.642  10.042   2.701  0.00  0.00    +0.000 HD
ATOM      6  H   UNL     1       2.499   8.301   2.444  0.00  0.00    +0.000 HD
BRANCH   4   7
ATOM      7  C   UNL     1       3.672   9.330   0.937  0.00  0.00    +0.000 C 
ATOM      8  H   UNL     1       4.483   8.624   0.724  0.00  0.00    +0.000 HD
ATOM      9  H   UNL     1       2.839   9.088   0.264  0.00  0.00    +0.000 HD
BRANCH   7  10
ATOM     10  C   UNL     1       4.146  10.760   0.662  0.00  0.00    +0.000 C 
ATOM     11  H   UNL     1       5.080  10.951   1.202  0.00  0.00    +0.000 HD
BRANCH  10  12
ATOM     12  C   UNL     1       4.353  10.995  -0.828  0.00  0.00    +0.000 C 
ATOM     13  H   UNL     1       4.714  10.091  -1.327  0.00  0.00    +0.000 HD
ATOM     14  H   UNL     1       3.420  11.314  -1.308  0.00  0.00    +0.000 HD
ATOM     15  H   UNL     1       5.079  11.799  -0.991  0.00  0.00    +0.000 HD
ENDBRANCH  10  12
BRANCH  10  16
ATOM     16  O   UNL     1       3.166  11.677   1.141  0.00  0.00    +0.000 OA
ATOM     17  H   UNL     1       2.565  11.186   1.726  0.00  0.00    +0.000 HD
ENDBRANCH  10  16
ENDBRANCH   7  10
ENDBRANCH   4   7
ENDBRANCH   1   4
BRANCH   1  18
ATOM     18  C   UNL     1       4.840   7.446   3.259  0.00  0.00    +0.000 C 
ATOM     19  H   UNL     1       4.712   6.974   4.241  0.00  0.00    +0.000 HD
ATOM     20  H   UNL     1       4.206   6.893   2.556  0.00  0.00    +0.000 HD
BRANCH  18  21
ATOM     21  C   UNL     1       6.303   7.299   2.828  0.00  0.00    +0.000 C 
ATOM     22  H   UNL     1       6.346   6.650   1.945  0.00  0.00    +0.000 HD
ATOM     23  H   UNL     1       6.849   6.775   3.623  0.00  0.00    +0.000 HD
BRANCH  21  24
ATOM     24  C   UNL     1       7.037   8.605   2.514  0.00  0.00    +0.000 C 
ATOM     25  H   UNL     1       6.437   9.451   2.870  0.00  0.00    +0.000 HD
ATOM     26  H   UNL     1       7.982   8.630   3.070  0.00  0.00    +0.000 HD
BRANCH  24  27
ATOM     27  C   UNL     1       7.334   8.795   1.034  0.00  0.00    +0.000 C 
ATOM     28  H   UNL     1       6.408   8.984   0.482  0.00  0.00    +0.000 HD
ATOM     29  H   UNL     1       7.807   7.903   0.613  0.00  0.00    +0.000 HD
ATOM     30  H   UNL     1       8.005   9.645   0.878  0.00  0.00    +0.000 HD
ENDBRANCH  24  27
ENDBRANCH  21  24
ENDBRANCH  18  21
ENDBRANCH   1  18
TORSDOF 9
ENDMDL
MODEL 3
REMARK VINA RESULT:    -4.593      1.249      2.580
REMARK INTER + INTRA:          -6.809
REMARK INTER:                  -6.244
REMARK INTRA:                  -0.565
REMARK UNBOUND:                -0.201
REMARK  Name = 12367
REMARK  9 active torsions:
REMARK  status: ('A' for Active; 'I' for Inactive)
REMARK    1  A    between atoms: O_1  and  C_7
REMARK    2  A    between atoms: C_2  and  C_3
REMARK    3  A    between atoms: C_2  and  C_4
REMARK    4  A    between atoms: C_3  and  C_5
REMARK    5  A    between atoms: C_4  and  C_6
REMARK    6  A    between atoms: C_5  and  C_7
REMARK    7  A    between atoms: C_6  and  C_8
REMARK    8  A    between atoms: C_7  and  C_9
REMARK    9  A    between atoms: C_8  and  C_10
REMARK                            x       y       z     vdW  Elec       q    Type
REMARK                         _______ _______ _______ _____ _____    ______ ____
ROOT
ATOM      1  C   UNL     1       6.035  11.791  -0.081  0.00  0.00    +0.000 C 
ATOM      2  H   UNL     1       6.686  11.552   0.769  0.00  0.00    +0.000 HD
ATOM      3  H   UNL     1       6.209  12.843  -0.336  0.00  0.00    +0.000 HD
ENDROOT
BRANCH   1   4
ATOM      4  C   UNL     1       6.399  10.906  -1.276  0.00  0.00    +0.000 C 
ATOM      5  H   UNL     1       6.158  11.428  -2.210  0.00  0.00    +0.000 HD
ATOM      6  H   UNL     1       5.787   9.997  -1.246  0.00  0.00    +0.000 HD
BRANCH   4   7
ATOM      7  C   UNL     1       7.887  10.540  -1.265  0.00  0.00    +0.000 C 
ATOM      8  H   UNL     1       8.393  11.021  -2.111  0.00  0.00    +0.000 HD
ATOM      9  H   UNL     1       8.334  10.937  -0.345  0.00  0.00    +0.000 HD
BRANCH   7  10
ATOM     10  C   UNL     1       8.110   9.026  -1.322  0.00  0.00    +0.000 C 
ATOM     11  H   UNL     1       9.122   8.787  -0.974  0.00  0.00    +0.000 HD
BRANCH  10  12
ATOM     12  C   UNL     1       7.084   8.285  -0.475  0.00  0.00    +0.000 C 
ATOM     13  H   UNL     1       6.896   7.281  -0.868  0.00  0.00    +0.000 HD
ATOM     14  H   UNL     1       7.423   8.199   0.564  0.00  0.00    +0.000 HD
ATOM     15  H   UNL     1       6.137   8.834  -0.452  0.00  0.00    +0.000 HD
ENDBRANCH  10  12
BRANCH  10  16
ATOM     16  O   UNL     1       7.994   8.588  -2.673  0.00  0.00    +0.000 OA
ATOM     17  H   UNL     1       8.852   8.739  -3.105  0.00  0.00    +0.000 HD
ENDBRANCH  10  16
ENDBRANCH   7  10
ENDBRANCH   4   7
ENDBRANCH   1   4
BRANCH   1  18
ATOM     18  C   UNL     1       4.574  11.596   0.327  0.00  0.00    +0.000 C 
ATOM     19  H   UNL     1       4.519  11.411   1.406  0.00  0.00    +0.000 HD
ATOM     20  H   UNL     1       4.018  12.522   0.135  0.00  0.00    +0.000 HD
BRANCH  18  21
ATOM     21  C   UNL     1       3.884  10.442  -0.407  0.00  0.00    +0.000 C 
ATOM     22  H   UNL     1       4.487  10.172  -1.284  0.00  0.00    +0.000 HD
ATOM     23  H   UNL     1       2.921  10.801  -0.794  0.00  0.00    +0.000 HD
BRANCH  21  24
ATOM     24  C   UNL     1       3.634   9.180   0.422  0.00  0.00    +0.000 C 
ATOM     25  H   UNL     1       2.659   8.758   0.152  0.00  0.00    +0.000 HD
ATOM     26  H   UNL     1       4.388   8.426   0.167  0.00  0.00    +0.000 HD
BRANCH  24  27
ATOM     27  C   UNL     1       3.671   9.421   1.924  0.00  0.00    +0.000 C 
ATOM     28  H   UNL     1       4.670   9.740   2.234  0.00  0.00    +0.000 HD
ATOM     29  H   UNL     1       3.419   8.508   2.471  0.00  0.00    +0.000 HD
ATOM     30  H   UNL     1       2.958  10.201   2.210  0.00  0.00    +0.000 HD
ENDBRANCH  24  27
ENDBRANCH  21  24
ENDBRANCH  18  21
ENDBRANCH   1  18
TORSDOF 9
ENDMDL
MODEL 4
REMARK VINA RESULT:    -4.521     29.144     30.440
REMARK INTER + INTRA:          -6.705
REMARK INTER:                  -6.373
REMARK INTRA:                  -0.331
REMARK UNBOUND:                -0.201
REMARK  Name = 12367
REMARK  9 active torsions:
REMARK  status: ('A' for Active; 'I' for Inactive)
REMARK    1  A    between atoms: O_1  and  C_7
REMARK    2  A    between atoms: C_2  and  C_3
REMARK    3  A    between atoms: C_2  and  C_4
REMARK    4  A    between atoms: C_3  and  C_5
REMARK    5  A    between atoms: C_4  and  C_6
REMARK    6  A    between atoms: C_5  and  C_7
REMARK    7  A    between atoms: C_6  and  C_8
REMARK    8  A    between atoms: C_7  and  C_9
REMARK    9  A    between atoms: C_8  and  C_10
REMARK                            x       y       z     vdW  Elec       q    Type
REMARK                         _______ _______ _______ _____ _____    ______ ____
ROOT
ATOM      1  C   UNL     1     -21.150  -2.214   4.920  0.00  0.00    +0.000 C 
ATOM      2  H   UNL     1     -22.246  -2.212   4.955  0.00  0.00    +0.000 HD
ATOM      3  H   UNL     1     -20.860  -2.176   3.862  0.00  0.00    +0.000 HD
ENDROOT
BRANCH   1   4
ATOM      4  C   UNL     1     -20.607  -0.981   5.645  0.00  0.00    +0.000 C 
ATOM      5  H   UNL     1     -21.250  -0.116   5.438  0.00  0.00    +0.000 HD
ATOM      6  H   UNL     1     -19.611  -0.746   5.252  0.00  0.00    +0.000 HD
BRANCH   4   7
ATOM      7  C   UNL     1     -20.534  -1.213   7.158  0.00  0.00    +0.000 C 
ATOM      8  H   UNL     1     -20.203  -2.239   7.360  0.00  0.00    +0.000 HD
ATOM      9  H   UNL     1     -19.779  -0.535   7.576  0.00  0.00    +0.000 HD
BRANCH   7  10
ATOM     10  C   UNL     1     -21.878  -0.959   7.847  0.00  0.00    +0.000 C 
ATOM     11  H   UNL     1     -22.624  -0.656   7.103  0.00  0.00    +0.000 HD
BRANCH  10  12
ATOM     12  C   UNL     1     -22.361  -2.197   8.589  0.00  0.00    +0.000 C 
ATOM     13  H   UNL     1     -21.650  -3.023   8.489  0.00  0.00    +0.000 HD
ATOM     14  H   UNL     1     -22.507  -1.984   9.654  0.00  0.00    +0.000 HD
ATOM     15  H   UNL     1     -23.331  -2.523   8.199  0.00  0.00    +0.000 HD
ENDBRANCH  10  12
BRANCH  10  16
ATOM     16  O   UNL     1     -21.730   0.108   8.780  0.00  0.00    +0.000 OA
ATOM     17  H   UNL     1     -20.875   0.536   8.604  0.00  0.00    +0.000 HD
ENDBRANCH  10  16
ENDBRANCH   7  10
ENDBRANCH   4   7
ENDBRANCH   1   4
BRANCH   1  18
ATOM     18  C   UNL     1     -20.623  -3.505   5.550  0.00  0.00    +0.000 C 
ATOM     19  H   UNL     1     -19.639  -3.318   5.995  0.00  0.00    +0.000 HD
ATOM     20  H   UNL     1     -21.289  -3.807   6.367  0.00  0.00    +0.000 HD
BRANCH  18  21
ATOM     21  C   UNL     1     -20.502  -4.664   4.555  0.00  0.00    +0.000 C 
ATOM     22  H   UNL     1     -20.831  -4.315   3.567  0.00  0.00    +0.000 HD
ATOM     23  H   UNL     1     -21.205  -5.453   4.852  0.00  0.00    +0.000 HD
BRANCH  21  24
ATOM     24  C   UNL     1     -19.108  -5.280   4.418  0.00  0.00    +0.000 C 
ATOM     25  H   UNL     1     -18.442  -4.836   5.168  0.00  0.00    +0.000 HD
ATOM     26  H   UNL     1     -19.165  -6.353   4.640  0.00  0.00    +0.000 HD
BRANCH  24  27
ATOM     27  C   UNL     1     -18.494  -5.097   3.039  0.00  0.00    +0.000 C 
ATOM     28  H   UNL     1     -17.497  -4.653   3.123  0.00  0.00    +0.000 HD
ATOM     29  H   UNL     1     -19.111  -4.437   2.422  0.00  0.00    +0.000 HD
ATOM     30  H   UNL     1     -18.399  -6.058   2.524  0.00  0.00    +0.000 HD
ENDBRANCH  24  27
ENDBRANCH  21  24
ENDBRANCH  18  21
ENDBRANCH   1  18
TORSDOF 9
ENDMDL
MODEL 5
REMARK VINA RESULT:    -4.405      2.116      4.013
REMARK INTER + INTRA:          -6.537
REMARK INTER:                  -6.209
REMARK INTRA:                  -0.328
REMARK UNBOUND:                -0.201
REMARK  Name = 12367
REMARK  9 active torsions:
REMARK  status: ('A' for Active; 'I' for Inactive)
REMARK    1  A    between atoms: O_1  and  C_7
REMARK    2  A    between atoms: C_2  and  C_3
REMARK    3  A    between atoms: C_2  and  C_4
REMARK    4  A    between atoms: C_3  and  C_5
REMARK    5  A    between atoms: C_4  and  C_6
REMARK    6  A    between atoms: C_5  and  C_7
REMARK    7  A    between atoms: C_6  and  C_8
REMARK    8  A    between atoms: C_7  and  C_9
REMARK    9  A    between atoms: C_8  and  C_10
REMARK                            x       y       z     vdW  Elec       q    Type
REMARK                         _______ _______ _______ _____ _____    ______ ____
ROOT
ATOM      1  C   UNL     1       5.445   8.809   1.618  0.00  0.00    +0.000 C 
ATOM      2  H   UNL     1       5.368   9.826   2.021  0.00  0.00    +0.000 HD
ATOM      3  H   UNL     1       4.467   8.333   1.752  0.00  0.00    +0.000 HD
ENDROOT
BRANCH   1   4
ATOM      4  C   UNL     1       5.788   8.867   0.128  0.00  0.00    +0.000 C 
ATOM      5  H   UNL     1       5.825   9.913  -0.203  0.00  0.00    +0.000 HD
ATOM      6  H   UNL     1       4.990   8.375  -0.442  0.00  0.00    +0.000 HD
BRANCH   4   7
ATOM      7  C   UNL     1       7.133   8.192  -0.161  0.00  0.00    +0.000 C 
ATOM      8  H   UNL     1       7.797   8.306   0.705  0.00  0.00    +0.000 HD
ATOM      9  H   UNL     1       6.958   7.118  -0.303  0.00  0.00    +0.000 HD
BRANCH   7  10
ATOM     10  C   UNL     1       7.810   8.764  -1.409  0.00  0.00    +0.000 C 
ATOM     11  H   UNL     1       7.177   8.590  -2.287  0.00  0.00    +0.000 HD
BRANCH  10  12
ATOM     12  C   UNL     1       8.084  10.253  -1.256  0.00  0.00    +0.000 C 
ATOM     13  H   UNL     1       8.827  10.598  -1.982  0.00  0.00    +0.000 HD
ATOM     14  H   UNL     1       7.165  10.836  -1.390  0.00  0.00    +0.000 HD
ATOM     15  H   UNL     1       8.452  10.474  -0.249  0.00  0.00    +0.000 HD
ENDBRANCH  10  12
BRANCH  10  16
ATOM     16  O   UNL     1       9.048   8.088  -1.621  0.00  0.00    +0.000 OA
ATOM     17  H   UNL     1       9.698   8.469  -1.007  0.00  0.00    +0.000 HD
ENDBRANCH  10  16
ENDBRANCH   7  10
ENDBRANCH   4   7
ENDBRANCH   1   4
BRANCH   1  18
ATOM     18  C   UNL     1       6.506   8.032   2.401  0.00  0.00    +0.000 C 
ATOM     19  H   UNL     1       7.234   7.604   1.702  0.00  0.00    +0.000 HD
ATOM     20  H   UNL     1       7.057   8.724   3.049  0.00  0.00    +0.000 HD
BRANCH  18  21
ATOM     21  C   UNL     1       5.924   6.904   3.260  0.00  0.00    +0.000 C 
ATOM     22  H   UNL     1       6.409   5.961   2.976  0.00  0.00    +0.000 HD
ATOM     23  H   UNL     1       4.861   6.791   3.012  0.00  0.00    +0.000 HD
BRANCH  21  24
ATOM     24  C   UNL     1       6.054   7.086   4.773  0.00  0.00    +0.000 C 
ATOM     25  H   UNL     1       5.077   7.364   5.189  0.00  0.00    +0.000 HD
ATOM     26  H   UNL     1       6.333   6.129   5.229  0.00  0.00    +0.000 HD
BRANCH  24  27
ATOM     27  C   UNL     1       7.079   8.136   5.175  0.00  0.00    +0.000 C 
ATOM     28  H   UNL     1       6.730   8.693   6.050  0.00  0.00    +0.000 HD
ATOM     29  H   UNL     1       7.246   8.849   4.361  0.00  0.00    +0.000 HD
ATOM     30  H   UNL     1       8.037   7.671   5.424  0.00  0.00    +0.000 HD
ENDBRANCH  24  27
ENDBRANCH  21  24
ENDBRANCH  18  21
ENDBRANCH   1  18
TORSDOF 9
ENDMDL
MODEL 6
REMARK VINA RESULT:    -4.360     12.881     14.720
REMARK INTER + INTRA:          -6.473
REMARK INTER:                  -6.227
REMARK INTRA:                  -0.246
REMARK UNBOUND:                -0.201
REMARK  Name = 12367
REMARK  9 active torsions:
REMARK  status: ('A' for Active; 'I' for Inactive)
REMARK    1  A    between atoms: O_1  and  C_7
REMARK    2  A    between atoms: C_2  and  C_3
REMARK    3  A    between atoms: C_2  and  C_4
REMARK    4  A    between atoms: C_3  and  C_5
REMARK    5  A    between atoms: C_4  and  C_6
REMARK    6  A    between atoms: C_5  and  C_7
REMARK    7  A    between atoms: C_6  and  C_8
REMARK    8  A    between atoms: C_7  and  C_9
REMARK    9  A    between atoms: C_8  and  C_10
REMARK                            x       y       z     vdW  Elec       q    Type
REMARK                         _______ _______ _______ _____ _____    ______ ____
ROOT
ATOM      1  C   UNL     1      -4.489   6.665  -9.959  0.00  0.00    +0.000 C 
ATOM      2  H   UNL     1      -4.417   5.918 -10.759  0.00  0.00    +0.000 HD
ATOM      3  H   UNL     1      -5.034   7.525 -10.367  0.00  0.00    +0.000 HD
ENDROOT
BRANCH   1   4
ATOM      4  C   UNL     1      -5.262   6.082  -8.774  0.00  0.00    +0.000 C 
ATOM      5  H   UNL     1      -5.152   6.738  -7.902  0.00  0.00    +0.000 HD
ATOM      6  H   UNL     1      -4.826   5.112  -8.506  0.00  0.00    +0.000 HD
BRANCH   4   7
ATOM      7  C   UNL     1      -6.749   5.917  -9.107  0.00  0.00    +0.000 C 
ATOM      8  H   UNL     1      -7.122   6.826  -9.593  0.00  0.00    +0.000 HD
ATOM      9  H   UNL     1      -6.853   5.093  -9.824  0.00  0.00    +0.000 HD
BRANCH   7  10
ATOM     10  C   UNL     1      -7.589   5.614  -7.863  0.00  0.00    +0.000 C 
ATOM     11  H   UNL     1      -8.634   5.889  -8.046  0.00  0.00    +0.000 HD
BRANCH  10  12
ATOM     12  C   UNL     1      -7.501   4.142  -7.483  0.00  0.00    +0.000 C 
ATOM     13  H   UNL     1      -6.463   3.831  -7.332  0.00  0.00    +0.000 HD
ATOM     14  H   UNL     1      -8.066   3.940  -6.565  0.00  0.00    +0.000 HD
ATOM     15  H   UNL     1      -7.942   3.517  -8.267  0.00  0.00    +0.000 HD
ENDBRANCH  10  12
BRANCH  10  16
ATOM     16  O   UNL     1      -7.112   6.400  -6.774  0.00  0.00    +0.000 OA
ATOM     17  H   UNL     1      -6.211   6.098  -6.567  0.00  0.00    +0.000 HD
ENDBRANCH  10  16
ENDBRANCH   7  10
ENDBRANCH   4   7
ENDBRANCH   1   4
BRANCH   1  18
ATOM     18  C   UNL     1      -3.082   7.100  -9.542  0.00  0.00    +0.000 C 
ATOM     19  H   UNL     1      -2.552   6.247  -9.103  0.00  0.00    +0.000 HD
ATOM     20  H   UNL     1      -2.517   7.399 -10.433  0.00  0.00    +0.000 HD
BRANCH  18  21
ATOM     21  C   UNL     1      -3.075   8.257  -8.538  0.00  0.00    +0.000 C 
ATOM     22  H   UNL     1      -2.303   8.062  -7.782  0.00  0.00    +0.000 HD
ATOM     23  H   UNL     1      -4.034   8.261  -8.004  0.00  0.00    +0.000 HD
BRANCH  21  24
ATOM     24  C   UNL     1      -2.842   9.649  -9.129  0.00  0.00    +0.000 C 
ATOM     25  H   UNL     1      -3.782  10.023  -9.552  0.00  0.00    +0.000 HD
ATOM     26  H   UNL     1      -2.559  10.339  -8.325  0.00  0.00    +0.000 HD
BRANCH  24  27
ATOM     27  C   UNL     1      -1.767   9.682 -10.204  0.00  0.00    +0.000 C 
ATOM     28  H   UNL     1      -1.945  10.513 -10.894  0.00  0.00    +0.000 HD
ATOM     29  H   UNL     1      -1.765   8.753 -10.782  0.00  0.00    +0.000 HD
ATOM     30  H   UNL     1      -0.775   9.812  -9.760  0.00  0.00    +0.000 HD
ENDBRANCH  24  27
ENDBRANCH  21  24
ENDBRANCH  18  21
ENDBRANCH   1  18
TORSDOF 9
ENDMDL
MODEL 7
REMARK VINA RESULT:    -4.217     14.594     16.447
REMARK INTER + INTRA:          -6.267
REMARK INTER:                  -6.051
REMARK INTRA:                  -0.217
REMARK UNBOUND:                -0.201
REMARK  Name = 12367
REMARK  9 active torsions:
REMARK  status: ('A' for Active; 'I' for Inactive)
REMARK    1  A    between atoms: O_1  and  C_7
REMARK    2  A    between atoms: C_2  and  C_3
REMARK    3  A    between atoms: C_2  and  C_4
REMARK    4  A    between atoms: C_3  and  C_5
REMARK    5  A    between atoms: C_4  and  C_6
REMARK    6  A    between atoms: C_5  and  C_7
REMARK    7  A    between atoms: C_6  and  C_8
REMARK    8  A    between atoms: C_7  and  C_9
REMARK    9  A    between atoms: C_8  and  C_10
REMARK                            x       y       z     vdW  Elec       q    Type
REMARK                         _______ _______ _______ _____ _____    ______ ____
ROOT
ATOM      1  C   UNL     1      -8.579  11.148   6.642  0.00  0.00    +0.000 C 
ATOM      2  H   UNL     1      -9.528  11.681   6.506  0.00  0.00    +0.000 HD
ATOM      3  H   UNL     1      -7.938  11.783   7.266  0.00  0.00    +0.000 HD
ENDROOT
BRANCH   1   4
ATOM      4  C   UNL     1      -8.830   9.816   7.352  0.00  0.00    +0.000 C 
ATOM      5  H   UNL     1      -8.056   9.093   7.067  0.00  0.00    +0.000 HD
ATOM      6  H   UNL     1      -9.792   9.409   7.018  0.00  0.00    +0.000 HD
BRANCH   4   7
ATOM      7  C   UNL     1      -8.832   9.989   8.875  0.00  0.00    +0.000 C 
ATOM      8  H   UNL     1      -8.458  10.986   9.135  0.00  0.00    +0.000 HD
ATOM      9  H   UNL     1      -9.869   9.924   9.229  0.00  0.00    +0.000 HD
BRANCH   7  10
ATOM     10  C   UNL     1      -7.990   8.921   9.579  0.00  0.00    +0.000 C 
ATOM     11  H   UNL     1      -7.068   9.371   9.965  0.00  0.00    +0.000 HD
BRANCH  10  12
ATOM     12  C   UNL     1      -8.763   8.270  10.717  0.00  0.00    +0.000 C 
ATOM     13  H   UNL     1      -9.167   7.298  10.419  0.00  0.00    +0.000 HD
ATOM     14  H   UNL     1      -8.123   8.131  11.596  0.00  0.00    +0.000 HD
ATOM     15  H   UNL     1      -9.593   8.911  11.032  0.00  0.00    +0.000 HD
ENDBRANCH  10  12
BRANCH  10  16
ATOM     16  O   UNL     1      -7.626   7.916   8.636  0.00  0.00    +0.000 OA
ATOM     17  H   UNL     1      -7.514   7.083   9.123  0.00  0.00    +0.000 HD
ENDBRANCH  10  16
ENDBRANCH   7  10
ENDBRANCH   4   7
ENDBRANCH   1   4
BRANCH   1  18
ATOM     18  C   UNL     1      -7.917  10.933   5.279  0.00  0.00    +0.000 C 
ATOM     19  H   UNL     1      -6.882  10.604   5.425  0.00  0.00    +0.000 HD
ATOM     20  H   UNL     1      -8.435  10.125   4.749  0.00  0.00    +0.000 HD
BRANCH  18  21
ATOM     21  C   UNL     1      -7.918  12.186   4.397  0.00  0.00    +0.000 C 
ATOM     22  H   UNL     1      -8.916  12.305   3.956  0.00  0.00    +0.000 HD
ATOM     23  H   UNL     1      -7.229  12.022   3.558  0.00  0.00    +0.000 HD
BRANCH  21  24
ATOM     24  C   UNL     1      -7.532  13.491   5.096  0.00  0.00    +0.000 C 
ATOM     25  H   UNL     1      -7.904  14.339   4.507  0.00  0.00    +0.000 HD
ATOM     26  H   UNL     1      -8.031  13.539   6.071  0.00  0.00    +0.000 HD
BRANCH  24  27
ATOM     27  C   UNL     1      -6.034  13.652   5.302  0.00  0.00    +0.000 C 
ATOM     28  H   UNL     1      -5.786  14.701   5.487  0.00  0.00    +0.000 HD
ATOM     29  H   UNL     1      -5.481  13.321   4.417  0.00  0.00    +0.000 HD
ATOM     30  H   UNL     1      -5.694  13.063   6.159  0.00  0.00    +0.000 HD
ENDBRANCH  24  27
ENDBRANCH  21  24
ENDBRANCH  18  21
ENDBRANCH   1  18
TORSDOF 9
ENDMDL
MODEL 8
REMARK VINA RESULT:    -4.102     28.281     29.563
REMARK INTER + INTRA:          -6.102
REMARK INTER:                  -5.836
REMARK INTRA:                  -0.266
REMARK UNBOUND:                -0.201
REMARK  Name = 12367
REMARK  9 active torsions:
REMARK  status: ('A' for Active; 'I' for Inactive)
REMARK    1  A    between atoms: O_1  and  C_7
REMARK    2  A    between atoms: C_2  and  C_3
REMARK    3  A    between atoms: C_2  and  C_4
REMARK    4  A    between atoms: C_3  and  C_5
REMARK    5  A    between atoms: C_4  and  C_6
REMARK    6  A    between atoms: C_5  and  C_7
REMARK    7  A    between atoms: C_6  and  C_8
REMARK    8  A    between atoms: C_7  and  C_9
REMARK    9  A    between atoms: C_8  and  C_10
REMARK                            x       y       z     vdW  Elec       q    Type
REMARK                         _______ _______ _______ _____ _____    ______ ____
ROOT
ATOM      1  C   UNL     1     -20.808  -4.442   4.615  0.00  0.00    +0.000 C 
ATOM      2  H   UNL     1     -21.549  -5.169   4.969  0.00  0.00    +0.000 HD
ATOM      3  H   UNL     1     -21.142  -4.094   3.629  0.00  0.00    +0.000 HD
ENDROOT
BRANCH   1   4
ATOM      4  C   UNL     1     -20.741  -3.258   5.582  0.00  0.00    +0.000 C 
ATOM      5  H   UNL     1     -19.800  -3.294   6.146  0.00  0.00    +0.000 HD
ATOM      6  H   UNL     1     -21.558  -3.344   6.308  0.00  0.00    +0.000 HD
BRANCH   4   7
ATOM      7  C   UNL     1     -20.838  -1.923   4.835  0.00  0.00    +0.000 C 
ATOM      8  H   UNL     1     -19.998  -1.828   4.137  0.00  0.00    +0.000 HD
ATOM      9  H   UNL     1     -21.761  -1.926   4.241  0.00  0.00    +0.000 HD
BRANCH   7  10
ATOM     10  C   UNL     1     -20.856  -0.727   5.790  0.00  0.00    +0.000 C 
ATOM     11  H   UNL     1     -21.890  -0.414   5.974  0.00  0.00    +0.000 HD
BRANCH  10  12
ATOM     12  C   UNL     1     -20.177  -1.065   7.110  0.00  0.00    +0.000 C 
ATOM     13  H   UNL     1     -19.210  -0.561   7.200  0.00  0.00    +0.000 HD
ATOM     14  H   UNL     1     -20.806  -0.774   7.960  0.00  0.00    +0.000 HD
ATOM     15  H   UNL     1     -20.017  -2.145   7.194  0.00  0.00    +0.000 HD
ENDBRANCH  10  12
BRANCH  10  16
ATOM     16  O   UNL     1     -20.167   0.364   5.185  0.00  0.00    +0.000 OA
ATOM     17  H   UNL     1     -20.812   1.079   5.048  0.00  0.00    +0.000 HD
ENDBRANCH  10  16
ENDBRANCH   7  10
ENDBRANCH   4   7
ENDBRANCH   1   4
BRANCH   1  18
ATOM     18  C   UNL     1     -19.447  -5.127   4.482  0.00  0.00    +0.000 C 
ATOM     19  H   UNL     1     -18.651  -4.395   4.661  0.00  0.00    +0.000 HD
ATOM     20  H   UNL     1     -19.351  -5.895   5.259  0.00  0.00    +0.000 HD
BRANCH  18  21
ATOM     21  C   UNL     1     -19.222  -5.776   3.113  0.00  0.00    +0.000 C 
ATOM     22  H   UNL     1     -20.144  -6.289   2.810  0.00  0.00    +0.000 HD
ATOM     23  H   UNL     1     -18.456  -6.557   3.218  0.00  0.00    +0.000 HD
BRANCH  21  24
ATOM     24  C   UNL     1     -18.797  -4.828   1.989  0.00  0.00    +0.000 C 
ATOM     25  H   UNL     1     -19.333  -5.095   1.070  0.00  0.00    +0.000 HD
ATOM     26  H   UNL     1     -19.099  -3.806   2.247  0.00  0.00    +0.000 HD
BRANCH  24  27
ATOM     27  C   UNL     1     -17.302  -4.842   1.713  0.00  0.00    +0.000 C 
ATOM     28  H   UNL     1     -17.106  -5.203   0.698  0.00  0.00    +0.000 HD
ATOM     29  H   UNL     1     -16.782  -5.501   2.416  0.00  0.00    +0.000 HD
ATOM     30  H   UNL     1     -16.879  -3.837   1.807  0.00  0.00    +0.000 HD
ENDBRANCH  24  27
ENDBRANCH  21  24
ENDBRANCH  18  21
ENDBRANCH   1  18
TORSDOF 9
ENDMDL
MODEL 9
REMARK VINA RESULT:    -4.071     16.276     17.210
REMARK INTER + INTRA:          -6.057
REMARK INTER:                  -5.856
REMARK INTRA:                  -0.201
REMARK UNBOUND:                -0.201
REMARK  Name = 12367
REMARK  9 active torsions:
REMARK  status: ('A' for Active; 'I' for Inactive)
REMARK    1  A    between atoms: O_1  and  C_7
REMARK    2  A    between atoms: C_2  and  C_3
REMARK    3  A    between atoms: C_2  and  C_4
REMARK    4  A    between atoms: C_3  and  C_5
REMARK    5  A    between atoms: C_4  and  C_6
REMARK    6  A    between atoms: C_5  and  C_7
REMARK    7  A    between atoms: C_6  and  C_8
REMARK    8  A    between atoms: C_7  and  C_9
REMARK    9  A    between atoms: C_8  and  C_10
REMARK                            x       y       z     vdW  Elec       q    Type
REMARK                         _______ _______ _______ _____ _____    ______ ____
ROOT
ATOM      1  C   UNL     1      -0.039   0.381 -13.200  0.00  0.00    +0.000 C 
ATOM      2  H   UNL     1      -0.193  -0.099 -14.174  0.00  0.00    +0.000 HD
ATOM      3  H   UNL     1      -0.656   1.288 -13.185  0.00  0.00    +0.000 HD
ENDROOT
BRANCH   1   4
ATOM      4  C   UNL     1      -0.487  -0.563 -12.081  0.00  0.00    +0.000 C 
ATOM      5  H   UNL     1       0.137  -0.406 -11.193  0.00  0.00    +0.000 HD
ATOM      6  H   UNL     1      -0.333  -1.599 -12.406  0.00  0.00    +0.000 HD
BRANCH   4   7
ATOM      7  C   UNL     1      -1.959  -0.338 -11.719  0.00  0.00    +0.000 C 
ATOM      8  H   UNL     1      -2.269   0.666 -12.037  0.00  0.00    +0.000 HD
ATOM      9  H   UNL     1      -2.567  -1.062 -12.276  0.00  0.00    +0.000 HD
BRANCH   7  10
ATOM     10  C   UNL     1      -2.218  -0.508 -10.220  0.00  0.00    +0.000 C 
ATOM     11  H   UNL     1      -1.694   0.276  -9.661  0.00  0.00    +0.000 HD
BRANCH  10  12
ATOM     12  C   UNL     1      -3.707  -0.457  -9.907  0.00  0.00    +0.000 C 
ATOM     13  H   UNL     1      -4.306  -0.747 -10.776  0.00  0.00    +0.000 HD
ATOM     14  H   UNL     1      -3.955  -1.122  -9.071  0.00  0.00    +0.000 HD
ATOM     15  H   UNL     1      -4.000   0.553  -9.602  0.00  0.00    +0.000 HD
ENDBRANCH  10  12
BRANCH  10  16
ATOM     16  O   UNL     1      -1.701  -1.768  -9.797  0.00  0.00    +0.000 OA
ATOM     17  H   UNL     1      -2.049  -1.943  -8.906  0.00  0.00    +0.000 HD
ENDBRANCH  10  16
ENDBRANCH   7  10
ENDBRANCH   4   7
ENDBRANCH   1   4
BRANCH   1  18
ATOM     18  C   UNL     1       1.435   0.760 -13.047  0.00  0.00    +0.000 C 
ATOM     19  H   UNL     1       1.525   1.601 -12.350  0.00  0.00    +0.000 HD
ATOM     20  H   UNL     1       1.981  -0.080 -12.603  0.00  0.00    +0.000 HD
BRANCH  18  21
ATOM     21  C   UNL     1       2.106   1.143 -14.371  0.00  0.00    +0.000 C 
ATOM     22  H   UNL     1       2.250   2.231 -14.391  0.00  0.00    +0.000 HD
ATOM     23  H   UNL     1       1.415   0.909 -15.192  0.00  0.00    +0.000 HD
BRANCH  21  24
ATOM     24  C   UNL     1       3.448   0.466 -14.656  0.00  0.00    +0.000 C 
ATOM     25  H   UNL     1       3.479   0.157 -15.709  0.00  0.00    +0.000 HD
ATOM     26  H   UNL     1       4.256   1.194 -14.516  0.00  0.00    +0.000 HD
BRANCH  24  27
ATOM     27  C   UNL     1       3.720  -0.744 -13.776  0.00  0.00    +0.000 C 
ATOM     28  H   UNL     1       3.507  -1.667 -14.323  0.00  0.00    +0.000 HD
ATOM     29  H   UNL     1       3.090  -0.724 -12.881  0.00  0.00    +0.000 HD
ATOM     30  H   UNL     1       4.767  -0.767 -13.458  0.00  0.00    +0.000 HD
ENDBRANCH  24  27
ENDBRANCH  21  24
ENDBRANCH  18  21
ENDBRANCH   1  18
TORSDOF 9
ENDMDL
MODEL 10
REMARK VINA RESULT:    -4.069     30.084     31.379
REMARK INTER + INTRA:          -6.054
REMARK INTER:                  -5.330
REMARK INTRA:                  -0.724
REMARK UNBOUND:                -0.201
REMARK  Name = 12367
REMARK  9 active torsions:
REMARK  status: ('A' for Active; 'I' for Inactive)
REMARK    1  A    between atoms: O_1  and  C_7
REMARK    2  A    between atoms: C_2  and  C_3
REMARK    3  A    between atoms: C_2  and  C_4
REMARK    4  A    between atoms: C_3  and  C_5
REMARK    5  A    between atoms: C_4  and  C_6
REMARK    6  A    between atoms: C_5  and  C_7
REMARK    7  A    between atoms: C_6  and  C_8
REMARK    8  A    between atoms: C_7  and  C_9
REMARK    9  A    between atoms: C_8  and  C_10
REMARK                            x       y       z     vdW  Elec       q    Type
REMARK                         _______ _______ _______ _____ _____    ______ ____
ROOT
ATOM      1  C   UNL     1     -20.459  -1.034   7.285  0.00  0.00    +0.000 C 
ATOM      2  H   UNL     1     -19.720  -0.358   7.732  0.00  0.00    +0.000 HD
ATOM      3  H   UNL     1     -20.081  -2.056   7.412  0.00  0.00    +0.000 HD
ENDROOT
BRANCH   1   4
ATOM      4  C   UNL     1     -21.799  -0.889   8.010  0.00  0.00    +0.000 C 
ATOM      5  H   UNL     1     -22.545  -0.464   7.327  0.00  0.00    +0.000 HD
ATOM      6  H   UNL     1     -21.681  -0.182   8.840  0.00  0.00    +0.000 HD
BRANCH   4   7
ATOM      7  C   UNL     1     -22.296  -2.239   8.536  0.00  0.00    +0.000 C 
ATOM      8  H   UNL     1     -21.547  -3.014   8.333  0.00  0.00    +0.000 HD
ATOM      9  H   UNL     1     -22.408  -2.167   9.626  0.00  0.00    +0.000 HD
BRANCH   7  10
ATOM     10  C   UNL     1     -23.637  -2.642   7.917  0.00  0.00    +0.000 C 
ATOM     11  H   UNL     1     -24.348  -2.905   8.709  0.00  0.00    +0.000 HD
BRANCH  10  12
ATOM     12  C   UNL     1     -24.210  -1.520   7.062  0.00  0.00    +0.000 C 
ATOM     13  H   UNL     1     -25.227  -1.262   7.374  0.00  0.00    +0.000 HD
ATOM     14  H   UNL     1     -23.584  -0.622   7.124  0.00  0.00    +0.000 HD
ATOM     15  H   UNL     1     -24.233  -1.814   6.007  0.00  0.00    +0.000 HD
ENDBRANCH  10  12
BRANCH  10  16
ATOM     16  O   UNL     1     -23.447  -3.793   7.097  0.00  0.00    +0.000 OA
ATOM     17  H   UNL     1     -23.486  -3.503   6.171  0.00  0.00    +0.000 HD
ENDBRANCH  10  16
ENDBRANCH   7  10
ENDBRANCH   4   7
ENDBRANCH   1   4
BRANCH   1  18
ATOM     18  C   UNL     1     -20.599  -0.720   5.794  0.00  0.00    +0.000 C 
ATOM     19  H   UNL     1     -21.308   0.105   5.661  0.00  0.00    +0.000 HD
ATOM     20  H   UNL     1     -19.634  -0.375   5.405  0.00  0.00    +0.000 HD
BRANCH  18  21
ATOM     21  C   UNL     1     -21.072  -1.917   4.962  0.00  0.00    +0.000 C 
ATOM     22  H   UNL     1     -20.804  -1.742   3.912  0.00  0.00    +0.000 HD
ATOM     23  H   UNL     1     -22.168  -1.955   4.998  0.00  0.00    +0.000 HD
BRANCH  21  24
ATOM     24  C   UNL     1     -20.524  -3.281   5.387  0.00  0.00    +0.000 C 
ATOM     25  H   UNL     1     -19.428  -3.236   5.418  0.00  0.00    +0.000 HD
ATOM     26  H   UNL     1     -20.860  -3.502   6.407  0.00  0.00    +0.000 HD
BRANCH  24  27
ATOM     27  C   UNL     1     -20.947  -4.420   4.472  0.00  0.00    +0.000 C 
ATOM     28  H   UNL     1     -21.744  -4.090   3.798  0.00  0.00    +0.000 HD
ATOM     29  H   UNL     1     -21.321  -5.268   5.054  0.00  0.00    +0.000 HD
ATOM     30  H   UNL     1     -20.105  -4.765   3.865  0.00  0.00    +0.000 HD
ENDBRANCH  24  27
ENDBRANCH  21  24
ENDBRANCH  18  21
ENDBRANCH   1  18
TORSDOF 9
ENDMDL
