MODEL 1
REMARK VINA RESULT:    -4.787      0.000      0.000
REMARK INTER + INTRA:          -6.987
REMARK INTER:                  -6.308
REMARK INTRA:                  -0.679
REMARK UNBOUND:                -0.241
REMARK  Name = 13187
REMARK  8 active torsions:
REMARK  status: ('A' for Active; 'I' for Inactive)
REMARK    1  A    between atoms: C_2  and  C_3
REMARK    2  A    between atoms: C_2  and  C_4
REMARK    3  A    between atoms: C_3  and  C_5
REMARK    4  A    between atoms: C_4  and  C_6
REMARK    5  A    between atoms: C_5  and  C_7
REMARK    6  A    between atoms: C_6  and  C_8
REMARK    7  A    between atoms: C_7  and  C_9
REMARK    8  A    between atoms: C_9  and  C_10
REMARK                            x       y       z     vdW  Elec       q    Type
REMARK                         _______ _______ _______ _____ _____    ______ ____
ROOT
ATOM      1  C   UNL     1       6.645   8.393   0.640  0.00  0.00    +0.000 C 
ATOM      2  H   UNL     1       7.356   8.053  -0.123  0.00  0.00    +0.000 HD
ATOM      3  H   UNL     1       6.083   7.513   0.974  0.00  0.00    +0.000 HD
ENDROOT
BRANCH   1   4
ATOM      4  C   UNL     1       7.405   8.996   1.823  0.00  0.00    +0.000 C 
ATOM      5  H   UNL     1       7.238  10.079   1.855  0.00  0.00    +0.000 HD
ATOM      6  H   UNL     1       8.482   8.838   1.684  0.00  0.00    +0.000 HD
BRANCH   4   7
ATOM      7  C   UNL     1       6.962   8.368   3.145  0.00  0.00    +0.000 C 
ATOM      8  H   UNL     1       6.311   9.065   3.685  0.00  0.00    +0.000 HD
ATOM      9  H   UNL     1       7.840   8.189   3.778  0.00  0.00    +0.000 HD
BRANCH   7  10
ATOM     10  C   UNL     1       6.219   7.052   2.914  0.00  0.00    +0.000 C 
ATOM     11  H   UNL     1       6.938   6.231   2.817  0.00  0.00    +0.000 HD
ATOM     12  H   UNL     1       5.656   7.102   1.974  0.00  0.00    +0.000 HD
BRANCH  10  13
ATOM     13  C   UNL     1       5.263   6.744   4.055  0.00  0.00    +0.000 C 
ATOM     14  H   UNL     1       4.834   5.743   3.947  0.00  0.00    +0.000 HD
ATOM     15  H   UNL     1       4.443   7.468   4.086  0.00  0.00    +0.000 HD
ATOM     16  H   UNL     1       5.790   6.787   5.014  0.00  0.00    +0.000 HD
ENDBRANCH  10  13
ENDBRANCH   7  10
ENDBRANCH   4   7
ENDBRANCH   1   4
BRANCH   1  17
ATOM     17  C   UNL     1       5.683   9.412   0.021  0.00  0.00    +0.000 C 
ATOM     18  H   UNL     1       5.935  10.417   0.382  0.00  0.00    +0.000 HD
ATOM     19  H   UNL     1       5.821   9.427  -1.067  0.00  0.00    +0.000 HD
BRANCH  17  20
ATOM     20  C   UNL     1       4.224   9.110   0.347  0.00  0.00    +0.000 C 
ATOM     21  H   UNL     1       3.604   9.255  -0.545  0.00  0.00    +0.000 HD
ATOM     22  H   UNL     1       4.125   8.069   0.673  0.00  0.00    +0.000 HD
BRANCH  20  24
ATOM     23  O   UNL     1       3.541  11.209   1.283  0.00  0.00    +0.000 OA
ATOM     24  C   UNL     1       3.666   9.994   1.444  0.00  0.00    +0.000 C 
BRANCH  24  25
ATOM     25  C   UNL     1       3.288   9.337   2.745  0.00  0.00    +0.000 C 
ATOM     26  H   UNL     1       4.152   8.808   3.157  0.00  0.00    +0.000 HD
ATOM     27  H   UNL     1       2.482   8.619   2.571  0.00  0.00    +0.000 HD
ATOM     28  H   UNL     1       2.966  10.099   3.460  0.00  0.00    +0.000 HD
ENDBRANCH  24  25
ENDBRANCH  20  24
ENDBRANCH  17  20
ENDBRANCH   1  17
TORSDOF 8
ENDMDL
MODEL 2
REMARK VINA RESULT:    -4.641      1.710      2.342
REMARK INTER + INTRA:          -6.781
REMARK INTER:                  -6.330
REMARK INTRA:                  -0.451
REMARK UNBOUND:                -0.241
REMARK  Name = 13187
REMARK  8 active torsions:
REMARK  status: ('A' for Active; 'I' for Inactive)
REMARK    1  A    between atoms: C_2  and  C_3
REMARK    2  A    between atoms: C_2  and  C_4
REMARK    3  A    between atoms: C_3  and  C_5
REMARK    4  A    between atoms: C_4  and  C_6
REMARK    5  A    between atoms: C_5  and  C_7
REMARK    6  A    between atoms: C_6  and  C_8
REMARK    7  A    between atoms: C_7  and  C_9
REMARK    8  A    between atoms: C_9  and  C_10
REMARK                            x       y       z     vdW  Elec       q    Type
REMARK                         _______ _______ _______ _____ _____    ______ ____
ROOT
ATOM      1  C   UNL     1       7.372  10.195   0.137  0.00  0.00    +0.000 C 
ATOM      2  H   UNL     1       7.434  10.551   1.172  0.00  0.00    +0.000 HD
ATOM      3  H   UNL     1       8.387  10.221  -0.277  0.00  0.00    +0.000 HD
ENDROOT
BRANCH   1   4
ATOM      4  C   UNL     1       6.846   8.758   0.116  0.00  0.00    +0.000 C 
ATOM      5  H   UNL     1       7.674   8.065  -0.075  0.00  0.00    +0.000 HD
ATOM      6  H   UNL     1       6.131   8.643  -0.708  0.00  0.00    +0.000 HD
BRANCH   4   7
ATOM      7  C   UNL     1       6.166   8.396   1.437  0.00  0.00    +0.000 C 
ATOM      8  H   UNL     1       5.833   7.352   1.407  0.00  0.00    +0.000 HD
ATOM      9  H   UNL     1       5.271   9.017   1.571  0.00  0.00    +0.000 HD
BRANCH   7  10
ATOM     10  C   UNL     1       7.111   8.596   2.621  0.00  0.00    +0.000 C 
ATOM     11  H   UNL     1       7.204   9.664   2.848  0.00  0.00    +0.000 HD
ATOM     12  H   UNL     1       8.113   8.231   2.364  0.00  0.00    +0.000 HD
BRANCH  10  13
ATOM     13  C   UNL     1       6.616   7.866   3.860  0.00  0.00    +0.000 C 
ATOM     14  H   UNL     1       7.198   6.956   4.037  0.00  0.00    +0.000 HD
ATOM     15  H   UNL     1       5.563   7.586   3.755  0.00  0.00    +0.000 HD
ATOM     16  H   UNL     1       6.712   8.508   4.741  0.00  0.00    +0.000 HD
ENDBRANCH  10  13
ENDBRANCH   7  10
ENDBRANCH   4   7
ENDBRANCH   1   4
BRANCH   1  17
ATOM     17  C   UNL     1       6.465  11.130  -0.670  0.00  0.00    +0.000 C 
ATOM     18  H   UNL     1       7.082  11.789  -1.293  0.00  0.00    +0.000 HD
ATOM     19  H   UNL     1       5.851  10.535  -1.357  0.00  0.00    +0.000 HD
BRANCH  17  20
ATOM     20  C   UNL     1       5.560  11.976   0.220  0.00  0.00    +0.000 C 
ATOM     21  H   UNL     1       5.870  11.882   1.266  0.00  0.00    +0.000 HD
ATOM     22  H   UNL     1       5.635  13.030  -0.072  0.00  0.00    +0.000 HD
BRANCH  20  24
ATOM     23  O   UNL     1       3.375  11.592   1.128  0.00  0.00    +0.000 OA
ATOM     24  C   UNL     1       4.101  11.574   0.134  0.00  0.00    +0.000 C 
BRANCH  24  25
ATOM     25  C   UNL     1       3.576  11.135  -1.208  0.00  0.00    +0.000 C 
ATOM     26  H   UNL     1       4.387  11.142  -1.942  0.00  0.00    +0.000 HD
ATOM     27  H   UNL     1       2.793  11.824  -1.536  0.00  0.00    +0.000 HD
ATOM     28  H   UNL     1       3.177  10.121  -1.130  0.00  0.00    +0.000 HD
ENDBRANCH  24  25
ENDBRANCH  20  24
ENDBRANCH  17  20
ENDBRANCH   1  17
TORSDOF 8
ENDMDL
MODEL 3
REMARK VINA RESULT:    -4.579     13.839     15.220
REMARK INTER + INTRA:          -6.694
REMARK INTER:                  -6.170
REMARK INTRA:                  -0.525
REMARK UNBOUND:                -0.241
REMARK  Name = 13187
REMARK  8 active torsions:
REMARK  status: ('A' for Active; 'I' for Inactive)
REMARK    1  A    between atoms: C_2  and  C_3
REMARK    2  A    between atoms: C_2  and  C_4
REMARK    3  A    between atoms: C_3  and  C_5
REMARK    4  A    between atoms: C_4  and  C_6
REMARK    5  A    between atoms: C_5  and  C_7
REMARK    6  A    between atoms: C_6  and  C_8
REMARK    7  A    between atoms: C_7  and  C_9
REMARK    8  A    between atoms: C_9  and  C_10
REMARK                            x       y       z     vdW  Elec       q    Type
REMARK                         _______ _______ _______ _____ _____    ______ ____
ROOT
ATOM      1  C   UNL     1      -2.742   9.711  -9.665  0.00  0.00    +0.000 C 
ATOM      2  H   UNL     1      -3.415   9.669 -10.530  0.00  0.00    +0.000 HD
ATOM      3  H   UNL     1      -2.958  10.644  -9.131  0.00  0.00    +0.000 HD
ENDROOT
BRANCH   1   4
ATOM      4  C   UNL     1      -3.009   8.519  -8.744  0.00  0.00    +0.000 C 
ATOM      5  H   UNL     1      -4.004   8.616  -8.294  0.00  0.00    +0.000 HD
ATOM      6  H   UNL     1      -2.282   8.521  -7.923  0.00  0.00    +0.000 HD
BRANCH   4   7
ATOM      7  C   UNL     1      -2.916   7.196  -9.506  0.00  0.00    +0.000 C 
ATOM      8  H   UNL     1      -2.648   6.389  -8.814  0.00  0.00    +0.000 HD
ATOM      9  H   UNL     1      -2.116   7.260 -10.254  0.00  0.00    +0.000 HD
BRANCH   7  10
ATOM     10  C   UNL     1      -4.238   6.858 -10.195  0.00  0.00    +0.000 C 
ATOM     11  H   UNL     1      -5.011   7.572  -9.888  0.00  0.00    +0.000 HD
ATOM     12  H   UNL     1      -4.576   5.862  -9.886  0.00  0.00    +0.000 HD
BRANCH  10  13
ATOM     13  C   UNL     1      -4.102   6.893 -11.709  0.00  0.00    +0.000 C 
ATOM     14  H   UNL     1      -3.991   7.921 -12.069  0.00  0.00    +0.000 HD
ATOM     15  H   UNL     1      -4.980   6.452 -12.191  0.00  0.00    +0.000 HD
ATOM     16  H   UNL     1      -3.220   6.326 -12.024  0.00  0.00    +0.000 HD
ENDBRANCH  10  13
ENDBRANCH   7  10
ENDBRANCH   4   7
ENDBRANCH   1   4
BRANCH   1  17
ATOM     17  C   UNL     1      -1.290   9.723 -10.151  0.00  0.00    +0.000 C 
ATOM     18  H   UNL     1      -0.725  10.484  -9.598  0.00  0.00    +0.000 HD
ATOM     19  H   UNL     1      -0.822   8.758  -9.919  0.00  0.00    +0.000 HD
BRANCH  17  20
ATOM     20  C   UNL     1      -1.176   9.998 -11.647  0.00  0.00    +0.000 C 
ATOM     21  H   UNL     1      -2.171  10.180 -12.071  0.00  0.00    +0.000 HD
ATOM     22  H   UNL     1      -0.560  10.888 -11.814  0.00  0.00    +0.000 HD
BRANCH  20  24
ATOM     23  O   UNL     1      -0.566   7.702 -11.970  0.00  0.00    +0.000 OA
ATOM     24  C   UNL     1      -0.552   8.850 -12.415  0.00  0.00    +0.000 C 
BRANCH  24  25
ATOM     25  C   UNL     1       0.102   9.167 -13.735  0.00  0.00    +0.000 C 
ATOM     26  H   UNL     1       0.159   8.262 -14.346  0.00  0.00    +0.000 HD
ATOM     27  H   UNL     1       1.114   9.543 -13.560  0.00  0.00    +0.000 HD
ATOM     28  H   UNL     1      -0.492   9.916 -14.266  0.00  0.00    +0.000 HD
ENDBRANCH  24  25
ENDBRANCH  20  24
ENDBRANCH  17  20
ENDBRANCH   1  17
TORSDOF 8
ENDMDL
MODEL 4
REMARK VINA RESULT:    -4.490      1.741      3.293
REMARK INTER + INTRA:          -6.569
REMARK INTER:                  -6.047
REMARK INTRA:                  -0.522
REMARK UNBOUND:                -0.241
REMARK  Name = 13187
REMARK  8 active torsions:
REMARK  status: ('A' for Active; 'I' for Inactive)
REMARK    1  A    between atoms: C_2  and  C_3
REMARK    2  A    between atoms: C_2  and  C_4
REMARK    3  A    between atoms: C_3  and  C_5
REMARK    4  A    between atoms: C_4  and  C_6
REMARK    5  A    between atoms: C_5  and  C_7
REMARK    6  A    between atoms: C_6  and  C_8
REMARK    7  A    between atoms: C_7  and  C_9
REMARK    8  A    between atoms: C_9  and  C_10
REMARK                            x       y       z     vdW  Elec       q    Type
REMARK                         _______ _______ _______ _____ _____    ______ ____
ROOT
ATOM      1  C   UNL     1       5.651   8.194   1.897  0.00  0.00    +0.000 C 
ATOM      2  H   UNL     1       5.071   7.271   1.781  0.00  0.00    +0.000 HD
ATOM      3  H   UNL     1       6.063   8.194   2.913  0.00  0.00    +0.000 HD
ENDROOT
BRANCH   1   4
ATOM      4  C   UNL     1       6.794   8.218   0.880  0.00  0.00    +0.000 C 
ATOM      5  H   UNL     1       6.383   8.297  -0.134  0.00  0.00    +0.000 HD
ATOM      6  H   UNL     1       7.348   7.273   0.931  0.00  0.00    +0.000 HD
BRANCH   4   7
ATOM      7  C   UNL     1       7.747   9.384   1.143  0.00  0.00    +0.000 C 
ATOM      8  H   UNL     1       8.483   9.096   1.903  0.00  0.00    +0.000 HD
ATOM      9  H   UNL     1       7.183  10.235   1.544  0.00  0.00    +0.000 HD
BRANCH   7  10
ATOM     10  C   UNL     1       8.473   9.806  -0.135  0.00  0.00    +0.000 C 
ATOM     11  H   UNL     1       8.827   8.919  -0.673  0.00  0.00    +0.000 HD
ATOM     12  H   UNL     1       9.356  10.406   0.118  0.00  0.00    +0.000 HD
BRANCH  10  13
ATOM     13  C   UNL     1       7.566  10.614  -1.050  0.00  0.00    +0.000 C 
ATOM     14  H   UNL     1       8.099  10.922  -1.956  0.00  0.00    +0.000 HD
ATOM     15  H   UNL     1       7.198  11.512  -0.545  0.00  0.00    +0.000 HD
ATOM     16  H   UNL     1       6.701  10.015  -1.352  0.00  0.00    +0.000 HD
ENDBRANCH  10  13
ENDBRANCH   7  10
ENDBRANCH   4   7
ENDBRANCH   1   4
BRANCH   1  17
ATOM     17  C   UNL     1       4.726   9.402   1.720  0.00  0.00    +0.000 C 
ATOM     18  H   UNL     1       3.873   9.313   2.405  0.00  0.00    +0.000 HD
ATOM     19  H   UNL     1       5.262  10.315   2.006  0.00  0.00    +0.000 HD
BRANCH  17  20
ATOM     20  C   UNL     1       4.212   9.539   0.290  0.00  0.00    +0.000 C 
ATOM     21  H   UNL     1       4.948   9.131  -0.412  0.00  0.00    +0.000 HD
ATOM     22  H   UNL     1       3.277   8.980   0.177  0.00  0.00    +0.000 HD
BRANCH  20  24
ATOM     23  O   UNL     1       4.226  11.910   0.644  0.00  0.00    +0.000 OA
ATOM     24  C   UNL     1       3.944  10.977  -0.108  0.00  0.00    +0.000 C 
BRANCH  24  25
ATOM     25  C   UNL     1       3.305  11.222  -1.450  0.00  0.00    +0.000 C 
ATOM     26  H   UNL     1       2.717  10.348  -1.744  0.00  0.00    +0.000 HD
ATOM     27  H   UNL     1       4.083  11.395  -2.199  0.00  0.00    +0.000 HD
ATOM     28  H   UNL     1       2.643  12.089  -1.387  0.00  0.00    +0.000 HD
ENDBRANCH  24  25
ENDBRANCH  20  24
ENDBRANCH  17  20
ENDBRANCH   1  17
TORSDOF 8
ENDMDL
MODEL 5
REMARK VINA RESULT:    -4.462     13.984     15.156
REMARK INTER + INTRA:          -6.528
REMARK INTER:                  -6.109
REMARK INTRA:                  -0.419
REMARK UNBOUND:                -0.241
REMARK  Name = 13187
REMARK  8 active torsions:
REMARK  status: ('A' for Active; 'I' for Inactive)
REMARK    1  A    between atoms: C_2  and  C_3
REMARK    2  A    between atoms: C_2  and  C_4
REMARK    3  A    between atoms: C_3  and  C_5
REMARK    4  A    between atoms: C_4  and  C_6
REMARK    5  A    between atoms: C_5  and  C_7
REMARK    6  A    between atoms: C_6  and  C_8
REMARK    7  A    between atoms: C_7  and  C_9
REMARK    8  A    between atoms: C_9  and  C_10
REMARK                            x       y       z     vdW  Elec       q    Type
REMARK                         _______ _______ _______ _____ _____    ______ ____
ROOT
ATOM      1  C   UNL     1      -1.386   9.795 -10.106  0.00  0.00    +0.000 C 
ATOM      2  H   UNL     1      -0.856  10.647  -9.666  0.00  0.00    +0.000 HD
ATOM      3  H   UNL     1      -0.846   8.888  -9.811  0.00  0.00    +0.000 HD
ENDROOT
BRANCH   1   4
ATOM      4  C   UNL     1      -2.816   9.739  -9.564  0.00  0.00    +0.000 C 
ATOM      5  H   UNL     1      -3.522   9.631 -10.396  0.00  0.00    +0.000 HD
ATOM      6  H   UNL     1      -3.053  10.684  -9.060  0.00  0.00    +0.000 HD
BRANCH   4   7
ATOM      7  C   UNL     1      -2.994   8.579  -8.584  0.00  0.00    +0.000 C 
ATOM      8  H   UNL     1      -3.879   8.754  -7.961  0.00  0.00    +0.000 HD
ATOM      9  H   UNL     1      -2.129   8.531  -7.911  0.00  0.00    +0.000 HD
BRANCH   7  10
ATOM     10  C   UNL     1      -3.145   7.248  -9.321  0.00  0.00    +0.000 C 
ATOM     11  H   UNL     1      -2.244   6.640  -9.180  0.00  0.00    +0.000 HD
ATOM     12  H   UNL     1      -3.249   7.428 -10.398  0.00  0.00    +0.000 HD
BRANCH  10  13
ATOM     13  C   UNL     1      -4.353   6.470  -8.824  0.00  0.00    +0.000 C 
ATOM     14  H   UNL     1      -4.305   6.322  -7.741  0.00  0.00    +0.000 HD
ATOM     15  H   UNL     1      -4.410   5.487  -9.303  0.00  0.00    +0.000 HD
ATOM     16  H   UNL     1      -5.275   7.014  -9.053  0.00  0.00    +0.000 HD
ENDBRANCH  10  13
ENDBRANCH   7  10
ENDBRANCH   4   7
ENDBRANCH   1   4
BRANCH   1  17
ATOM     17  C   UNL     1      -1.377   9.923 -11.633  0.00  0.00    +0.000 C 
ATOM     18  H   UNL     1      -2.367   9.663 -12.027  0.00  0.00    +0.000 HD
ATOM     19  H   UNL     1      -1.196  10.969 -11.908  0.00  0.00    +0.000 HD
BRANCH  17  20
ATOM     20  C   UNL     1      -0.323   9.034 -12.287  0.00  0.00    +0.000 C 
ATOM     21  H   UNL     1       0.371   9.647 -12.873  0.00  0.00    +0.000 HD
ATOM     22  H   UNL     1       0.246   8.506 -11.514  0.00  0.00    +0.000 HD
BRANCH  20  24
ATOM     23  O   UNL     1      -0.835   8.111 -14.439  0.00  0.00    +0.000 OA
ATOM     24  C   UNL     1      -0.919   7.996 -13.216  0.00  0.00    +0.000 C 
BRANCH  24  25
ATOM     25  C   UNL     1      -1.632   6.826 -12.590  0.00  0.00    +0.000 C 
ATOM     26  H   UNL     1      -1.073   6.476 -11.719  0.00  0.00    +0.000 HD
ATOM     27  H   UNL     1      -1.706   6.012 -13.316  0.00  0.00    +0.000 HD
ATOM     28  H   UNL     1      -2.630   7.136 -12.270  0.00  0.00    +0.000 HD
ENDBRANCH  24  25
ENDBRANCH  20  24
ENDBRANCH  17  20
ENDBRANCH   1  17
TORSDOF 8
ENDMDL
MODEL 6
REMARK VINA RESULT:    -4.439      1.589      2.968
REMARK INTER + INTRA:          -6.496
REMARK INTER:                  -6.167
REMARK INTRA:                  -0.329
REMARK UNBOUND:                -0.241
REMARK  Name = 13187
REMARK  8 active torsions:
REMARK  status: ('A' for Active; 'I' for Inactive)
REMARK    1  A    between atoms: C_2  and  C_3
REMARK    2  A    between atoms: C_2  and  C_4
REMARK    3  A    between atoms: C_3  and  C_5
REMARK    4  A    between atoms: C_4  and  C_6
REMARK    5  A    between atoms: C_5  and  C_7
REMARK    6  A    between atoms: C_6  and  C_8
REMARK    7  A    between atoms: C_7  and  C_9
REMARK    8  A    between atoms: C_9  and  C_10
REMARK                            x       y       z     vdW  Elec       q    Type
REMARK                         _______ _______ _______ _____ _____    ______ ____
ROOT
ATOM      1  C   UNL     1       5.121   6.837   3.483  0.00  0.00    +0.000 C 
ATOM      2  H   UNL     1       5.846   6.081   3.161  0.00  0.00    +0.000 HD
ATOM      3  H   UNL     1       4.129   6.371   3.449  0.00  0.00    +0.000 HD
ENDROOT
BRANCH   1   4
ATOM      4  C   UNL     1       5.433   7.274   4.916  0.00  0.00    +0.000 C 
ATOM      5  H   UNL     1       5.236   6.445   5.605  0.00  0.00    +0.000 HD
ATOM      6  H   UNL     1       4.765   8.096   5.201  0.00  0.00    +0.000 HD
BRANCH   4   7
ATOM      7  C   UNL     1       6.887   7.725   5.055  0.00  0.00    +0.000 C 
ATOM      8  H   UNL     1       7.378   7.695   4.075  0.00  0.00    +0.000 HD
ATOM      9  H   UNL     1       7.426   7.028   5.709  0.00  0.00    +0.000 HD
BRANCH   7  10
ATOM     10  C   UNL     1       6.978   9.140   5.627  0.00  0.00    +0.000 C 
ATOM     11  H   UNL     1       6.603   9.150   6.657  0.00  0.00    +0.000 HD
ATOM     12  H   UNL     1       6.343   9.819   5.045  0.00  0.00    +0.000 HD
BRANCH  10  13
ATOM     13  C   UNL     1       8.408   9.657   5.613  0.00  0.00    +0.000 C 
ATOM     14  H   UNL     1       8.656  10.095   4.641  0.00  0.00    +0.000 HD
ATOM     15  H   UNL     1       9.118   8.850   5.819  0.00  0.00    +0.000 HD
ATOM     16  H   UNL     1       8.539  10.429   6.377  0.00  0.00    +0.000 HD
ENDBRANCH  10  13
ENDBRANCH   7  10
ENDBRANCH   4   7
ENDBRANCH   1   4
BRANCH   1  17
ATOM     17  C   UNL     1       5.163   8.026   2.519  0.00  0.00    +0.000 C 
ATOM     18  H   UNL     1       6.070   8.615   2.704  0.00  0.00    +0.000 HD
ATOM     19  H   UNL     1       5.236   7.655   1.489  0.00  0.00    +0.000 HD
BRANCH  17  20
ATOM     20  C   UNL     1       3.939   8.928   2.650  0.00  0.00    +0.000 C 
ATOM     21  H   UNL     1       3.030   8.319   2.702  0.00  0.00    +0.000 HD
ATOM     22  H   UNL     1       4.014   9.521   3.568  0.00  0.00    +0.000 HD
BRANCH  20  24
ATOM     23  O   UNL     1       3.382  11.040   1.662  0.00  0.00    +0.000 OA
ATOM     24  C   UNL     1       3.785   9.889   1.488  0.00  0.00    +0.000 C 
BRANCH  24  25
ATOM     25  C   UNL     1       4.124   9.380   0.112  0.00  0.00    +0.000 C 
ATOM     26  H   UNL     1       4.216   8.291   0.133  0.00  0.00    +0.000 HD
ATOM     27  H   UNL     1       5.075   9.811  -0.213  0.00  0.00    +0.000 HD
ATOM     28  H   UNL     1       3.329   9.655  -0.586  0.00  0.00    +0.000 HD
ENDBRANCH  24  25
ENDBRANCH  20  24
ENDBRANCH  17  20
ENDBRANCH   1  17
TORSDOF 8
ENDMDL
MODEL 7
REMARK VINA RESULT:    -4.298     26.855     28.485
REMARK INTER + INTRA:          -6.297
REMARK INTER:                  -5.986
REMARK INTRA:                  -0.311
REMARK UNBOUND:                -0.241
REMARK  Name = 13187
REMARK  8 active torsions:
REMARK  status: ('A' for Active; 'I' for Inactive)
REMARK    1  A    between atoms: C_2  and  C_3
REMARK    2  A    between atoms: C_2  and  C_4
REMARK    3  A    between atoms: C_3  and  C_5
REMARK    4  A    between atoms: C_4  and  C_6
REMARK    5  A    between atoms: C_5  and  C_7
REMARK    6  A    between atoms: C_6  and  C_8
REMARK    7  A    between atoms: C_7  and  C_9
REMARK    8  A    between atoms: C_9  and  C_10
REMARK                            x       y       z     vdW  Elec       q    Type
REMARK                         _______ _______ _______ _____ _____    ______ ____
ROOT
ATOM      1  C   UNL     1     -20.403  -3.762   5.500  0.00  0.00    +0.000 C 
ATOM      2  H   UNL     1     -19.713  -3.455   6.295  0.00  0.00    +0.000 HD
ATOM      3  H   UNL     1     -21.287  -4.193   5.986  0.00  0.00    +0.000 HD
ENDROOT
BRANCH   1   4
ATOM      4  C   UNL     1     -20.816  -2.541   4.674  0.00  0.00    +0.000 C 
ATOM      5  H   UNL     1     -21.839  -2.676   4.305  0.00  0.00    +0.000 HD
ATOM      6  H   UNL     1     -20.164  -2.457   3.797  0.00  0.00    +0.000 HD
BRANCH   4   7
ATOM      7  C   UNL     1     -20.731  -1.257   5.500  0.00  0.00    +0.000 C 
ATOM      8  H   UNL     1     -21.661  -0.686   5.391  0.00  0.00    +0.000 HD
ATOM      9  H   UNL     1     -19.918  -0.628   5.118  0.00  0.00    +0.000 HD
BRANCH   7  10
ATOM     10  C   UNL     1     -20.492  -1.563   6.979  0.00  0.00    +0.000 C 
ATOM     11  H   UNL     1     -19.434  -1.416   7.223  0.00  0.00    +0.000 HD
ATOM     12  H   UNL     1     -20.729  -2.614   7.186  0.00  0.00    +0.000 HD
BRANCH  10  13
ATOM     13  C   UNL     1     -21.338  -0.674   7.876  0.00  0.00    +0.000 C 
ATOM     14  H   UNL     1     -21.980  -0.015   7.282  0.00  0.00    +0.000 HD
ATOM     15  H   UNL     1     -20.707  -0.052   8.519  0.00  0.00    +0.000 HD
ATOM     16  H   UNL     1     -21.980  -1.285   8.518  0.00  0.00    +0.000 HD
ENDBRANCH  10  13
ENDBRANCH   7  10
ENDBRANCH   4   7
ENDBRANCH   1   4
BRANCH   1  17
ATOM     17  C   UNL     1     -19.731  -4.823   4.623  0.00  0.00    +0.000 C 
ATOM     18  H   UNL     1     -18.726  -5.033   5.010  0.00  0.00    +0.000 HD
ATOM     19  H   UNL     1     -20.295  -5.762   4.694  0.00  0.00    +0.000 HD
BRANCH  17  20
ATOM     20  C   UNL     1     -19.632  -4.396   3.162  0.00  0.00    +0.000 C 
ATOM     21  H   UNL     1     -20.630  -4.370   2.712  0.00  0.00    +0.000 HD
ATOM     22  H   UNL     1     -19.195  -3.393   3.099  0.00  0.00    +0.000 HD
BRANCH  20  24
ATOM     23  O   UNL     1     -19.189  -6.434   1.980  0.00  0.00    +0.000 OA
ATOM     24  C   UNL     1     -18.775  -5.329   2.330  0.00  0.00    +0.000 C 
BRANCH  24  25
ATOM     25  C   UNL     1     -17.391  -4.861   1.960  0.00  0.00    +0.000 C 
ATOM     26  H   UNL     1     -17.451  -4.148   1.133  0.00  0.00    +0.000 HD
ATOM     27  H   UNL     1     -16.788  -5.718   1.648  0.00  0.00    +0.000 HD
ATOM     28  H   UNL     1     -16.930  -4.369   2.820  0.00  0.00    +0.000 HD
ENDBRANCH  24  25
ENDBRANCH  20  24
ENDBRANCH  17  20
ENDBRANCH   1  17
TORSDOF 8
ENDMDL
MODEL 8
REMARK VINA RESULT:    -4.279     13.799     15.609
REMARK INTER + INTRA:          -6.271
REMARK INTER:                  -5.992
REMARK INTRA:                  -0.279
REMARK UNBOUND:                -0.241
REMARK  Name = 13187
REMARK  8 active torsions:
REMARK  status: ('A' for Active; 'I' for Inactive)
REMARK    1  A    between atoms: C_2  and  C_3
REMARK    2  A    between atoms: C_2  and  C_4
REMARK    3  A    between atoms: C_3  and  C_5
REMARK    4  A    between atoms: C_4  and  C_6
REMARK    5  A    between atoms: C_5  and  C_7
REMARK    6  A    between atoms: C_6  and  C_8
REMARK    7  A    between atoms: C_7  and  C_9
REMARK    8  A    between atoms: C_9  and  C_10
REMARK                            x       y       z     vdW  Elec       q    Type
REMARK                         _______ _______ _______ _____ _____    ______ ____
ROOT
ATOM      1  C   UNL     1      -9.225   9.744   7.434  0.00  0.00    +0.000 C 
ATOM      2  H   UNL     1      -9.949  10.101   8.176  0.00  0.00    +0.000 HD
ATOM      3  H   UNL     1      -9.796   9.321   6.599  0.00  0.00    +0.000 HD
ENDROOT
BRANCH   1   4
ATOM      4  C   UNL     1      -8.377  10.916   6.934  0.00  0.00    +0.000 C 
ATOM      5  H   UNL     1      -7.313  10.672   7.040  0.00  0.00    +0.000 HD
ATOM      6  H   UNL     1      -8.570  11.798   7.556  0.00  0.00    +0.000 HD
BRANCH   4   7
ATOM      7  C   UNL     1      -8.687  11.242   5.473  0.00  0.00    +0.000 C 
ATOM      8  H   UNL     1      -9.322  12.134   5.420  0.00  0.00    +0.000 HD
ATOM      9  H   UNL     1      -9.252  10.416   5.025  0.00  0.00    +0.000 HD
BRANCH   7  10
ATOM     10  C   UNL     1      -7.406  11.480   4.673  0.00  0.00    +0.000 C 
ATOM     11  H   UNL     1      -7.622  11.434   3.600  0.00  0.00    +0.000 HD
ATOM     12  H   UNL     1      -6.677  10.690   4.892  0.00  0.00    +0.000 HD
BRANCH  10  13
ATOM     13  C   UNL     1      -6.790  12.832   4.998  0.00  0.00    +0.000 C 
ATOM     14  H   UNL     1      -6.926  13.534   4.168  0.00  0.00    +0.000 HD
ATOM     15  H   UNL     1      -5.718  12.737   5.196  0.00  0.00    +0.000 HD
ATOM     16  H   UNL     1      -7.264  13.261   5.887  0.00  0.00    +0.000 HD
ENDBRANCH  10  13
ENDBRANCH   7  10
ENDBRANCH   4   7
ENDBRANCH   1   4
BRANCH   1  17
ATOM     17  C   UNL     1      -8.350   8.654   8.061  0.00  0.00    +0.000 C 
ATOM     18  H   UNL     1      -8.956   7.757   8.241  0.00  0.00    +0.000 HD
ATOM     19  H   UNL     1      -7.567   8.363   7.349  0.00  0.00    +0.000 HD
BRANCH  17  20
ATOM     20  C   UNL     1      -7.708   9.101   9.370  0.00  0.00    +0.000 C 
ATOM     21  H   UNL     1      -6.752   8.585   9.513  0.00  0.00    +0.000 HD
ATOM     22  H   UNL     1      -7.518  10.180   9.340  0.00  0.00    +0.000 HD
BRANCH  20  24
ATOM     23  O   UNL     1      -8.800   7.661  10.944  0.00  0.00    +0.000 OA
ATOM     24  C   UNL     1      -8.572   8.815  10.582  0.00  0.00    +0.000 C 
BRANCH  24  25
ATOM     25  C   UNL     1      -9.156   9.994  11.316  0.00  0.00    +0.000 C 
ATOM     26  H   UNL     1     -10.242   9.884  11.387  0.00  0.00    +0.000 HD
ATOM     27  H   UNL     1      -8.927  10.914  10.770  0.00  0.00    +0.000 HD
ATOM     28  H   UNL     1      -8.738  10.040  12.324  0.00  0.00    +0.000 HD
ENDBRANCH  24  25
ENDBRANCH  20  24
ENDBRANCH  17  20
ENDBRANCH   1  17
TORSDOF 8
ENDMDL
MODEL 9
REMARK VINA RESULT:    -4.108      2.257      4.347
REMARK INTER + INTRA:          -6.031
REMARK INTER:                  -5.458
REMARK INTRA:                  -0.573
REMARK UNBOUND:                -0.241
REMARK  Name = 13187
REMARK  8 active torsions:
REMARK  status: ('A' for Active; 'I' for Inactive)
REMARK    1  A    between atoms: C_2  and  C_3
REMARK    2  A    between atoms: C_2  and  C_4
REMARK    3  A    between atoms: C_3  and  C_5
REMARK    4  A    between atoms: C_4  and  C_6
REMARK    5  A    between atoms: C_5  and  C_7
REMARK    6  A    between atoms: C_6  and  C_8
REMARK    7  A    between atoms: C_7  and  C_9
REMARK    8  A    between atoms: C_9  and  C_10
REMARK                            x       y       z     vdW  Elec       q    Type
REMARK                         _______ _______ _______ _____ _____    ______ ____
ROOT
ATOM      1  C   UNL     1       3.888   9.029   0.609  0.00  0.00    +0.000 C 
ATOM      2  H   UNL     1       2.833   8.736   0.549  0.00  0.00    +0.000 HD
ATOM      3  H   UNL     1       4.484   8.161   0.303  0.00  0.00    +0.000 HD
ENDROOT
BRANCH   1   4
ATOM      4  C   UNL     1       4.156  10.196  -0.344  0.00  0.00    +0.000 C 
ATOM      5  H   UNL     1       3.244  10.794  -0.459  0.00  0.00    +0.000 HD
ATOM      6  H   UNL     1       4.414   9.806  -1.336  0.00  0.00    +0.000 HD
BRANCH   4   7
ATOM      7  C   UNL     1       5.291  11.083   0.169  0.00  0.00    +0.000 C 
ATOM      8  H   UNL     1       5.735  10.633   1.065  0.00  0.00    +0.000 HD
ATOM      9  H   UNL     1       4.889  12.060   0.462  0.00  0.00    +0.000 HD
BRANCH   7  10
ATOM     10  C   UNL     1       6.372  11.271  -0.895  0.00  0.00    +0.000 C 
ATOM     11  H   UNL     1       6.777  12.288  -0.840  0.00  0.00    +0.000 HD
ATOM     12  H   UNL     1       5.937  11.150  -1.895  0.00  0.00    +0.000 HD
BRANCH  10  13
ATOM     13  C   UNL     1       7.507  10.274  -0.720  0.00  0.00    +0.000 C 
ATOM     14  H   UNL     1       8.179  10.289  -1.583  0.00  0.00    +0.000 HD
ATOM     15  H   UNL     1       7.120   9.257  -0.603  0.00  0.00    +0.000 HD
ATOM     16  H   UNL     1       8.093  10.520   0.172  0.00  0.00    +0.000 HD
ENDBRANCH  10  13
ENDBRANCH   7  10
ENDBRANCH   4   7
ENDBRANCH   1   4
BRANCH   1  17
ATOM     17  C   UNL     1       4.231   9.403   2.054  0.00  0.00    +0.000 C 
ATOM     18  H   UNL     1       5.135  10.025   2.066  0.00  0.00    +0.000 HD
ATOM     19  H   UNL     1       3.424  10.018   2.471  0.00  0.00    +0.000 HD
BRANCH  17  20
ATOM     20  C   UNL     1       4.449   8.179   2.939  0.00  0.00    +0.000 C 
ATOM     21  H   UNL     1       4.273   8.441   3.988  0.00  0.00    +0.000 HD
ATOM     22  H   UNL     1       3.746   7.388   2.655  0.00  0.00    +0.000 HD
BRANCH  20  24
ATOM     23  O   UNL     1       6.060   6.405   2.938  0.00  0.00    +0.000 OA
ATOM     24  C   UNL     1       5.851   7.614   2.833  0.00  0.00    +0.000 C 
BRANCH  24  25
ATOM     25  C   UNL     1       6.980   8.585   2.612  0.00  0.00    +0.000 C 
ATOM     26  H   UNL     1       6.706   9.567   3.008  0.00  0.00    +0.000 HD
ATOM     27  H   UNL     1       7.178   8.677   1.540  0.00  0.00    +0.000 HD
ATOM     28  H   UNL     1       7.874   8.231   3.131  0.00  0.00    +0.000 HD
ENDBRANCH  24  25
ENDBRANCH  20  24
ENDBRANCH  17  20
ENDBRANCH   1  17
TORSDOF 8
ENDMDL
MODEL 10
REMARK VINA RESULT:    -4.103     14.253     15.386
REMARK INTER + INTRA:          -6.023
REMARK INTER:                  -5.783
REMARK INTRA:                  -0.241
REMARK UNBOUND:                -0.241
REMARK  Name = 13187
REMARK  8 active torsions:
REMARK  status: ('A' for Active; 'I' for Inactive)
REMARK    1  A    between atoms: C_2  and  C_3
REMARK    2  A    between atoms: C_2  and  C_4
REMARK    3  A    between atoms: C_3  and  C_5
REMARK    4  A    between atoms: C_4  and  C_6
REMARK    5  A    between atoms: C_5  and  C_7
REMARK    6  A    between atoms: C_6  and  C_8
REMARK    7  A    between atoms: C_7  and  C_9
REMARK    8  A    between atoms: C_9  and  C_10
REMARK                            x       y       z     vdW  Elec       q    Type
REMARK                         _______ _______ _______ _____ _____    ______ ____
ROOT
ATOM      1  C   UNL     1      -2.808   7.235 -10.061  0.00  0.00    +0.000 C 
ATOM      2  H   UNL     1      -2.352   7.445 -11.035  0.00  0.00    +0.000 HD
ATOM      3  H   UNL     1      -2.219   6.438  -9.592  0.00  0.00    +0.000 HD
ENDROOT
BRANCH   1   4
ATOM      4  C   UNL     1      -2.763   8.490  -9.187  0.00  0.00    +0.000 C 
ATOM      5  H   UNL     1      -1.908   8.432  -8.503  0.00  0.00    +0.000 HD
ATOM      6  H   UNL     1      -3.668   8.539  -8.570  0.00  0.00    +0.000 HD
BRANCH   4   7
ATOM      7  C   UNL     1      -2.655   9.756 -10.038  0.00  0.00    +0.000 C 
ATOM      8  H   UNL     1      -3.091  10.604  -9.496  0.00  0.00    +0.000 HD
ATOM      9  H   UNL     1      -3.236   9.629 -10.960  0.00  0.00    +0.000 HD
BRANCH   7  10
ATOM     10  C   UNL     1      -1.200  10.068 -10.387  0.00  0.00    +0.000 C 
ATOM     11  H   UNL     1      -0.531   9.426  -9.804  0.00  0.00    +0.000 HD
ATOM     12  H   UNL     1      -0.967  11.106 -10.121  0.00  0.00    +0.000 HD
BRANCH  10  13
ATOM     13  C   UNL     1      -0.925   9.858 -11.868  0.00  0.00    +0.000 C 
ATOM     14  H   UNL     1      -0.007   9.279 -12.018  0.00  0.00    +0.000 HD
ATOM     15  H   UNL     1      -0.816  10.815 -12.386  0.00  0.00    +0.000 HD
ATOM     16  H   UNL     1      -1.751   9.311 -12.333  0.00  0.00    +0.000 HD
ENDBRANCH  10  13
ENDBRANCH   7  10
ENDBRANCH   4   7
ENDBRANCH   1   4
BRANCH   1  17
ATOM     17  C   UNL     1      -4.248   6.754 -10.266  0.00  0.00    +0.000 C 
ATOM     18  H   UNL     1      -4.836   7.551 -10.739  0.00  0.00    +0.000 HD
ATOM     19  H   UNL     1      -4.252   5.907 -10.963  0.00  0.00    +0.000 HD
BRANCH  17  20
ATOM     20  C   UNL     1      -4.918   6.341  -8.959  0.00  0.00    +0.000 C 
ATOM     21  H   UNL     1      -4.355   5.524  -8.492  0.00  0.00    +0.000 HD
ATOM     22  H   UNL     1      -4.935   7.190  -8.267  0.00  0.00    +0.000 HD
BRANCH  20  24
ATOM     23  O   UNL     1      -6.839   5.765 -10.271  0.00  0.00    +0.000 OA
ATOM     24  C   UNL     1      -6.345   5.868  -9.148  0.00  0.00    +0.000 C 
BRANCH  24  25
ATOM     25  C   UNL     1      -7.143   5.545  -7.912  0.00  0.00    +0.000 C 
ATOM     26  H   UNL     1      -7.661   6.442  -7.562  0.00  0.00    +0.000 HD
ATOM     27  H   UNL     1      -6.470   5.194  -7.125  0.00  0.00    +0.000 HD
ATOM     28  H   UNL     1      -7.884   4.776  -8.145  0.00  0.00    +0.000 HD
ENDBRANCH  24  25
ENDBRANCH  20  24
ENDBRANCH  17  20
ENDBRANCH   1  17
TORSDOF 8
ENDMDL
