MODEL 1
REMARK VINA RESULT:    -4.194      0.000      0.000
REMARK INTER + INTRA:          -6.079
REMARK INTER:                  -5.861
REMARK INTRA:                  -0.218
REMARK UNBOUND:                -0.413
REMARK  Name = 8093
REMARK  7 active torsions:
REMARK  status: ('A' for Active; 'I' for Inactive)
REMARK    1  A    between atoms: C_2  and  C_3
REMARK    2  A    between atoms: C_2  and  C_4
REMARK    3  A    between atoms: C_3  and  C_5
REMARK    4  A    between atoms: C_4  and  C_6
REMARK    5  A    between atoms: C_5  and  C_7
REMARK    6  A    between atoms: C_6  and  C_8
REMARK    7  A    between atoms: C_8  and  C_9
REMARK                            x       y       z     vdW  Elec       q    Type
REMARK                         _______ _______ _______ _____ _____    ______ ____
ROOT
ATOM      1  C   UNL     1     -20.939  -1.911   4.934  0.00  0.00    +0.000 C 
ATOM      2  H   UNL     1     -20.478  -1.854   3.941  0.00  0.00    +0.000 HD
ATOM      3  H   UNL     1     -22.025  -1.937   4.787  0.00  0.00    +0.000 HD
ENDROOT
BRANCH   1   4
ATOM      4  C   UNL     1     -20.561  -0.672   5.750  0.00  0.00    +0.000 C 
ATOM      5  H   UNL     1     -21.358   0.079   5.669  0.00  0.00    +0.000 HD
ATOM      6  H   UNL     1     -19.650  -0.223   5.335  0.00  0.00    +0.000 HD
BRANCH   4   7
ATOM      7  C   UNL     1     -20.334  -1.023   7.220  0.00  0.00    +0.000 C 
ATOM      8  H   UNL     1     -19.429  -0.525   7.586  0.00  0.00    +0.000 HD
ATOM      9  H   UNL     1     -20.176  -2.102   7.325  0.00  0.00    +0.000 HD
BRANCH   7  10
ATOM     10  C   UNL     1     -21.515  -0.604   8.082  0.00  0.00    +0.000 C 
ATOM     11  H   UNL     1     -21.499   0.474   8.272  0.00  0.00    +0.000 HD
ATOM     12  H   UNL     1     -21.501  -1.123   9.046  0.00  0.00    +0.000 HD
ATOM     13  H   UNL     1     -22.456  -0.847   7.579  0.00  0.00    +0.000 HD
ENDBRANCH   7  10
ENDBRANCH   4   7
ENDBRANCH   1   4
BRANCH   1  14
ATOM     14  C   UNL     1     -20.489  -3.195   5.636  0.00  0.00    +0.000 C 
ATOM     15  H   UNL     1     -19.451  -3.085   5.973  0.00  0.00    +0.000 HD
ATOM     16  H   UNL     1     -21.095  -3.344   6.539  0.00  0.00    +0.000 HD
BRANCH  14  17
ATOM     17  C   UNL     1     -20.606  -4.423   4.739  0.00  0.00    +0.000 C 
ATOM     18  H   UNL     1     -21.192  -5.199   5.243  0.00  0.00    +0.000 HD
ATOM     19  H   UNL     1     -21.116  -4.153   3.808  0.00  0.00    +0.000 HD
BRANCH  17  21
ATOM     20  O   UNL     1     -18.555  -5.564   5.232  0.00  0.00    +0.000 OA
ATOM     21  C   UNL     1     -19.262  -5.025   4.379  0.00  0.00    +0.000 C 
BRANCH  21  22
ATOM     22  C   UNL     1     -18.830  -4.956   2.939  0.00  0.00    +0.000 C 
ATOM     23  H   UNL     1     -17.784  -5.261   2.851  0.00  0.00    +0.000 HD
ATOM     24  H   UNL     1     -19.448  -5.628   2.340  0.00  0.00    +0.000 HD
ATOM     25  H   UNL     1     -18.929  -3.929   2.577  0.00  0.00    +0.000 HD
ENDBRANCH  21  22
ENDBRANCH  17  21
ENDBRANCH  14  17
ENDBRANCH   1  14
TORSDOF 7
ENDMDL
MODEL 2
REMARK VINA RESULT:    -4.089     25.103     26.354
REMARK INTER + INTRA:          -5.936
REMARK INTER:                  -5.528
REMARK INTRA:                  -0.408
REMARK UNBOUND:                -0.413
REMARK  Name = 8093
REMARK  7 active torsions:
REMARK  status: ('A' for Active; 'I' for Inactive)
REMARK    1  A    between atoms: C_2  and  C_3
REMARK    2  A    between atoms: C_2  and  C_4
REMARK    3  A    between atoms: C_3  and  C_5
REMARK    4  A    between atoms: C_4  and  C_6
REMARK    5  A    between atoms: C_5  and  C_7
REMARK    6  A    between atoms: C_6  and  C_8
REMARK    7  A    between atoms: C_8  and  C_9
REMARK                            x       y       z     vdW  Elec       q    Type
REMARK                         _______ _______ _______ _____ _____    ______ ____
ROOT
ATOM      1  C   UNL     1      -2.776   8.654  -8.761  0.00  0.00    +0.000 C 
ATOM      2  H   UNL     1      -3.321   9.007  -7.879  0.00  0.00    +0.000 HD
ATOM      3  H   UNL     1      -1.754   8.420  -8.440  0.00  0.00    +0.000 HD
ENDROOT
BRANCH   1   4
ATOM      4  C   UNL     1      -2.738   9.758  -9.821  0.00  0.00    +0.000 C 
ATOM      5  H   UNL     1      -3.202  10.669  -9.421  0.00  0.00    +0.000 HD
ATOM      6  H   UNL     1      -3.330   9.451 -10.692  0.00  0.00    +0.000 HD
BRANCH   4   7
ATOM      7  C   UNL     1      -1.305  10.060 -10.259  0.00  0.00    +0.000 C 
ATOM      8  H   UNL     1      -0.612   9.365  -9.771  0.00  0.00    +0.000 HD
ATOM      9  H   UNL     1      -1.025  11.072  -9.945  0.00  0.00    +0.000 HD
BRANCH   7  10
ATOM     10  C   UNL     1      -1.147   9.943 -11.766  0.00  0.00    +0.000 C 
ATOM     11  H   UNL     1      -1.398   8.935 -12.110  0.00  0.00    +0.000 HD
ATOM     12  H   UNL     1      -0.119  10.164 -12.072  0.00  0.00    +0.000 HD
ATOM     13  H   UNL     1      -1.810  10.651 -12.273  0.00  0.00    +0.000 HD
ENDBRANCH   7  10
ENDBRANCH   4   7
ENDBRANCH   1   4
BRANCH   1  14
ATOM     14  C   UNL     1      -3.442   7.386  -9.305  0.00  0.00    +0.000 C 
ATOM     15  H   UNL     1      -3.563   6.659  -8.493  0.00  0.00    +0.000 HD
ATOM     16  H   UNL     1      -4.452   7.633  -9.656  0.00  0.00    +0.000 HD
BRANCH  14  17
ATOM     17  C   UNL     1      -2.649   6.753 -10.443  0.00  0.00    +0.000 C 
ATOM     18  H   UNL     1      -1.681   7.254 -10.548  0.00  0.00    +0.000 HD
ATOM     19  H   UNL     1      -2.470   5.694 -10.226  0.00  0.00    +0.000 HD
BRANCH  17  21
ATOM     20  O   UNL     1      -2.729   6.806 -12.839  0.00  0.00    +0.000 OA
ATOM     21  C   UNL     1      -3.358   6.843 -11.780  0.00  0.00    +0.000 C 
BRANCH  21  22
ATOM     22  C   UNL     1      -4.859   6.960 -11.768  0.00  0.00    +0.000 C 
ATOM     23  H   UNL     1      -5.148   8.011 -11.838  0.00  0.00    +0.000 HD
ATOM     24  H   UNL     1      -5.274   6.418 -12.621  0.00  0.00    +0.000 HD
ATOM     25  H   UNL     1      -5.249   6.548 -10.834  0.00  0.00    +0.000 HD
ENDBRANCH  21  22
ENDBRANCH  17  21
ENDBRANCH  14  17
ENDBRANCH   1  14
TORSDOF 7
ENDMDL
MODEL 3
REMARK VINA RESULT:    -4.075     24.691     26.027
REMARK INTER + INTRA:          -5.917
REMARK INTER:                  -5.489
REMARK INTRA:                  -0.428
REMARK UNBOUND:                -0.413
REMARK  Name = 8093
REMARK  7 active torsions:
REMARK  status: ('A' for Active; 'I' for Inactive)
REMARK    1  A    between atoms: C_2  and  C_3
REMARK    2  A    between atoms: C_2  and  C_4
REMARK    3  A    between atoms: C_3  and  C_5
REMARK    4  A    between atoms: C_4  and  C_6
REMARK    5  A    between atoms: C_5  and  C_7
REMARK    6  A    between atoms: C_6  and  C_8
REMARK    7  A    between atoms: C_8  and  C_9
REMARK                            x       y       z     vdW  Elec       q    Type
REMARK                         _______ _______ _______ _____ _____    ______ ____
ROOT
ATOM      1  C   UNL     1      -2.990   7.362  -9.460  0.00  0.00    +0.000 C 
ATOM      2  H   UNL     1      -3.117   7.533 -10.535  0.00  0.00    +0.000 HD
ATOM      3  H   UNL     1      -2.075   6.770  -9.331  0.00  0.00    +0.000 HD
ENDROOT
BRANCH   1   4
ATOM      4  C   UNL     1      -4.188   6.578  -8.917  0.00  0.00    +0.000 C 
ATOM      5  H   UNL     1      -4.634   7.123  -8.075  0.00  0.00    +0.000 HD
ATOM      6  H   UNL     1      -3.846   5.609  -8.530  0.00  0.00    +0.000 HD
BRANCH   4   7
ATOM      7  C   UNL     1      -5.242   6.352 -10.000  0.00  0.00    +0.000 C 
ATOM      8  H   UNL     1      -6.169   6.870  -9.731  0.00  0.00    +0.000 HD
ATOM      9  H   UNL     1      -5.476   5.284 -10.075  0.00  0.00    +0.000 HD
BRANCH   7  10
ATOM     10  C   UNL     1      -4.766   6.856 -11.354  0.00  0.00    +0.000 C 
ATOM     11  H   UNL     1      -3.720   7.175 -11.308  0.00  0.00    +0.000 HD
ATOM     12  H   UNL     1      -5.369   7.705 -11.691  0.00  0.00    +0.000 HD
ATOM     13  H   UNL     1      -4.847   6.063 -12.103  0.00  0.00    +0.000 HD
ENDBRANCH   7  10
ENDBRANCH   4   7
ENDBRANCH   1   4
BRANCH   1  14
ATOM     14  C   UNL     1      -2.833   8.704  -8.740  0.00  0.00    +0.000 C 
ATOM     15  H   UNL     1      -3.549   8.761  -7.911  0.00  0.00    +0.000 HD
ATOM     16  H   UNL     1      -1.832   8.759  -8.293  0.00  0.00    +0.000 HD
BRANCH  14  17
ATOM     17  C   UNL     1      -3.038   9.894  -9.672  0.00  0.00    +0.000 C 
ATOM     18  H   UNL     1      -4.038   9.852 -10.118  0.00  0.00    +0.000 HD
ATOM     19  H   UNL     1      -2.950  10.828  -9.106  0.00  0.00    +0.000 HD
BRANCH  17  21
ATOM     20  O   UNL     1      -0.833  10.112 -10.589  0.00  0.00    +0.000 OA
ATOM     21  C   UNL     1      -2.033   9.938 -10.806  0.00  0.00    +0.000 C 
BRANCH  21  22
ATOM     22  C   UNL     1      -2.552   9.743 -12.206  0.00  0.00    +0.000 C 
ATOM     23  H   UNL     1      -2.785   8.688 -12.371  0.00  0.00    +0.000 HD
ATOM     24  H   UNL     1      -3.461  10.334 -12.344  0.00  0.00    +0.000 HD
ATOM     25  H   UNL     1      -1.789  10.052 -12.924  0.00  0.00    +0.000 HD
ENDBRANCH  21  22
ENDBRANCH  17  21
ENDBRANCH  14  17
ENDBRANCH   1  14
TORSDOF 7
ENDMDL
MODEL 4
REMARK VINA RESULT:    -4.043     26.318     27.536
REMARK INTER + INTRA:          -5.874
REMARK INTER:                  -5.595
REMARK INTRA:                  -0.280
REMARK UNBOUND:                -0.413
REMARK  Name = 8093
REMARK  7 active torsions:
REMARK  status: ('A' for Active; 'I' for Inactive)
REMARK    1  A    between atoms: C_2  and  C_3
REMARK    2  A    between atoms: C_2  and  C_4
REMARK    3  A    between atoms: C_3  and  C_5
REMARK    4  A    between atoms: C_4  and  C_6
REMARK    5  A    between atoms: C_5  and  C_7
REMARK    6  A    between atoms: C_6  and  C_8
REMARK    7  A    between atoms: C_8  and  C_9
REMARK                            x       y       z     vdW  Elec       q    Type
REMARK                         _______ _______ _______ _____ _____    ______ ____
ROOT
ATOM      1  C   UNL     1      -2.666   9.754 -10.048  0.00  0.00    +0.000 C 
ATOM      2  H   UNL     1      -3.215  10.698  -9.948  0.00  0.00    +0.000 HD
ATOM      3  H   UNL     1      -3.219   9.130 -10.761  0.00  0.00    +0.000 HD
ENDROOT
BRANCH   1   4
ATOM      4  C   UNL     1      -2.601   9.047  -8.692  0.00  0.00    +0.000 C 
ATOM      5  H   UNL     1      -2.939   9.732  -7.903  0.00  0.00    +0.000 HD
ATOM      6  H   UNL     1      -1.560   8.783  -8.466  0.00  0.00    +0.000 HD
BRANCH   4   7
ATOM      7  C   UNL     1      -3.462   7.784  -8.681  0.00  0.00    +0.000 C 
ATOM      8  H   UNL     1      -4.520   8.055  -8.767  0.00  0.00    +0.000 HD
ATOM      9  H   UNL     1      -3.337   7.257  -7.729  0.00  0.00    +0.000 HD
BRANCH   7  10
ATOM     10  C   UNL     1      -3.093   6.850  -9.822  0.00  0.00    +0.000 C 
ATOM     11  H   UNL     1      -3.981   6.553 -10.389  0.00  0.00    +0.000 HD
ATOM     12  H   UNL     1      -2.606   5.944  -9.446  0.00  0.00    +0.000 HD
ATOM     13  H   UNL     1      -2.401   7.346 -10.510  0.00  0.00    +0.000 HD
ENDBRANCH   7  10
ENDBRANCH   4   7
ENDBRANCH   1   4
BRANCH   1  14
ATOM     14  C   UNL     1      -1.263  10.031 -10.597  0.00  0.00    +0.000 C 
ATOM     15  H   UNL     1      -0.878  10.964 -10.166  0.00  0.00    +0.000 HD
ATOM     16  H   UNL     1      -0.584   9.233 -10.270  0.00  0.00    +0.000 HD
BRANCH  14  17
ATOM     17  C   UNL     1      -1.240  10.125 -12.119  0.00  0.00    +0.000 C 
ATOM     18  H   UNL     1      -2.262  10.091 -12.511  0.00  0.00    +0.000 HD
ATOM     19  H   UNL     1      -0.783  11.073 -12.424  0.00  0.00    +0.000 HD
BRANCH  17  21
ATOM     20  O   UNL     1       0.390   9.227 -13.631  0.00  0.00    +0.000 OA
ATOM     21  C   UNL     1      -0.461   8.999 -12.770  0.00  0.00    +0.000 C 
BRANCH  21  22
ATOM     22  C   UNL     1      -0.753   7.595 -12.315  0.00  0.00    +0.000 C 
ATOM     23  H   UNL     1      -0.981   7.592 -11.246  0.00  0.00    +0.000 HD
ATOM     24  H   UNL     1      -1.615   7.205 -12.863  0.00  0.00    +0.000 HD
ATOM     25  H   UNL     1       0.122   6.965 -12.491  0.00  0.00    +0.000 HD
ENDBRANCH  21  22
ENDBRANCH  17  21
ENDBRANCH  14  17
ENDBRANCH   1  14
TORSDOF 7
ENDMDL
MODEL 5
REMARK VINA RESULT:    -3.908     24.776     26.058
REMARK INTER + INTRA:          -5.692
REMARK INTER:                  -5.278
REMARK INTRA:                  -0.414
REMARK UNBOUND:                -0.413
REMARK  Name = 8093
REMARK  7 active torsions:
REMARK  status: ('A' for Active; 'I' for Inactive)
REMARK    1  A    between atoms: C_2  and  C_3
REMARK    2  A    between atoms: C_2  and  C_4
REMARK    3  A    between atoms: C_3  and  C_5
REMARK    4  A    between atoms: C_4  and  C_6
REMARK    5  A    between atoms: C_5  and  C_7
REMARK    6  A    between atoms: C_6  and  C_8
REMARK    7  A    between atoms: C_8  and  C_9
REMARK                            x       y       z     vdW  Elec       q    Type
REMARK                         _______ _______ _______ _____ _____    ______ ____
ROOT
ATOM      1  C   UNL     1      -2.742   9.706  -9.909  0.00  0.00    +0.000 C 
ATOM      2  H   UNL     1      -3.271   9.457 -10.837  0.00  0.00    +0.000 HD
ATOM      3  H   UNL     1      -3.195  10.623  -9.513  0.00  0.00    +0.000 HD
ENDROOT
BRANCH   1   4
ATOM      4  C   UNL     1      -1.261   9.954 -10.209  0.00  0.00    +0.000 C 
ATOM      5  H   UNL     1      -0.647   9.237  -9.649  0.00  0.00    +0.000 HD
ATOM      6  H   UNL     1      -0.981  10.958  -9.864  0.00  0.00    +0.000 HD
BRANCH   4   7
ATOM      7  C   UNL     1      -0.968   9.827 -11.703  0.00  0.00    +0.000 C 
ATOM      8  H   UNL     1      -0.318   8.962 -11.883  0.00  0.00    +0.000 HD
ATOM      9  H   UNL     1      -0.431  10.715 -12.054  0.00  0.00    +0.000 HD
BRANCH   7  10
ATOM     10  C   UNL     1      -2.246   9.664 -12.510  0.00  0.00    +0.000 C 
ATOM     11  H   UNL     1      -2.799   8.773 -12.195  0.00  0.00    +0.000 HD
ATOM     12  H   UNL     1      -2.027   9.572 -13.579  0.00  0.00    +0.000 HD
ATOM     13  H   UNL     1      -2.896  10.534 -12.370  0.00  0.00    +0.000 HD
ENDBRANCH   7  10
ENDBRANCH   4   7
ENDBRANCH   1   4
BRANCH   1  14
ATOM     14  C   UNL     1      -2.920   8.571  -8.896  0.00  0.00    +0.000 C 
ATOM     15  H   UNL     1      -2.113   8.612  -8.154  0.00  0.00    +0.000 HD
ATOM     16  H   UNL     1      -3.858   8.724  -8.346  0.00  0.00    +0.000 HD
BRANCH  14  17
ATOM     17  C   UNL     1      -2.937   7.197  -9.556  0.00  0.00    +0.000 C 
ATOM     18  H   UNL     1      -2.385   7.230 -10.502  0.00  0.00    +0.000 HD
ATOM     19  H   UNL     1      -2.455   6.465  -8.899  0.00  0.00    +0.000 HD
BRANCH  17  21
ATOM     20  O   UNL     1      -5.059   6.245  -8.972  0.00  0.00    +0.000 OA
ATOM     21  C   UNL     1      -4.337   6.702  -9.860  0.00  0.00    +0.000 C 
BRANCH  21  22
ATOM     22  C   UNL     1      -4.820   6.805 -11.282  0.00  0.00    +0.000 C 
ATOM     23  H   UNL     1      -5.888   7.037 -11.294  0.00  0.00    +0.000 HD
ATOM     24  H   UNL     1      -4.278   7.603 -11.795  0.00  0.00    +0.000 HD
ATOM     25  H   UNL     1      -4.660   5.852 -11.792  0.00  0.00    +0.000 HD
ENDBRANCH  21  22
ENDBRANCH  17  21
ENDBRANCH  14  17
ENDBRANCH   1  14
TORSDOF 7
ENDMDL
MODEL 6
REMARK VINA RESULT:    -3.904     25.897     27.165
REMARK INTER + INTRA:          -5.686
REMARK INTER:                  -5.300
REMARK INTRA:                  -0.387
REMARK UNBOUND:                -0.413
REMARK  Name = 8093
REMARK  7 active torsions:
REMARK  status: ('A' for Active; 'I' for Inactive)
REMARK    1  A    between atoms: C_2  and  C_3
REMARK    2  A    between atoms: C_2  and  C_4
REMARK    3  A    between atoms: C_3  and  C_5
REMARK    4  A    between atoms: C_4  and  C_6
REMARK    5  A    between atoms: C_5  and  C_7
REMARK    6  A    between atoms: C_6  and  C_8
REMARK    7  A    between atoms: C_8  and  C_9
REMARK                            x       y       z     vdW  Elec       q    Type
REMARK                         _______ _______ _______ _____ _____    ______ ____
ROOT
ATOM      1  C   UNL     1      -3.377   7.176 -10.564  0.00  0.00    +0.000 C 
ATOM      2  H   UNL     1      -3.847   7.978 -11.146  0.00  0.00    +0.000 HD
ATOM      3  H   UNL     1      -4.049   6.310 -10.603  0.00  0.00    +0.000 HD
ENDROOT
BRANCH   1   4
ATOM      4  C   UNL     1      -3.205   7.625  -9.110  0.00  0.00    +0.000 C 
ATOM      5  H   UNL     1      -2.666   6.853  -8.548  0.00  0.00    +0.000 HD
ATOM      6  H   UNL     1      -4.191   7.737  -8.643  0.00  0.00    +0.000 HD
BRANCH   4   7
ATOM      7  C   UNL     1      -2.446   8.949  -9.024  0.00  0.00    +0.000 C 
ATOM      8  H   UNL     1      -1.382   8.782  -9.226  0.00  0.00    +0.000 HD
ATOM      9  H   UNL     1      -2.523   9.357  -8.010  0.00  0.00    +0.000 HD
BRANCH   7  10
ATOM     10  C   UNL     1      -2.986   9.967 -10.016  0.00  0.00    +0.000 C 
ATOM     11  H   UNL     1      -4.078  10.026  -9.961  0.00  0.00    +0.000 HD
ATOM     12  H   UNL     1      -2.707   9.703 -11.041  0.00  0.00    +0.000 HD
ATOM     13  H   UNL     1      -2.580  10.960  -9.799  0.00  0.00    +0.000 HD
ENDBRANCH   7  10
ENDBRANCH   4   7
ENDBRANCH   1   4
BRANCH   1  14
ATOM     14  C   UNL     1      -2.031   6.805 -11.193  0.00  0.00    +0.000 C 
ATOM     15  H   UNL     1      -1.245   7.454 -10.786  0.00  0.00    +0.000 HD
ATOM     16  H   UNL     1      -1.769   5.779 -10.904  0.00  0.00    +0.000 HD
BRANCH  14  17
ATOM     17  C   UNL     1      -2.046   6.916 -12.713  0.00  0.00    +0.000 C 
ATOM     18  H   UNL     1      -1.681   5.984 -13.160  0.00  0.00    +0.000 HD
ATOM     19  H   UNL     1      -3.071   7.089 -13.062  0.00  0.00    +0.000 HD
BRANCH  17  21
ATOM     20  O   UNL     1      -1.212   8.379 -14.420  0.00  0.00    +0.000 OA
ATOM     21  C   UNL     1      -1.178   8.044 -13.235  0.00  0.00    +0.000 C 
BRANCH  21  22
ATOM     22  C   UNL     1      -0.287   8.751 -12.249  0.00  0.00    +0.000 C 
ATOM     23  H   UNL     1       0.693   8.267 -12.223  0.00  0.00    +0.000 HD
ATOM     24  H   UNL     1      -0.161   9.793 -12.553  0.00  0.00    +0.000 HD
ATOM     25  H   UNL     1      -0.732   8.700 -11.253  0.00  0.00    +0.000 HD
ENDBRANCH  21  22
ENDBRANCH  17  21
ENDBRANCH  14  17
ENDBRANCH   1  14
TORSDOF 7
ENDMDL
MODEL 7
REMARK VINA RESULT:    -3.829      1.536      2.126
REMARK INTER + INTRA:          -5.586
REMARK INTER:                  -5.329
REMARK INTRA:                  -0.257
REMARK UNBOUND:                -0.413
REMARK  Name = 8093
REMARK  7 active torsions:
REMARK  status: ('A' for Active; 'I' for Inactive)
REMARK    1  A    between atoms: C_2  and  C_3
REMARK    2  A    between atoms: C_2  and  C_4
REMARK    3  A    between atoms: C_3  and  C_5
REMARK    4  A    between atoms: C_4  and  C_6
REMARK    5  A    between atoms: C_5  and  C_7
REMARK    6  A    between atoms: C_6  and  C_8
REMARK    7  A    between atoms: C_8  and  C_9
REMARK                            x       y       z     vdW  Elec       q    Type
REMARK                         _______ _______ _______ _____ _____    ______ ____
ROOT
ATOM      1  C   UNL     1     -20.528  -3.742   5.509  0.00  0.00    +0.000 C 
ATOM      2  H   UNL     1     -21.460  -4.238   5.802  0.00  0.00    +0.000 HD
ATOM      3  H   UNL     1     -20.034  -3.408   6.429  0.00  0.00    +0.000 HD
ENDROOT
BRANCH   1   4
ATOM      4  C   UNL     1     -20.843  -2.530   4.627  0.00  0.00    +0.000 C 
ATOM      5  H   UNL     1     -21.858  -2.625   4.220  0.00  0.00    +0.000 HD
ATOM      6  H   UNL     1     -20.153  -2.509   3.774  0.00  0.00    +0.000 HD
BRANCH   4   7
ATOM      7  C   UNL     1     -20.724  -1.225   5.414  0.00  0.00    +0.000 C 
ATOM      8  H   UNL     1     -21.662  -0.662   5.345  0.00  0.00    +0.000 HD
ATOM      9  H   UNL     1     -19.937  -0.599   4.979  0.00  0.00    +0.000 HD
BRANCH   7  10
ATOM     10  C   UNL     1     -20.406  -1.484   6.878  0.00  0.00    +0.000 C 
ATOM     11  H   UNL     1     -21.315  -1.464   7.487  0.00  0.00    +0.000 HD
ATOM     12  H   UNL     1     -19.713  -0.731   7.268  0.00  0.00    +0.000 HD
ATOM     13  H   UNL     1     -19.939  -2.468   6.996  0.00  0.00    +0.000 HD
ENDBRANCH   7  10
ENDBRANCH   4   7
ENDBRANCH   1   4
BRANCH   1  14
ATOM     14  C   UNL     1     -19.623  -4.739   4.778  0.00  0.00    +0.000 C 
ATOM     15  H   UNL     1     -18.678  -4.249   4.512  0.00  0.00    +0.000 HD
ATOM     16  H   UNL     1     -19.367  -5.560   5.460  0.00  0.00    +0.000 HD
BRANCH  14  17
ATOM     17  C   UNL     1     -20.275  -5.307   3.523  0.00  0.00    +0.000 C 
ATOM     18  H   UNL     1     -20.913  -6.158   3.785  0.00  0.00    +0.000 HD
ATOM     19  H   UNL     1     -20.897  -4.540   3.049  0.00  0.00    +0.000 HD
BRANCH  17  21
ATOM     20  O   UNL     1     -19.445  -6.837   1.873  0.00  0.00    +0.000 OA
ATOM     21  C   UNL     1     -19.267  -5.790   2.498  0.00  0.00    +0.000 C 
BRANCH  21  22
ATOM     22  C   UNL     1     -18.051  -4.936   2.260  0.00  0.00    +0.000 C 
ATOM     23  H   UNL     1     -18.316  -3.880   2.355  0.00  0.00    +0.000 HD
ATOM     24  H   UNL     1     -17.283  -5.179   2.999  0.00  0.00    +0.000 HD
ATOM     25  H   UNL     1     -17.672  -5.115   1.250  0.00  0.00    +0.000 HD
ENDBRANCH  21  22
ENDBRANCH  17  21
ENDBRANCH  14  17
ENDBRANCH   1  14
TORSDOF 7
ENDMDL
MODEL 8
REMARK VINA RESULT:    -3.778     17.051     18.388
REMARK INTER + INTRA:          -5.516
REMARK INTER:                  -5.376
REMARK INTRA:                  -0.140
REMARK UNBOUND:                -0.413
REMARK  Name = 8093
REMARK  7 active torsions:
REMARK  status: ('A' for Active; 'I' for Inactive)
REMARK    1  A    between atoms: C_2  and  C_3
REMARK    2  A    between atoms: C_2  and  C_4
REMARK    3  A    between atoms: C_3  and  C_5
REMARK    4  A    between atoms: C_4  and  C_6
REMARK    5  A    between atoms: C_5  and  C_7
REMARK    6  A    between atoms: C_6  and  C_8
REMARK    7  A    between atoms: C_8  and  C_9
REMARK                            x       y       z     vdW  Elec       q    Type
REMARK                         _______ _______ _______ _____ _____    ______ ____
ROOT
ATOM      1  C   UNL     1      -8.386  11.064   6.878  0.00  0.00    +0.000 C 
ATOM      2  H   UNL     1      -8.960  11.843   7.393  0.00  0.00    +0.000 HD
ATOM      3  H   UNL     1      -7.328  11.233   7.110  0.00  0.00    +0.000 HD
ENDROOT
BRANCH   1   4
ATOM      4  C   UNL     1      -8.604  11.176   5.366  0.00  0.00    +0.000 C 
ATOM      5  H   UNL     1      -9.351  11.953   5.158  0.00  0.00    +0.000 HD
ATOM      6  H   UNL     1      -9.005  10.230   4.982  0.00  0.00    +0.000 HD
BRANCH   4   7
ATOM      7  C   UNL     1      -7.300  11.510   4.641  0.00  0.00    +0.000 C 
ATOM      8  H   UNL     1      -7.465  11.503   3.557  0.00  0.00    +0.000 HD
ATOM      9  H   UNL     1      -6.546  10.746   4.860  0.00  0.00    +0.000 HD
BRANCH   7  10
ATOM     10  C   UNL     1      -6.766  12.872   5.054  0.00  0.00    +0.000 C 
ATOM     11  H   UNL     1      -6.518  13.479   4.177  0.00  0.00    +0.000 HD
ATOM     12  H   UNL     1      -5.865  12.771   5.667  0.00  0.00    +0.000 HD
ATOM     13  H   UNL     1      -7.516  13.412   5.640  0.00  0.00    +0.000 HD
ENDBRANCH   7  10
ENDBRANCH   4   7
ENDBRANCH   1   4
BRANCH   1  14
ATOM     14  C   UNL     1      -8.808   9.687   7.398  0.00  0.00    +0.000 C 
ATOM     15  H   UNL     1      -9.570   9.262   6.733  0.00  0.00    +0.000 HD
ATOM     16  H   UNL     1      -7.947   9.008   7.358  0.00  0.00    +0.000 HD
BRANCH  14  17
ATOM     17  C   UNL     1      -9.347   9.741   8.823  0.00  0.00    +0.000 C 
ATOM     18  H   UNL     1      -9.434  10.783   9.150  0.00  0.00    +0.000 HD
ATOM     19  H   UNL     1     -10.341   9.282   8.861  0.00  0.00    +0.000 HD
BRANCH  17  21
ATOM     20  O   UNL     1      -7.233   9.069   9.733  0.00  0.00    +0.000 OA
ATOM     21  C   UNL     1      -8.461   9.020   9.820  0.00  0.00    +0.000 C 
BRANCH  21  22
ATOM     22  C   UNL     1      -9.135   8.258  10.929  0.00  0.00    +0.000 C 
ATOM     23  H   UNL     1      -8.806   7.216  10.914  0.00  0.00    +0.000 HD
ATOM     24  H   UNL     1      -8.868   8.702  11.891  0.00  0.00    +0.000 HD
ATOM     25  H   UNL     1     -10.218   8.289  10.787  0.00  0.00    +0.000 HD
ENDBRANCH  21  22
ENDBRANCH  17  21
ENDBRANCH  14  17
ENDBRANCH   1  14
TORSDOF 7
ENDMDL
MODEL 9
REMARK VINA RESULT:    -3.759     17.998     19.297
REMARK INTER + INTRA:          -5.491
REMARK INTER:                  -5.288
REMARK INTRA:                  -0.203
REMARK UNBOUND:                -0.413
REMARK  Name = 8093
REMARK  7 active torsions:
REMARK  status: ('A' for Active; 'I' for Inactive)
REMARK    1  A    between atoms: C_2  and  C_3
REMARK    2  A    between atoms: C_2  and  C_4
REMARK    3  A    between atoms: C_3  and  C_5
REMARK    4  A    between atoms: C_4  and  C_6
REMARK    5  A    between atoms: C_5  and  C_7
REMARK    6  A    between atoms: C_6  and  C_8
REMARK    7  A    between atoms: C_8  and  C_9
REMARK                            x       y       z     vdW  Elec       q    Type
REMARK                         _______ _______ _______ _____ _____    ______ ____
ROOT
ATOM      1  C   UNL     1      -8.242  11.169   7.004  0.00  0.00    +0.000 C 
ATOM      2  H   UNL     1      -7.186  11.052   7.277  0.00  0.00    +0.000 HD
ATOM      3  H   UNL     1      -8.528  12.200   7.245  0.00  0.00    +0.000 HD
ENDROOT
BRANCH   1   4
ATOM      4  C   UNL     1      -9.097  10.196   7.821  0.00  0.00    +0.000 C 
ATOM      5  H   UNL     1      -9.994   9.926   7.250  0.00  0.00    +0.000 HD
ATOM      6  H   UNL     1      -9.436  10.690   8.741  0.00  0.00    +0.000 HD
BRANCH   4   7
ATOM      7  C   UNL     1      -8.314   8.933   8.179  0.00  0.00    +0.000 C 
ATOM      8  H   UNL     1      -7.328   8.958   7.700  0.00  0.00    +0.000 HD
ATOM      9  H   UNL     1      -8.838   8.050   7.798  0.00  0.00    +0.000 HD
BRANCH   7  10
ATOM     10  C   UNL     1      -8.132   8.798   9.682  0.00  0.00    +0.000 C 
ATOM     11  H   UNL     1      -9.073   8.984  10.210  0.00  0.00    +0.000 HD
ATOM     12  H   UNL     1      -7.385   9.507  10.053  0.00  0.00    +0.000 HD
ATOM     13  H   UNL     1      -7.795   7.787   9.934  0.00  0.00    +0.000 HD
ENDBRANCH   7  10
ENDBRANCH   4   7
ENDBRANCH   1   4
BRANCH   1  14
ATOM     14  C   UNL     1      -8.414  10.930   5.501  0.00  0.00    +0.000 C 
ATOM     15  H   UNL     1      -8.475   9.853   5.306  0.00  0.00    +0.000 HD
ATOM     16  H   UNL     1      -9.369  11.362   5.175  0.00  0.00    +0.000 HD
BRANCH  14  17
ATOM     17  C   UNL     1      -7.279  11.533   4.681  0.00  0.00    +0.000 C 
ATOM     18  H   UNL     1      -6.315  11.168   5.052  0.00  0.00    +0.000 HD
ATOM     19  H   UNL     1      -7.381  11.236   3.632  0.00  0.00    +0.000 HD
BRANCH  17  21
ATOM     20  O   UNL     1      -8.178  13.723   4.297  0.00  0.00    +0.000 OA
ATOM     21  C   UNL     1      -7.246  13.048   4.737  0.00  0.00    +0.000 C 
BRANCH  21  22
ATOM     22  C   UNL     1      -6.042  13.697   5.365  0.00  0.00    +0.000 C 
ATOM     23  H   UNL     1      -5.366  12.928   5.750  0.00  0.00    +0.000 HD
ATOM     24  H   UNL     1      -5.514  14.291   4.616  0.00  0.00    +0.000 HD
ATOM     25  H   UNL     1      -6.361  14.333   6.195  0.00  0.00    +0.000 HD
ENDBRANCH  21  22
ENDBRANCH  17  21
ENDBRANCH  14  17
ENDBRANCH   1  14
TORSDOF 7
ENDMDL
MODEL 10
REMARK VINA RESULT:    -3.666     18.096     19.393
REMARK INTER + INTRA:          -5.366
REMARK INTER:                  -4.952
REMARK INTRA:                  -0.413
REMARK UNBOUND:                -0.413
REMARK  Name = 8093
REMARK  7 active torsions:
REMARK  status: ('A' for Active; 'I' for Inactive)
REMARK    1  A    between atoms: C_2  and  C_3
REMARK    2  A    between atoms: C_2  and  C_4
REMARK    3  A    between atoms: C_3  and  C_5
REMARK    4  A    between atoms: C_4  and  C_6
REMARK    5  A    between atoms: C_5  and  C_7
REMARK    6  A    between atoms: C_6  and  C_8
REMARK    7  A    between atoms: C_8  and  C_9
REMARK                            x       y       z     vdW  Elec       q    Type
REMARK                         _______ _______ _______ _____ _____    ______ ____
ROOT
ATOM      1  C   UNL     1      -8.548  12.295   4.532  0.00  0.00    +0.000 C 
ATOM      2  H   UNL     1      -8.798  11.952   3.522  0.00  0.00    +0.000 HD
ATOM      3  H   UNL     1      -8.814  13.358   4.589  0.00  0.00    +0.000 HD
ENDROOT
BRANCH   1   4
ATOM      4  C   UNL     1      -7.046  12.130   4.777  0.00  0.00    +0.000 C 
ATOM      5  H   UNL     1      -6.568  11.727   3.875  0.00  0.00    +0.000 HD
ATOM      6  H   UNL     1      -6.884  11.401   5.581  0.00  0.00    +0.000 HD
BRANCH   4   7
ATOM      7  C   UNL     1      -6.394  13.460   5.155  0.00  0.00    +0.000 C 
ATOM      8  H   UNL     1      -6.917  14.285   4.658  0.00  0.00    +0.000 HD
ATOM      9  H   UNL     1      -5.355  13.477   4.809  0.00  0.00    +0.000 HD
BRANCH   7  10
ATOM     10  C   UNL     1      -6.424  13.687   6.658  0.00  0.00    +0.000 C 
ATOM     11  H   UNL     1      -5.413  13.817   7.056  0.00  0.00    +0.000 HD
ATOM     12  H   UNL     1      -6.889  12.841   7.174  0.00  0.00    +0.000 HD
ATOM     13  H   UNL     1      -7.001  14.587   6.894  0.00  0.00    +0.000 HD
ENDBRANCH   7  10
ENDBRANCH   4   7
ENDBRANCH   1   4
BRANCH   1  14
ATOM     14  C   UNL     1      -9.368  11.510   5.560  0.00  0.00    +0.000 C 
ATOM     15  H   UNL     1      -9.867  12.209   6.242  0.00  0.00    +0.000 HD
ATOM     16  H   UNL     1     -10.162  10.958   5.042  0.00  0.00    +0.000 HD
BRANCH  14  17
ATOM     17  C   UNL     1      -8.515  10.535   6.365  0.00  0.00    +0.000 C 
ATOM     18  H   UNL     1      -8.803   9.504   6.129  0.00  0.00    +0.000 HD
ATOM     19  H   UNL     1      -7.458  10.667   6.106  0.00  0.00    +0.000 HD
BRANCH  17  21
ATOM     20  O   UNL     1      -8.949  11.814   8.346  0.00  0.00    +0.000 OA
ATOM     21  C   UNL     1      -8.657  10.719   7.863  0.00  0.00    +0.000 C 
BRANCH  21  22
ATOM     22  C   UNL     1      -8.446   9.511   8.737  0.00  0.00    +0.000 C 
ATOM     23  H   UNL     1      -8.417   8.609   8.120  0.00  0.00    +0.000 HD
ATOM     24  H   UNL     1      -7.497   9.608   9.270  0.00  0.00    +0.000 HD
ATOM     25  H   UNL     1      -9.272   9.427   9.447  0.00  0.00    +0.000 HD
ENDBRANCH  21  22
ENDBRANCH  17  21
ENDBRANCH  14  17
ENDBRANCH   1  14
TORSDOF 7
ENDMDL
