MODEL 1
REMARK VINA RESULT:    -4.391      0.000      0.000
REMARK INTER + INTRA:          -6.280
REMARK INTER:                  -5.808
REMARK INTRA:                  -0.472
REMARK UNBOUND:                -0.220
REMARK  Name = 20083
REMARK  8 active torsions:
REMARK  status: ('A' for Active; 'I' for Inactive)
REMARK    1  A    between atoms: O_1  and  C_6
REMARK    2  A    between atoms: C_2  and  C_3
REMARK    3  A    between atoms: C_2  and  C_4
REMARK    4  A    between atoms: C_3  and  C_5
REMARK    5  A    between atoms: C_4  and  C_6
REMARK    6  A    between atoms: C_5  and  C_7
REMARK    7  A    between atoms: C_6  and  C_8
REMARK    8  A    between atoms: C_7  and  C_9
REMARK                            x       y       z     vdW  Elec       q    Type
REMARK                         _______ _______ _______ _____ _____    ______ ____
ROOT
ATOM      1  C   UNL     1       5.694   9.100   0.192  0.00  0.00    +0.000 C 
ATOM      2  H   UNL     1       5.920   8.503  -0.700  0.00  0.00    +0.000 HD
ATOM      3  H   UNL     1       5.872   8.461   1.065  0.00  0.00    +0.000 HD
ENDROOT
BRANCH   1   4
ATOM      4  C   UNL     1       4.218   9.503   0.181  0.00  0.00    +0.000 C 
ATOM      5  H   UNL     1       3.635   8.772   0.755  0.00  0.00    +0.000 HD
ATOM      6  H   UNL     1       3.843   9.465  -0.850  0.00  0.00    +0.000 HD
BRANCH   4   7
ATOM      7  C   UNL     1       3.964  10.902   0.750  0.00  0.00    +0.000 C 
ATOM      8  H   UNL     1       3.383  10.814   1.676  0.00  0.00    +0.000 HD
ATOM      9  H   UNL     1       4.927  11.353   1.023  0.00  0.00    +0.000 HD
BRANCH   7  10
ATOM     10  C   UNL     1       3.235  11.831  -0.222  0.00  0.00    +0.000 C 
ATOM     11  H   UNL     1       2.225  12.040   0.151  0.00  0.00    +0.000 HD
ATOM     12  H   UNL     1       3.763  12.790  -0.284  0.00  0.00    +0.000 HD
BRANCH  10  13
ATOM     13  C   UNL     1       3.137  11.217  -1.610  0.00  0.00    +0.000 C 
ATOM     14  H   UNL     1       2.092  11.123  -1.924  0.00  0.00    +0.000 HD
ATOM     15  H   UNL     1       3.657  11.845  -2.339  0.00  0.00    +0.000 HD
ATOM     16  H   UNL     1       3.594  10.222  -1.631  0.00  0.00    +0.000 HD
ENDBRANCH  10  13
ENDBRANCH   7  10
ENDBRANCH   4   7
ENDBRANCH   1   4
BRANCH   1  17
ATOM     17  C   UNL     1       6.605  10.332   0.236  0.00  0.00    +0.000 C 
ATOM     18  H   UNL     1       6.006  11.227   0.441  0.00  0.00    +0.000 HD
ATOM     19  H   UNL     1       7.312  10.210   1.067  0.00  0.00    +0.000 HD
BRANCH  17  20
ATOM     20  C   UNL     1       7.386  10.519  -1.068  0.00  0.00    +0.000 C 
ATOM     21  H   UNL     1       8.308  11.083  -0.884  0.00  0.00    +0.000 HD
BRANCH  20  22
ATOM     22  C   UNL     1       7.742   9.179  -1.695  0.00  0.00    +0.000 C 
ATOM     23  H   UNL     1       7.000   8.421  -1.420  0.00  0.00    +0.000 HD
ATOM     24  H   UNL     1       8.709   8.818  -1.329  0.00  0.00    +0.000 HD
ATOM     25  H   UNL     1       7.783   9.248  -2.786  0.00  0.00    +0.000 HD
ENDBRANCH  20  22
BRANCH  20  26
ATOM     26  O   UNL     1       6.590  11.262  -1.988  0.00  0.00    +0.000 OA
ATOM     27  H   UNL     1       7.056  11.278  -2.840  0.00  0.00    +0.000 HD
ENDBRANCH  20  26
ENDBRANCH  17  20
ENDBRANCH   1  17
TORSDOF 8
ENDMDL
MODEL 2
REMARK VINA RESULT:    -4.377     12.049     12.937
REMARK INTER + INTRA:          -6.260
REMARK INTER:                  -5.920
REMARK INTRA:                  -0.340
REMARK UNBOUND:                -0.220
REMARK  Name = 20083
REMARK  8 active torsions:
REMARK  status: ('A' for Active; 'I' for Inactive)
REMARK    1  A    between atoms: O_1  and  C_6
REMARK    2  A    between atoms: C_2  and  C_3
REMARK    3  A    between atoms: C_2  and  C_4
REMARK    4  A    between atoms: C_3  and  C_5
REMARK    5  A    between atoms: C_4  and  C_6
REMARK    6  A    between atoms: C_5  and  C_7
REMARK    7  A    between atoms: C_6  and  C_8
REMARK    8  A    between atoms: C_7  and  C_9
REMARK                            x       y       z     vdW  Elec       q    Type
REMARK                         _______ _______ _______ _____ _____    ______ ____
ROOT
ATOM      1  C   UNL     1      -1.359   9.901 -10.297  0.00  0.00    +0.000 C 
ATOM      2  H   UNL     1      -0.668   9.198  -9.816  0.00  0.00    +0.000 HD
ATOM      3  H   UNL     1      -0.993  10.912 -10.088  0.00  0.00    +0.000 HD
ENDROOT
BRANCH   1   4
ATOM      4  C   UNL     1      -2.753   9.754  -9.684  0.00  0.00    +0.000 C 
ATOM      5  H   UNL     1      -3.496   9.657 -10.487  0.00  0.00    +0.000 HD
ATOM      6  H   UNL     1      -3.002  10.670  -9.134  0.00  0.00    +0.000 HD
BRANCH   4   7
ATOM      7  C   UNL     1      -2.880   8.557  -8.739  0.00  0.00    +0.000 C 
ATOM      8  H   UNL     1      -1.963   8.469  -8.143  0.00  0.00    +0.000 HD
ATOM      9  H   UNL     1      -3.698   8.748  -8.032  0.00  0.00    +0.000 HD
BRANCH   7  10
ATOM     10  C   UNL     1      -3.144   7.235  -9.462  0.00  0.00    +0.000 C 
ATOM     11  H   UNL     1      -3.347   7.426 -10.522  0.00  0.00    +0.000 HD
ATOM     12  H   UNL     1      -2.251   6.601  -9.411  0.00  0.00    +0.000 HD
BRANCH  10  13
ATOM     13  C   UNL     1      -4.326   6.496  -8.853  0.00  0.00    +0.000 C 
ATOM     14  H   UNL     1      -4.887   7.145  -8.173  0.00  0.00    +0.000 HD
ATOM     15  H   UNL     1      -5.008   6.160  -9.641  0.00  0.00    +0.000 HD
ATOM     16  H   UNL     1      -3.993   5.616  -8.294  0.00  0.00    +0.000 HD
ENDBRANCH  10  13
ENDBRANCH   7  10
ENDBRANCH   4   7
ENDBRANCH   1   4
BRANCH   1  17
ATOM     17  C   UNL     1      -1.388   9.644 -11.809  0.00  0.00    +0.000 C 
ATOM     18  H   UNL     1      -2.421   9.481 -12.135  0.00  0.00    +0.000 HD
ATOM     19  H   UNL     1      -1.017  10.543 -12.319  0.00  0.00    +0.000 HD
BRANCH  17  20
ATOM     20  C   UNL     1      -0.523   8.444 -12.207  0.00  0.00    +0.000 C 
ATOM     21  H   UNL     1       0.094   8.119 -11.361  0.00  0.00    +0.000 HD
BRANCH  20  22
ATOM     22  C   UNL     1      -1.381   7.276 -12.672  0.00  0.00    +0.000 C 
ATOM     23  H   UNL     1      -0.854   6.698 -13.439  0.00  0.00    +0.000 HD
ATOM     24  H   UNL     1      -2.311   7.630 -13.131  0.00  0.00    +0.000 HD
ATOM     25  H   UNL     1      -1.630   6.610 -11.842  0.00  0.00    +0.000 HD
ENDBRANCH  20  22
BRANCH  20  26
ATOM     26  O   UNL     1       0.349   8.827 -13.267  0.00  0.00    +0.000 OA
ATOM     27  H   UNL     1       1.251   8.567 -13.020  0.00  0.00    +0.000 HD
ENDBRANCH  20  26
ENDBRANCH  17  20
ENDBRANCH   1  17
TORSDOF 8
ENDMDL
MODEL 3
REMARK VINA RESULT:    -4.287      1.955      4.154
REMARK INTER + INTRA:          -6.136
REMARK INTER:                  -5.768
REMARK INTRA:                  -0.368
REMARK UNBOUND:                -0.220
REMARK  Name = 20083
REMARK  8 active torsions:
REMARK  status: ('A' for Active; 'I' for Inactive)
REMARK    1  A    between atoms: O_1  and  C_6
REMARK    2  A    between atoms: C_2  and  C_3
REMARK    3  A    between atoms: C_2  and  C_4
REMARK    4  A    between atoms: C_3  and  C_5
REMARK    5  A    between atoms: C_4  and  C_6
REMARK    6  A    between atoms: C_5  and  C_7
REMARK    7  A    between atoms: C_6  and  C_8
REMARK    8  A    between atoms: C_7  and  C_9
REMARK                            x       y       z     vdW  Elec       q    Type
REMARK                         _______ _______ _______ _____ _____    ______ ____
ROOT
ATOM      1  C   UNL     1       6.255  11.132  -0.970  0.00  0.00    +0.000 C 
ATOM      2  H   UNL     1       5.564  10.447  -1.477  0.00  0.00    +0.000 HD
ATOM      3  H   UNL     1       6.510  11.925  -1.682  0.00  0.00    +0.000 HD
ENDROOT
BRANCH   1   4
ATOM      4  C   UNL     1       7.537  10.386  -0.595  0.00  0.00    +0.000 C 
ATOM      5  H   UNL     1       7.798  10.610   0.447  0.00  0.00    +0.000 HD
ATOM      6  H   UNL     1       8.363  10.760  -1.214  0.00  0.00    +0.000 HD
BRANCH   4   7
ATOM      7  C   UNL     1       7.433   8.869  -0.768  0.00  0.00    +0.000 C 
ATOM      8  H   UNL     1       6.933   8.649  -1.720  0.00  0.00    +0.000 HD
ATOM      9  H   UNL     1       8.445   8.450  -0.839  0.00  0.00    +0.000 HD
BRANCH   7  10
ATOM     10  C   UNL     1       6.684   8.176   0.371  0.00  0.00    +0.000 C 
ATOM     11  H   UNL     1       5.610   8.375   0.284  0.00  0.00    +0.000 HD
ATOM     12  H   UNL     1       6.821   7.091   0.298  0.00  0.00    +0.000 HD
BRANCH  10  13
ATOM     13  C   UNL     1       7.172   8.658   1.729  0.00  0.00    +0.000 C 
ATOM     14  H   UNL     1       6.620   8.170   2.539  0.00  0.00    +0.000 HD
ATOM     15  H   UNL     1       8.234   8.426   1.853  0.00  0.00    +0.000 HD
ATOM     16  H   UNL     1       7.046   9.741   1.829  0.00  0.00    +0.000 HD
ENDBRANCH  10  13
ENDBRANCH   7  10
ENDBRANCH   4   7
ENDBRANCH   1   4
BRANCH   1  17
ATOM     17  C   UNL     1       5.576  11.726   0.271  0.00  0.00    +0.000 C 
ATOM     18  H   UNL     1       5.796  11.103   1.145  0.00  0.00    +0.000 HD
ATOM     19  H   UNL     1       6.005  12.720   0.457  0.00  0.00    +0.000 HD
BRANCH  17  20
ATOM     20  C   UNL     1       4.060  11.854   0.094  0.00  0.00    +0.000 C 
ATOM     21  H   UNL     1       3.775  12.908  -0.009  0.00  0.00    +0.000 HD
BRANCH  20  22
ATOM     22  C   UNL     1       3.581  11.089  -1.132  0.00  0.00    +0.000 C 
ATOM     23  H   UNL     1       2.487  11.094  -1.180  0.00  0.00    +0.000 HD
ATOM     24  H   UNL     1       3.888  10.038  -1.083  0.00  0.00    +0.000 HD
ATOM     25  H   UNL     1       3.974  11.527  -2.054  0.00  0.00    +0.000 HD
ENDBRANCH  20  22
BRANCH  20  26
ATOM     26  O   UNL     1       3.409  11.331   1.248  0.00  0.00    +0.000 OA
ATOM     27  H   UNL     1       3.764  11.792   2.025  0.00  0.00    +0.000 HD
ENDBRANCH  20  26
ENDBRANCH  17  20
ENDBRANCH   1  17
TORSDOF 8
ENDMDL
MODEL 4
REMARK VINA RESULT:    -4.241      2.718      4.479
REMARK INTER + INTRA:          -6.073
REMARK INTER:                  -5.752
REMARK INTRA:                  -0.321
REMARK UNBOUND:                -0.220
REMARK  Name = 20083
REMARK  8 active torsions:
REMARK  status: ('A' for Active; 'I' for Inactive)
REMARK    1  A    between atoms: O_1  and  C_6
REMARK    2  A    between atoms: C_2  and  C_3
REMARK    3  A    between atoms: C_2  and  C_4
REMARK    4  A    between atoms: C_3  and  C_5
REMARK    5  A    between atoms: C_4  and  C_6
REMARK    6  A    between atoms: C_5  and  C_7
REMARK    7  A    between atoms: C_6  and  C_8
REMARK    8  A    between atoms: C_7  and  C_9
REMARK                            x       y       z     vdW  Elec       q    Type
REMARK                         _______ _______ _______ _____ _____    ______ ____
ROOT
ATOM      1  C   UNL     1       5.392   8.731   0.203  0.00  0.00    +0.000 C 
ATOM      2  H   UNL     1       4.872   7.874  -0.242  0.00  0.00    +0.000 HD
ATOM      3  H   UNL     1       5.767   9.349  -0.621  0.00  0.00    +0.000 HD
ENDROOT
BRANCH   1   4
ATOM      4  C   UNL     1       6.587   8.240   1.023  0.00  0.00    +0.000 C 
ATOM      5  H   UNL     1       7.472   8.838   0.773  0.00  0.00    +0.000 HD
ATOM      6  H   UNL     1       6.815   7.204   0.739  0.00  0.00    +0.000 HD
BRANCH   4   7
ATOM      7  C   UNL     1       6.354   8.300   2.535  0.00  0.00    +0.000 C 
ATOM      8  H   UNL     1       7.190   8.831   3.007  0.00  0.00    +0.000 HD
ATOM      9  H   UNL     1       5.452   8.893   2.731  0.00  0.00    +0.000 HD
BRANCH   7  10
ATOM     10  C   UNL     1       6.196   6.923   3.181  0.00  0.00    +0.000 C 
ATOM     11  H   UNL     1       6.397   6.140   2.441  0.00  0.00    +0.000 HD
ATOM     12  H   UNL     1       6.932   6.805   3.985  0.00  0.00    +0.000 HD
BRANCH  10  13
ATOM     13  C   UNL     1       4.796   6.731   3.744  0.00  0.00    +0.000 C 
ATOM     14  H   UNL     1       4.474   7.615   4.303  0.00  0.00    +0.000 HD
ATOM     15  H   UNL     1       4.082   6.563   2.931  0.00  0.00    +0.000 HD
ATOM     16  H   UNL     1       4.758   5.866   4.413  0.00  0.00    +0.000 HD
ENDBRANCH  10  13
ENDBRANCH   7  10
ENDBRANCH   4   7
ENDBRANCH   1   4
BRANCH   1  17
ATOM     17  C   UNL     1       4.416   9.534   1.072  0.00  0.00    +0.000 C 
ATOM     18  H   UNL     1       3.461   9.003   1.141  0.00  0.00    +0.000 HD
ATOM     19  H   UNL     1       4.831   9.602   2.086  0.00  0.00    +0.000 HD
BRANCH  17  20
ATOM     20  C   UNL     1       4.185  10.947   0.525  0.00  0.00    +0.000 C 
ATOM     21  H   UNL     1       5.088  11.556   0.646  0.00  0.00    +0.000 HD
BRANCH  20  22
ATOM     22  C   UNL     1       3.803  10.912  -0.948  0.00  0.00    +0.000 C 
ATOM     23  H   UNL     1       3.216  10.015  -1.169  0.00  0.00    +0.000 HD
ATOM     24  H   UNL     1       4.695  10.868  -1.584  0.00  0.00    +0.000 HD
ATOM     25  H   UNL     1       3.216  11.792  -1.228  0.00  0.00    +0.000 HD
ENDBRANCH  20  22
BRANCH  20  26
ATOM     26  O   UNL     1       3.132  11.566   1.260  0.00  0.00    +0.000 OA
ATOM     27  H   UNL     1       3.519  12.287   1.782  0.00  0.00    +0.000 HD
ENDBRANCH  20  26
ENDBRANCH  17  20
ENDBRANCH   1  17
TORSDOF 8
ENDMDL
MODEL 5
REMARK VINA RESULT:    -4.229     12.343     13.685
REMARK INTER + INTRA:          -6.055
REMARK INTER:                  -5.633
REMARK INTRA:                  -0.422
REMARK UNBOUND:                -0.220
REMARK  Name = 20083
REMARK  8 active torsions:
REMARK  status: ('A' for Active; 'I' for Inactive)
REMARK    1  A    between atoms: O_1  and  C_6
REMARK    2  A    between atoms: C_2  and  C_3
REMARK    3  A    between atoms: C_2  and  C_4
REMARK    4  A    between atoms: C_3  and  C_5
REMARK    5  A    between atoms: C_4  and  C_6
REMARK    6  A    between atoms: C_5  and  C_7
REMARK    7  A    between atoms: C_6  and  C_8
REMARK    8  A    between atoms: C_7  and  C_9
REMARK                            x       y       z     vdW  Elec       q    Type
REMARK                         _______ _______ _______ _____ _____    ______ ____
ROOT
ATOM      1  C   UNL     1      -2.915   6.759 -10.048  0.00  0.00    +0.000 C 
ATOM      2  H   UNL     1      -2.779   5.720  -9.723  0.00  0.00    +0.000 HD
ATOM      3  H   UNL     1      -1.931   7.140 -10.343  0.00  0.00    +0.000 HD
ENDROOT
BRANCH   1   4
ATOM      4  C   UNL     1      -3.431   7.602  -8.880  0.00  0.00    +0.000 C 
ATOM      5  H   UNL     1      -3.362   7.020  -7.952  0.00  0.00    +0.000 HD
ATOM      6  H   UNL     1      -4.496   7.819  -9.038  0.00  0.00    +0.000 HD
BRANCH   4   7
ATOM      7  C   UNL     1      -2.676   8.921  -8.700  0.00  0.00    +0.000 C 
ATOM      8  H   UNL     1      -3.083   9.454  -7.832  0.00  0.00    +0.000 HD
ATOM      9  H   UNL     1      -1.626   8.700  -8.471  0.00  0.00    +0.000 HD
BRANCH   7  10
ATOM     10  C   UNL     1      -2.738   9.830  -9.929  0.00  0.00    +0.000 C 
ATOM     11  H   UNL     1      -3.392   9.384 -10.688  0.00  0.00    +0.000 HD
ATOM     12  H   UNL     1      -3.174  10.797  -9.652  0.00  0.00    +0.000 HD
BRANCH  10  13
ATOM     13  C   UNL     1      -1.357  10.050 -10.527  0.00  0.00    +0.000 C 
ATOM     14  H   UNL     1      -0.583  10.000  -9.755  0.00  0.00    +0.000 HD
ATOM     15  H   UNL     1      -1.142   9.280 -11.274  0.00  0.00    +0.000 HD
ATOM     16  H   UNL     1      -1.293  11.026 -11.017  0.00  0.00    +0.000 HD
ENDBRANCH  10  13
ENDBRANCH   7  10
ENDBRANCH   4   7
ENDBRANCH   1   4
BRANCH   1  17
ATOM     17  C   UNL     1      -3.884   6.805 -11.236  0.00  0.00    +0.000 C 
ATOM     18  H   UNL     1      -4.387   5.837 -11.341  0.00  0.00    +0.000 HD
ATOM     19  H   UNL     1      -4.655   7.557 -11.024  0.00  0.00    +0.000 HD
BRANCH  17  20
ATOM     20  C   UNL     1      -3.175   7.165 -12.546  0.00  0.00    +0.000 C 
ATOM     21  H   UNL     1      -3.307   8.229 -12.773  0.00  0.00    +0.000 HD
BRANCH  20  22
ATOM     22  C   UNL     1      -1.686   6.855 -12.470  0.00  0.00    +0.000 C 
ATOM     23  H   UNL     1      -1.495   5.823 -12.783  0.00  0.00    +0.000 HD
ATOM     24  H   UNL     1      -1.319   6.943 -11.441  0.00  0.00    +0.000 HD
ATOM     25  H   UNL     1      -1.107   7.528 -13.108  0.00  0.00    +0.000 HD
ENDBRANCH  20  22
BRANCH  20  26
ATOM     26  O   UNL     1      -3.749   6.411 -13.610  0.00  0.00    +0.000 OA
ATOM     27  H   UNL     1      -4.610   6.805 -13.823  0.00  0.00    +0.000 HD
ENDBRANCH  20  26
ENDBRANCH  17  20
ENDBRANCH   1  17
TORSDOF 8
ENDMDL
MODEL 6
REMARK VINA RESULT:    -4.190      1.788      2.480
REMARK INTER + INTRA:          -6.002
REMARK INTER:                  -5.714
REMARK INTRA:                  -0.288
REMARK UNBOUND:                -0.220
REMARK  Name = 20083
REMARK  8 active torsions:
REMARK  status: ('A' for Active; 'I' for Inactive)
REMARK    1  A    between atoms: O_1  and  C_6
REMARK    2  A    between atoms: C_2  and  C_3
REMARK    3  A    between atoms: C_2  and  C_4
REMARK    4  A    between atoms: C_3  and  C_5
REMARK    5  A    between atoms: C_4  and  C_6
REMARK    6  A    between atoms: C_5  and  C_7
REMARK    7  A    between atoms: C_6  and  C_8
REMARK    8  A    between atoms: C_7  and  C_9
REMARK                            x       y       z     vdW  Elec       q    Type
REMARK                         _______ _______ _______ _____ _____    ______ ____
ROOT
ATOM      1  C   UNL     1       6.659  11.025  -1.252  0.00  0.00    +0.000 C 
ATOM      2  H   UNL     1       7.444  11.710  -1.595  0.00  0.00    +0.000 HD
ATOM      3  H   UNL     1       5.984  10.854  -2.098  0.00  0.00    +0.000 HD
ENDROOT
BRANCH   1   4
ATOM      4  C   UNL     1       5.862  11.678  -0.121  0.00  0.00    +0.000 C 
ATOM      5  H   UNL     1       5.988  12.768  -0.168  0.00  0.00    +0.000 HD
ATOM      6  H   UNL     1       6.276  11.355   0.843  0.00  0.00    +0.000 HD
BRANCH   4   7
ATOM      7  C   UNL     1       4.369  11.346  -0.157  0.00  0.00    +0.000 C 
ATOM      8  H   UNL     1       3.792  12.279  -0.170  0.00  0.00    +0.000 HD
ATOM      9  H   UNL     1       4.145  10.822  -1.095  0.00  0.00    +0.000 HD
BRANCH   7  10
ATOM     10  C   UNL     1       3.909  10.482   1.019  0.00  0.00    +0.000 C 
ATOM     11  H   UNL     1       4.613  10.585   1.853  0.00  0.00    +0.000 HD
ATOM     12  H   UNL     1       2.932  10.829   1.374  0.00  0.00    +0.000 HD
BRANCH  10  13
ATOM     13  C   UNL     1       3.814   9.015   0.626  0.00  0.00    +0.000 C 
ATOM     14  H   UNL     1       3.870   8.369   1.508  0.00  0.00    +0.000 HD
ATOM     15  H   UNL     1       2.863   8.820   0.120  0.00  0.00    +0.000 HD
ATOM     16  H   UNL     1       4.625   8.739  -0.056  0.00  0.00    +0.000 HD
ENDBRANCH  10  13
ENDBRANCH   7  10
ENDBRANCH   4   7
ENDBRANCH   1   4
BRANCH   1  17
ATOM     17  C   UNL     1       7.289   9.704  -0.795  0.00  0.00    +0.000 C 
ATOM     18  H   UNL     1       7.578   9.778   0.259  0.00  0.00    +0.000 HD
ATOM     19  H   UNL     1       6.532   8.913  -0.876  0.00  0.00    +0.000 HD
BRANCH  17  20
ATOM     20  C   UNL     1       8.509   9.323  -1.640  0.00  0.00    +0.000 C 
ATOM     21  H   UNL     1       8.361   9.626  -2.683  0.00  0.00    +0.000 HD
BRANCH  20  22
ATOM     22  C   UNL     1       9.775   9.981  -1.108  0.00  0.00    +0.000 C 
ATOM     23  H   UNL     1      10.308  10.492  -1.917  0.00  0.00    +0.000 HD
ATOM     24  H   UNL     1      10.466   9.232  -0.703  0.00  0.00    +0.000 HD
ATOM     25  H   UNL     1       9.547  10.709  -0.324  0.00  0.00    +0.000 HD
ENDBRANCH  20  22
BRANCH  20  26
ATOM     26  O   UNL     1       8.677   7.909  -1.609  0.00  0.00    +0.000 OA
ATOM     27  H   UNL     1       9.511   7.698  -2.059  0.00  0.00    +0.000 HD
ENDBRANCH  20  26
ENDBRANCH  17  20
ENDBRANCH   1  17
TORSDOF 8
ENDMDL
MODEL 7
REMARK VINA RESULT:    -4.180      2.971      3.746
REMARK INTER + INTRA:          -5.989
REMARK INTER:                  -5.709
REMARK INTRA:                  -0.280
REMARK UNBOUND:                -0.220
REMARK  Name = 20083
REMARK  8 active torsions:
REMARK  status: ('A' for Active; 'I' for Inactive)
REMARK    1  A    between atoms: O_1  and  C_6
REMARK    2  A    between atoms: C_2  and  C_3
REMARK    3  A    between atoms: C_2  and  C_4
REMARK    4  A    between atoms: C_3  and  C_5
REMARK    5  A    between atoms: C_4  and  C_6
REMARK    6  A    between atoms: C_5  and  C_7
REMARK    7  A    between atoms: C_6  and  C_8
REMARK    8  A    between atoms: C_7  and  C_9
REMARK                            x       y       z     vdW  Elec       q    Type
REMARK                         _______ _______ _______ _____ _____    ______ ____
ROOT
ATOM      1  C   UNL     1       5.209   8.753   0.645  0.00  0.00    +0.000 C 
ATOM      2  H   UNL     1       5.946   9.292   0.038  0.00  0.00    +0.000 HD
ATOM      3  H   UNL     1       5.105   7.749   0.216  0.00  0.00    +0.000 HD
ENDROOT
BRANCH   1   4
ATOM      4  C   UNL     1       3.854   9.459   0.558  0.00  0.00    +0.000 C 
ATOM      5  H   UNL     1       3.153   8.991   1.260  0.00  0.00    +0.000 HD
ATOM      6  H   UNL     1       3.438   9.316  -0.447  0.00  0.00    +0.000 HD
BRANCH   4   7
ATOM      7  C   UNL     1       3.930  10.960   0.855  0.00  0.00    +0.000 C 
ATOM      8  H   UNL     1       3.496  11.153   1.844  0.00  0.00    +0.000 HD
ATOM      9  H   UNL     1       4.985  11.257   0.909  0.00  0.00    +0.000 HD
BRANCH   7  10
ATOM     10  C   UNL     1       3.220  11.823  -0.189  0.00  0.00    +0.000 C 
ATOM     11  H   UNL     1       2.176  11.979   0.107  0.00  0.00    +0.000 HD
ATOM     12  H   UNL     1       3.695  12.810  -0.238  0.00  0.00    +0.000 HD
BRANCH  10  13
ATOM     13  C   UNL     1       3.257  11.173  -1.564  0.00  0.00    +0.000 C 
ATOM     14  H   UNL     1       4.286  10.955  -1.867  0.00  0.00    +0.000 HD
ATOM     15  H   UNL     1       2.699  10.232  -1.553  0.00  0.00    +0.000 HD
ATOM     16  H   UNL     1       2.807  11.827  -2.318  0.00  0.00    +0.000 HD
ENDBRANCH  10  13
ENDBRANCH   7  10
ENDBRANCH   4   7
ENDBRANCH   1   4
BRANCH   1  17
ATOM     17  C   UNL     1       5.697   8.666   2.096  0.00  0.00    +0.000 C 
ATOM     18  H   UNL     1       6.619   8.077   2.141  0.00  0.00    +0.000 HD
ATOM     19  H   UNL     1       5.936   9.681   2.441  0.00  0.00    +0.000 HD
BRANCH  17  20
ATOM     20  C   UNL     1       4.644   8.052   3.024  0.00  0.00    +0.000 C 
ATOM     21  H   UNL     1       3.731   7.818   2.464  0.00  0.00    +0.000 HD
BRANCH  20  22
ATOM     22  C   UNL     1       5.162   6.780   3.680  0.00  0.00    +0.000 C 
ATOM     23  H   UNL     1       6.257   6.770   3.680  0.00  0.00    +0.000 HD
ATOM     24  H   UNL     1       4.841   5.892   3.124  0.00  0.00    +0.000 HD
ATOM     25  H   UNL     1       4.812   6.694   4.713  0.00  0.00    +0.000 HD
ENDBRANCH  20  22
BRANCH  20  26
ATOM     26  O   UNL     1       4.311   8.993   4.041  0.00  0.00    +0.000 OA
ATOM     27  H   UNL     1       5.085   9.560   4.187  0.00  0.00    +0.000 HD
ENDBRANCH  20  26
ENDBRANCH  17  20
ENDBRANCH   1  17
TORSDOF 8
ENDMDL
MODEL 8
REMARK VINA RESULT:    -4.044     29.566     30.344
REMARK INTER + INTRA:          -5.801
REMARK INTER:                  -5.547
REMARK INTRA:                  -0.254
REMARK UNBOUND:                -0.220
REMARK  Name = 20083
REMARK  8 active torsions:
REMARK  status: ('A' for Active; 'I' for Inactive)
REMARK    1  A    between atoms: O_1  and  C_6
REMARK    2  A    between atoms: C_2  and  C_3
REMARK    3  A    between atoms: C_2  and  C_4
REMARK    4  A    between atoms: C_3  and  C_5
REMARK    5  A    between atoms: C_4  and  C_6
REMARK    6  A    between atoms: C_5  and  C_7
REMARK    7  A    between atoms: C_6  and  C_8
REMARK    8  A    between atoms: C_7  and  C_9
REMARK                            x       y       z     vdW  Elec       q    Type
REMARK                         _______ _______ _______ _____ _____    ______ ____
ROOT
ATOM      1  C   UNL     1     -20.480  -2.318   6.366  0.00  0.00    +0.000 C 
ATOM      2  H   UNL     1     -19.444  -2.679   6.375  0.00  0.00    +0.000 HD
ATOM      3  H   UNL     1     -21.106  -3.115   6.783  0.00  0.00    +0.000 HD
ENDROOT
BRANCH   1   4
ATOM      4  C   UNL     1     -20.923  -2.059   4.924  0.00  0.00    +0.000 C 
ATOM      5  H   UNL     1     -20.350  -1.218   4.512  0.00  0.00    +0.000 HD
ATOM      6  H   UNL     1     -21.977  -1.753   4.922  0.00  0.00    +0.000 HD
BRANCH   4   7
ATOM      7  C   UNL     1     -20.756  -3.273   4.007  0.00  0.00    +0.000 C 
ATOM      8  H   UNL     1     -21.719  -3.502   3.533  0.00  0.00    +0.000 HD
ATOM      9  H   UNL     1     -20.060  -3.014   3.199  0.00  0.00    +0.000 HD
BRANCH   7  10
ATOM     10  C   UNL     1     -20.239  -4.516   4.732  0.00  0.00    +0.000 C 
ATOM     11  H   UNL     1     -19.912  -4.247   5.743  0.00  0.00    +0.000 HD
ATOM     12  H   UNL     1     -21.049  -5.248   4.836  0.00  0.00    +0.000 HD
BRANCH  10  13
ATOM     13  C   UNL     1     -19.075  -5.151   3.985  0.00  0.00    +0.000 C 
ATOM     14  H   UNL     1     -18.517  -4.399   3.418  0.00  0.00    +0.000 HD
ATOM     15  H   UNL     1     -18.387  -5.626   4.690  0.00  0.00    +0.000 HD
ATOM     16  H   UNL     1     -19.429  -5.917   3.288  0.00  0.00    +0.000 HD
ENDBRANCH  10  13
ENDBRANCH   7  10
ENDBRANCH   4   7
ENDBRANCH   1   4
BRANCH   1  17
ATOM     17  C   UNL     1     -20.593  -1.048   7.217  0.00  0.00    +0.000 C 
ATOM     18  H   UNL     1     -19.790  -1.031   7.963  0.00  0.00    +0.000 HD
ATOM     19  H   UNL     1     -20.454  -0.179   6.562  0.00  0.00    +0.000 HD
BRANCH  17  20
ATOM     20  C   UNL     1     -21.952  -0.941   7.917  0.00  0.00    +0.000 C 
ATOM     21  H   UNL     1     -22.729  -0.649   7.201  0.00  0.00    +0.000 HD
BRANCH  20  22
ATOM     22  C   UNL     1     -22.344  -2.262   8.564  0.00  0.00    +0.000 C 
ATOM     23  H   UNL     1     -21.882  -2.355   9.552  0.00  0.00    +0.000 HD
ATOM     24  H   UNL     1     -21.987  -3.111   7.970  0.00  0.00    +0.000 HD
ATOM     25  H   UNL     1     -23.429  -2.344   8.675  0.00  0.00    +0.000 HD
ENDBRANCH  20  22
BRANCH  20  26
ATOM     26  O   UNL     1     -21.880   0.062   8.926  0.00  0.00    +0.000 OA
ATOM     27  H   UNL     1     -21.195  -0.203   9.562  0.00  0.00    +0.000 HD
ENDBRANCH  20  26
ENDBRANCH  17  20
ENDBRANCH   1  17
TORSDOF 8
ENDMDL
MODEL 9
REMARK VINA RESULT:    -3.927     12.148     13.501
REMARK INTER + INTRA:          -5.639
REMARK INTER:                  -5.369
REMARK INTRA:                  -0.270
REMARK UNBOUND:                -0.220
REMARK  Name = 20083
REMARK  8 active torsions:
REMARK  status: ('A' for Active; 'I' for Inactive)
REMARK    1  A    between atoms: O_1  and  C_6
REMARK    2  A    between atoms: C_2  and  C_3
REMARK    3  A    between atoms: C_2  and  C_4
REMARK    4  A    between atoms: C_3  and  C_5
REMARK    5  A    between atoms: C_4  and  C_6
REMARK    6  A    between atoms: C_5  and  C_7
REMARK    7  A    between atoms: C_6  and  C_8
REMARK    8  A    between atoms: C_7  and  C_9
REMARK                            x       y       z     vdW  Elec       q    Type
REMARK                         _______ _______ _______ _____ _____    ______ ____
ROOT
ATOM      1  C   UNL     1      -1.352   9.823 -10.443  0.00  0.00    +0.000 C 
ATOM      2  H   UNL     1      -1.124  10.708  -9.837  0.00  0.00    +0.000 HD
ATOM      3  H   UNL     1      -0.812   8.977 -10.001  0.00  0.00    +0.000 HD
ENDROOT
BRANCH   1   4
ATOM      4  C   UNL     1      -0.842  10.030 -11.871  0.00  0.00    +0.000 C 
ATOM      5  H   UNL     1      -0.104  10.842 -11.881  0.00  0.00    +0.000 HD
ATOM      6  H   UNL     1      -1.677  10.354 -12.506  0.00  0.00    +0.000 HD
BRANCH   4   7
ATOM      7  C   UNL     1      -0.212   8.775 -12.481  0.00  0.00    +0.000 C 
ATOM      8  H   UNL     1       0.834   8.703 -12.156  0.00  0.00    +0.000 HD
ATOM      9  H   UNL     1      -0.727   7.891 -12.084  0.00  0.00    +0.000 HD
BRANCH   7  10
ATOM     10  C   UNL     1      -0.272   8.745 -14.009  0.00  0.00    +0.000 C 
ATOM     11  H   UNL     1      -0.082   7.726 -14.367  0.00  0.00    +0.000 HD
ATOM     12  H   UNL     1      -1.277   9.025 -14.345  0.00  0.00    +0.000 HD
BRANCH  10  13
ATOM     13  C   UNL     1       0.749   9.689 -14.624  0.00  0.00    +0.000 C 
ATOM     14  H   UNL     1       1.754   9.484 -14.239  0.00  0.00    +0.000 HD
ATOM     15  H   UNL     1       0.770   9.568 -15.711  0.00  0.00    +0.000 HD
ATOM     16  H   UNL     1       0.501  10.732 -14.403  0.00  0.00    +0.000 HD
ENDBRANCH  10  13
ENDBRANCH   7  10
ENDBRANCH   4   7
ENDBRANCH   1   4
BRANCH   1  17
ATOM     17  C   UNL     1      -2.863   9.560 -10.427  0.00  0.00    +0.000 C 
ATOM     18  H   UNL     1      -3.380  10.410  -9.968  0.00  0.00    +0.000 HD
ATOM     19  H   UNL     1      -3.211   9.481 -11.464  0.00  0.00    +0.000 HD
BRANCH  17  20
ATOM     20  C   UNL     1      -3.216   8.272  -9.675  0.00  0.00    +0.000 C 
ATOM     21  H   UNL     1      -4.303   8.187  -9.553  0.00  0.00    +0.000 HD
BRANCH  20  22
ATOM     22  C   UNL     1      -2.704   7.044 -10.414  0.00  0.00    +0.000 C 
ATOM     23  H   UNL     1      -3.483   6.641 -11.069  0.00  0.00    +0.000 HD
ATOM     24  H   UNL     1      -2.440   6.245  -9.712  0.00  0.00    +0.000 HD
ATOM     25  H   UNL     1      -1.825   7.283 -11.021  0.00  0.00    +0.000 HD
ENDBRANCH  20  22
BRANCH  20  26
ATOM     26  O   UNL     1      -2.626   8.310  -8.379  0.00  0.00    +0.000 OA
ATOM     27  H   UNL     1      -2.991   9.077  -7.909  0.00  0.00    +0.000 HD
ENDBRANCH  20  26
ENDBRANCH  17  20
ENDBRANCH   1  17
TORSDOF 8
ENDMDL
MODEL 10
REMARK VINA RESULT:    -3.903     28.757     29.751
REMARK INTER + INTRA:          -5.606
REMARK INTER:                  -5.386
REMARK INTRA:                  -0.220
REMARK UNBOUND:                -0.220
REMARK  Name = 20083
REMARK  8 active torsions:
REMARK  status: ('A' for Active; 'I' for Inactive)
REMARK    1  A    between atoms: O_1  and  C_6
REMARK    2  A    between atoms: C_2  and  C_3
REMARK    3  A    between atoms: C_2  and  C_4
REMARK    4  A    between atoms: C_3  and  C_5
REMARK    5  A    between atoms: C_4  and  C_6
REMARK    6  A    between atoms: C_5  and  C_7
REMARK    7  A    between atoms: C_6  and  C_8
REMARK    8  A    between atoms: C_7  and  C_9
REMARK                            x       y       z     vdW  Elec       q    Type
REMARK                         _______ _______ _______ _____ _____    ______ ____
ROOT
ATOM      1  C   UNL     1     -19.621  -4.886   4.410  0.00  0.00    +0.000 C 
ATOM      2  H   UNL     1     -19.297  -5.758   4.991  0.00  0.00    +0.000 HD
ATOM      3  H   UNL     1     -18.718  -4.382   4.048  0.00  0.00    +0.000 HD
ENDROOT
BRANCH   1   4
ATOM      4  C   UNL     1     -20.385  -3.919   5.316  0.00  0.00    +0.000 C 
ATOM      5  H   UNL     1     -19.791  -3.715   6.216  0.00  0.00    +0.000 HD
ATOM      6  H   UNL     1     -21.313  -4.399   5.653  0.00  0.00    +0.000 HD
BRANCH   4   7
ATOM      7  C   UNL     1     -20.733  -2.592   4.636  0.00  0.00    +0.000 C 
ATOM      8  H   UNL     1     -19.821  -2.157   4.208  0.00  0.00    +0.000 HD
ATOM      9  H   UNL     1     -21.410  -2.792   3.795  0.00  0.00    +0.000 HD
BRANCH   7  10
ATOM     10  C   UNL     1     -21.388  -1.579   5.575  0.00  0.00    +0.000 C 
ATOM     11  H   UNL     1     -22.202  -1.062   5.054  0.00  0.00    +0.000 HD
ATOM     12  H   UNL     1     -21.830  -2.100   6.432  0.00  0.00    +0.000 HD
BRANCH  10  13
ATOM     13  C   UNL     1     -20.382  -0.551   6.071  0.00  0.00    +0.000 C 
ATOM     14  H   UNL     1     -19.941   0.001   5.235  0.00  0.00    +0.000 HD
ATOM     15  H   UNL     1     -20.872   0.169   6.734  0.00  0.00    +0.000 HD
ATOM     16  H   UNL     1     -19.574  -1.032   6.631  0.00  0.00    +0.000 HD
ENDBRANCH  10  13
ENDBRANCH   7  10
ENDBRANCH   4   7
ENDBRANCH   1   4
BRANCH   1  17
ATOM     17  C   UNL     1     -20.488  -5.343   3.230  0.00  0.00    +0.000 C 
ATOM     18  H   UNL     1     -21.100  -6.200   3.532  0.00  0.00    +0.000 HD
ATOM     19  H   UNL     1     -21.172  -4.526   2.967  0.00  0.00    +0.000 HD
BRANCH  17  20
ATOM     20  C   UNL     1     -19.647  -5.713   2.005  0.00  0.00    +0.000 C 
ATOM     21  H   UNL     1     -20.133  -5.361   1.087  0.00  0.00    +0.000 HD
BRANCH  20  22
ATOM     22  C   UNL     1     -18.252  -5.109   2.090  0.00  0.00    +0.000 C 
ATOM     23  H   UNL     1     -18.237  -4.118   1.626  0.00  0.00    +0.000 HD
ATOM     24  H   UNL     1     -17.525  -5.721   1.545  0.00  0.00    +0.000 HD
ATOM     25  H   UNL     1     -17.923  -5.014   3.129  0.00  0.00    +0.000 HD
ENDBRANCH  20  22
BRANCH  20  26
ATOM     26  O   UNL     1     -19.531  -7.131   1.928  0.00  0.00    +0.000 OA
ATOM     27  H   UNL     1     -18.638  -7.373   2.220  0.00  0.00    +0.000 HD
ENDBRANCH  20  26
ENDBRANCH  17  20
ENDBRANCH   1  17
TORSDOF 8
ENDMDL
