MODEL 1
REMARK VINA RESULT:    -3.545      0.000      0.000
REMARK INTER + INTRA:          -4.220
REMARK INTER:                  -4.147
REMARK INTRA:                  -0.074
REMARK UNBOUND:                -0.054
REMARK  Name = 7895
REMARK  4 active torsions:
REMARK  status: ('A' for Active; 'I' for Inactive)
REMARK    1  A    between atoms: C_2  and  C_3
REMARK    2  A    between atoms: C_2  and  C_4
REMARK    3  A    between atoms: C_3  and  C_5
REMARK    4  A    between atoms: C_5  and  C_6
REMARK                            x       y       z     vdW  Elec       q    Type
REMARK                         _______ _______ _______ _____ _____    ______ ____
ROOT
ATOM      1  C   UNL     1       5.387  11.939   0.191  0.00  0.00    +0.000 C 
ATOM      2  H   UNL     1       5.597  12.322   1.196  0.00  0.00    +0.000 HD
ATOM      3  H   UNL     1       5.613  12.726  -0.537  0.00  0.00    +0.000 HD
ENDROOT
BRANCH   1   4
ATOM      4  C   UNL     1       6.250  10.711  -0.087  0.00  0.00    +0.000 C 
ATOM      5  H   UNL     1       6.858  10.474   0.793  0.00  0.00    +0.000 HD
ATOM      6  H   UNL     1       5.611   9.840  -0.275  0.00  0.00    +0.000 HD
BRANCH   4   7
ATOM      7  C   UNL     1       7.161  10.930  -1.284  0.00  0.00    +0.000 C 
ATOM      8  H   UNL     1       7.255  10.015  -1.878  0.00  0.00    +0.000 HD
ATOM      9  H   UNL     1       8.162  11.237  -0.963  0.00  0.00    +0.000 HD
ATOM     10  H   UNL     1       6.757  11.715  -1.930  0.00  0.00    +0.000 HD
ENDBRANCH   4   7
ENDBRANCH   1   4
BRANCH   1  12
ATOM     11  O   UNL     1       3.150  11.706   1.079  0.00  0.00    +0.000 OA
ATOM     12  C   UNL     1       3.901  11.638   0.107  0.00  0.00    +0.000 C 
BRANCH  12  13
ATOM     13  C   UNL     1       3.380  11.244  -1.251  0.00  0.00    +0.000 C 
ATOM     14  H   UNL     1       3.105  10.186  -1.244  0.00  0.00    +0.000 HD
ATOM     15  H   UNL     1       4.148  11.430  -2.005  0.00  0.00    +0.000 HD
ATOM     16  H   UNL     1       2.494  11.838  -1.493  0.00  0.00    +0.000 HD
ENDBRANCH  12  13
ENDBRANCH   1  12
TORSDOF 4
ENDMDL
MODEL 2
REMARK VINA RESULT:    -3.535     12.134     12.699
REMARK INTER + INTRA:          -4.209
REMARK INTER:                  -4.177
REMARK INTRA:                  -0.032
REMARK UNBOUND:                -0.054
REMARK  Name = 7895
REMARK  4 active torsions:
REMARK  status: ('A' for Active; 'I' for Inactive)
REMARK    1  A    between atoms: C_2  and  C_3
REMARK    2  A    between atoms: C_2  and  C_4
REMARK    3  A    between atoms: C_3  and  C_5
REMARK    4  A    between atoms: C_5  and  C_6
REMARK                            x       y       z     vdW  Elec       q    Type
REMARK                         _______ _______ _______ _____ _____    ______ ____
ROOT
ATOM      1  C   UNL     1      -2.772   8.719  -8.848  0.00  0.00    +0.000 C 
ATOM      2  H   UNL     1      -1.760   8.572  -8.454  0.00  0.00    +0.000 HD
ATOM      3  H   UNL     1      -3.404   9.117  -8.046  0.00  0.00    +0.000 HD
ENDROOT
BRANCH   1   4
ATOM      4  C   UNL     1      -2.738   9.700 -10.016  0.00  0.00    +0.000 C 
ATOM      5  H   UNL     1      -3.258   9.269 -10.881  0.00  0.00    +0.000 HD
ATOM      6  H   UNL     1      -3.273  10.619  -9.749  0.00  0.00    +0.000 HD
BRANCH   4   7
ATOM      7  C   UNL     1      -1.312  10.048 -10.410  0.00  0.00    +0.000 C 
ATOM      8  H   UNL     1      -1.085   9.687 -11.419  0.00  0.00    +0.000 HD
ATOM      9  H   UNL     1      -0.593   9.603  -9.715  0.00  0.00    +0.000 HD
ATOM     10  H   UNL     1      -1.169  11.133 -10.397  0.00  0.00    +0.000 HD
ENDBRANCH   4   7
ENDBRANCH   1   4
BRANCH   1  12
ATOM     11  O   UNL     1      -4.183   6.772  -8.590  0.00  0.00    +0.000 OA
ATOM     12  C   UNL     1      -3.321   7.360  -9.243  0.00  0.00    +0.000 C 
BRANCH  12  13
ATOM     13  C   UNL     1      -2.749   6.752 -10.498  0.00  0.00    +0.000 C 
ATOM     14  H   UNL     1      -3.319   7.096 -11.364  0.00  0.00    +0.000 HD
ATOM     15  H   UNL     1      -2.788   5.663 -10.427  0.00  0.00    +0.000 HD
ATOM     16  H   UNL     1      -1.706   7.062 -10.615  0.00  0.00    +0.000 HD
ENDBRANCH  12  13
ENDBRANCH   1  12
TORSDOF 4
ENDMDL
MODEL 3
REMARK VINA RESULT:    -3.460     12.139     12.898
REMARK INTER + INTRA:          -4.121
REMARK INTER:                  -4.064
REMARK INTRA:                  -0.056
REMARK UNBOUND:                -0.054
REMARK  Name = 7895
REMARK  4 active torsions:
REMARK  status: ('A' for Active; 'I' for Inactive)
REMARK    1  A    between atoms: C_2  and  C_3
REMARK    2  A    between atoms: C_2  and  C_4
REMARK    3  A    between atoms: C_3  and  C_5
REMARK    4  A    between atoms: C_5  and  C_6
REMARK                            x       y       z     vdW  Elec       q    Type
REMARK                         _______ _______ _______ _____ _____    ______ ____
ROOT
ATOM      1  C   UNL     1      -2.788   8.563  -9.041  0.00  0.00    +0.000 C 
ATOM      2  H   UNL     1      -3.689   9.005  -8.602  0.00  0.00    +0.000 HD
ATOM      3  H   UNL     1      -2.022   8.486  -8.262  0.00  0.00    +0.000 HD
ENDROOT
BRANCH   1   4
ATOM      4  C   UNL     1      -3.106   7.177  -9.596  0.00  0.00    +0.000 C 
ATOM      5  H   UNL     1      -3.381   7.253 -10.654  0.00  0.00    +0.000 HD
ATOM      6  H   UNL     1      -2.215   6.540  -9.544  0.00  0.00    +0.000 HD
BRANCH   4   7
ATOM      7  C   UNL     1      -4.239   6.516  -8.827  0.00  0.00    +0.000 C 
ATOM      8  H   UNL     1      -4.204   5.427  -8.938  0.00  0.00    +0.000 HD
ATOM      9  H   UNL     1      -5.212   6.867  -9.185  0.00  0.00    +0.000 HD
ATOM     10  H   UNL     1      -4.163   6.752  -7.762  0.00  0.00    +0.000 HD
ENDBRANCH   4   7
ENDBRANCH   1   4
BRANCH   1  12
ATOM     11  O   UNL     1      -1.150  10.015 -10.070  0.00  0.00    +0.000 OA
ATOM     12  C   UNL     1      -2.273   9.513 -10.108  0.00  0.00    +0.000 C 
BRANCH  12  13
ATOM     13  C   UNL     1      -3.223   9.820 -11.237  0.00  0.00    +0.000 C 
ATOM     14  H   UNL     1      -3.236   8.984 -11.941  0.00  0.00    +0.000 HD
ATOM     15  H   UNL     1      -2.905  10.735 -11.743  0.00  0.00    +0.000 HD
ATOM     16  H   UNL     1      -4.232   9.966 -10.842  0.00  0.00    +0.000 HD
ENDBRANCH  12  13
ENDBRANCH   1  12
TORSDOF 4
ENDMDL
MODEL 4
REMARK VINA RESULT:    -3.433      2.181      2.904
REMARK INTER + INTRA:          -4.089
REMARK INTER:                  -4.039
REMARK INTRA:                  -0.049
REMARK UNBOUND:                -0.054
REMARK  Name = 7895
REMARK  4 active torsions:
REMARK  status: ('A' for Active; 'I' for Inactive)
REMARK    1  A    between atoms: C_2  and  C_3
REMARK    2  A    between atoms: C_2  and  C_4
REMARK    3  A    between atoms: C_3  and  C_5
REMARK    4  A    between atoms: C_5  and  C_6
REMARK                            x       y       z     vdW  Elec       q    Type
REMARK                         _______ _______ _______ _____ _____    ______ ____
ROOT
ATOM      1  C   UNL     1       4.410   9.804   0.556  0.00  0.00    +0.000 C 
ATOM      2  H   UNL     1       5.293  10.150   1.104  0.00  0.00    +0.000 HD
ATOM      3  H   UNL     1       4.742   9.288  -0.352  0.00  0.00    +0.000 HD
ENDROOT
BRANCH   1   4
ATOM      4  C   UNL     1       3.597   8.850   1.427  0.00  0.00    +0.000 C 
ATOM      5  H   UNL     1       2.526   9.017   1.264  0.00  0.00    +0.000 HD
ATOM      6  H   UNL     1       3.805   7.812   1.140  0.00  0.00    +0.000 HD
BRANCH   4   7
ATOM      7  C   UNL     1       3.916   9.034   2.902  0.00  0.00    +0.000 C 
ATOM      8  H   UNL     1       4.996   9.114   3.062  0.00  0.00    +0.000 HD
ATOM      9  H   UNL     1       3.542   8.192   3.492  0.00  0.00    +0.000 HD
ATOM     10  H   UNL     1       3.447   9.948   3.280  0.00  0.00    +0.000 HD
ENDBRANCH   4   7
ENDBRANCH   1   4
BRANCH   1  12
ATOM     11  O   UNL     1       3.181  11.852   0.935  0.00  0.00    +0.000 OA
ATOM     12  C   UNL     1       3.615  11.026   0.132  0.00  0.00    +0.000 C 
BRANCH  12  13
ATOM     13  C   UNL     1       3.376  11.183  -1.348  0.00  0.00    +0.000 C 
ATOM     14  H   UNL     1       4.331  11.136  -1.879  0.00  0.00    +0.000 HD
ATOM     15  H   UNL     1       2.883  12.139  -1.539  0.00  0.00    +0.000 HD
ATOM     16  H   UNL     1       2.733  10.374  -1.705  0.00  0.00    +0.000 HD
ENDBRANCH  12  13
ENDBRANCH   1  12
TORSDOF 4
ENDMDL
MODEL 5
REMARK VINA RESULT:    -3.328     28.816     29.679
REMARK INTER + INTRA:          -3.965
REMARK INTER:                  -3.886
REMARK INTRA:                  -0.079
REMARK UNBOUND:                -0.054
REMARK  Name = 7895
REMARK  4 active torsions:
REMARK  status: ('A' for Active; 'I' for Inactive)
REMARK    1  A    between atoms: C_2  and  C_3
REMARK    2  A    between atoms: C_2  and  C_4
REMARK    3  A    between atoms: C_3  and  C_5
REMARK    4  A    between atoms: C_5  and  C_6
REMARK                            x       y       z     vdW  Elec       q    Type
REMARK                         _______ _______ _______ _____ _____    ______ ____
ROOT
ATOM      1  C   UNL     1     -20.089  -0.999   6.908  0.00  0.00    +0.000 C 
ATOM      2  H   UNL     1     -19.725  -2.008   6.684  0.00  0.00    +0.000 HD
ATOM      3  H   UNL     1     -19.291  -0.445   7.414  0.00  0.00    +0.000 HD
ENDROOT
BRANCH   1   4
ATOM      4  C   UNL     1     -20.476  -0.287   5.615  0.00  0.00    +0.000 C 
ATOM      5  H   UNL     1     -21.259   0.454   5.817  0.00  0.00    +0.000 HD
ATOM      6  H   UNL     1     -19.614   0.262   5.217  0.00  0.00    +0.000 HD
BRANCH   4   7
ATOM      7  C   UNL     1     -20.972  -1.268   4.565  0.00  0.00    +0.000 C 
ATOM      8  H   UNL     1     -21.240  -0.749   3.639  0.00  0.00    +0.000 HD
ATOM      9  H   UNL     1     -21.852  -1.813   4.922  0.00  0.00    +0.000 HD
ATOM     10  H   UNL     1     -20.192  -1.999   4.331  0.00  0.00    +0.000 HD
ENDBRANCH   4   7
ENDBRANCH   1   4
BRANCH   1  12
ATOM     11  O   UNL     1     -21.681  -0.178   8.533  0.00  0.00    +0.000 OA
ATOM     12  C   UNL     1     -21.253  -1.126   7.874  0.00  0.00    +0.000 C 
BRANCH  12  13
ATOM     13  C   UNL     1     -21.872  -2.495   7.992  0.00  0.00    +0.000 C 
ATOM     14  H   UNL     1     -21.921  -2.785   9.044  0.00  0.00    +0.000 HD
ATOM     15  H   UNL     1     -21.276  -3.215   7.428  0.00  0.00    +0.000 HD
ATOM     16  H   UNL     1     -22.887  -2.477   7.583  0.00  0.00    +0.000 HD
ENDBRANCH  12  13
ENDBRANCH   1  12
TORSDOF 4
ENDMDL
MODEL 6
REMARK VINA RESULT:    -3.265     12.146     12.885
REMARK INTER + INTRA:          -3.892
REMARK INTER:                  -3.878
REMARK INTRA:                  -0.013
REMARK UNBOUND:                -0.054
REMARK  Name = 7895
REMARK  4 active torsions:
REMARK  status: ('A' for Active; 'I' for Inactive)
REMARK    1  A    between atoms: C_2  and  C_3
REMARK    2  A    between atoms: C_2  and  C_4
REMARK    3  A    between atoms: C_3  and  C_5
REMARK    4  A    between atoms: C_5  and  C_6
REMARK                            x       y       z     vdW  Elec       q    Type
REMARK                         _______ _______ _______ _____ _____    ______ ____
ROOT
ATOM      1  C   UNL     1      -2.922   7.064  -9.696  0.00  0.00    +0.000 C 
ATOM      2  H   UNL     1      -3.809   6.499  -9.389  0.00  0.00    +0.000 HD
ATOM      3  H   UNL     1      -2.030   6.535  -9.341  0.00  0.00    +0.000 HD
ENDROOT
BRANCH   1   4
ATOM      4  C   UNL     1      -2.882   7.184 -11.217  0.00  0.00    +0.000 C 
ATOM      5  H   UNL     1      -3.644   6.533 -11.663  0.00  0.00    +0.000 HD
ATOM      6  H   UNL     1      -3.126   8.210 -11.518  0.00  0.00    +0.000 HD
BRANCH   4   7
ATOM      7  C   UNL     1      -1.516   6.812 -11.770  0.00  0.00    +0.000 C 
ATOM      8  H   UNL     1      -0.721   7.355 -11.250  0.00  0.00    +0.000 HD
ATOM      9  H   UNL     1      -1.449   7.043 -12.838  0.00  0.00    +0.000 HD
ATOM     10  H   UNL     1      -1.335   5.740 -11.644  0.00  0.00    +0.000 HD
ENDBRANCH   4   7
ENDBRANCH   1   4
BRANCH   1  12
ATOM     11  O   UNL     1      -3.308   8.556  -7.833  0.00  0.00    +0.000 OA
ATOM     12  C   UNL     1      -2.967   8.417  -9.007  0.00  0.00    +0.000 C 
BRANCH  12  13
ATOM     13  C   UNL     1      -2.567   9.603  -9.845  0.00  0.00    +0.000 C 
ATOM     14  H   UNL     1      -3.008  10.512  -9.428  0.00  0.00    +0.000 HD
ATOM     15  H   UNL     1      -2.906   9.455 -10.873  0.00  0.00    +0.000 HD
ATOM     16  H   UNL     1      -1.478   9.706  -9.843  0.00  0.00    +0.000 HD
ENDBRANCH  12  13
ENDBRANCH   1  12
TORSDOF 4
ENDMDL
MODEL 7
REMARK VINA RESULT:    -3.141     12.667     13.917
REMARK INTER + INTRA:          -3.745
REMARK INTER:                  -3.650
REMARK INTRA:                  -0.095
REMARK UNBOUND:                -0.054
REMARK  Name = 7895
REMARK  4 active torsions:
REMARK  status: ('A' for Active; 'I' for Inactive)
REMARK    1  A    between atoms: C_2  and  C_3
REMARK    2  A    between atoms: C_2  and  C_4
REMARK    3  A    between atoms: C_3  and  C_5
REMARK    4  A    between atoms: C_5  and  C_6
REMARK                            x       y       z     vdW  Elec       q    Type
REMARK                         _______ _______ _______ _____ _____    ______ ____
ROOT
ATOM      1  C   UNL     1      -3.903   6.841 -10.515  0.00  0.00    +0.000 C 
ATOM      2  H   UNL     1      -4.062   5.804 -10.831  0.00  0.00    +0.000 HD
ATOM      3  H   UNL     1      -4.865   7.364 -10.535  0.00  0.00    +0.000 HD
ENDROOT
BRANCH   1   4
ATOM      4  C   UNL     1      -3.325   6.872  -9.103  0.00  0.00    +0.000 C 
ATOM      5  H   UNL     1      -4.013   6.377  -8.407  0.00  0.00    +0.000 HD
ATOM      6  H   UNL     1      -2.383   6.311  -9.072  0.00  0.00    +0.000 HD
BRANCH   4   7
ATOM      7  C   UNL     1      -3.075   8.296  -8.634  0.00  0.00    +0.000 C 
ATOM      8  H   UNL     1      -2.504   8.859  -9.379  0.00  0.00    +0.000 HD
ATOM      9  H   UNL     1      -2.515   8.306  -7.693  0.00  0.00    +0.000 HD
ATOM     10  H   UNL     1      -4.024   8.814  -8.470  0.00  0.00    +0.000 HD
ENDBRANCH   4   7
ENDBRANCH   1   4
BRANCH   1  12
ATOM     11  O   UNL     1      -3.314   8.512 -12.162  0.00  0.00    +0.000 OA
ATOM     12  C   UNL     1      -2.991   7.505 -11.532  0.00  0.00    +0.000 C 
BRANCH  12  13
ATOM     13  C   UNL     1      -1.645   6.860 -11.738  0.00  0.00    +0.000 C 
ATOM     14  H   UNL     1      -0.973   7.565 -12.233  0.00  0.00    +0.000 HD
ATOM     15  H   UNL     1      -1.761   5.958 -12.344  0.00  0.00    +0.000 HD
ATOM     16  H   UNL     1      -1.216   6.584 -10.770  0.00  0.00    +0.000 HD
ENDBRANCH  12  13
ENDBRANCH   1  12
TORSDOF 4
ENDMDL
MODEL 8
REMARK VINA RESULT:    -3.097     13.482     14.703
REMARK INTER + INTRA:          -3.695
REMARK INTER:                  -3.654
REMARK INTRA:                  -0.040
REMARK UNBOUND:                -0.054
REMARK  Name = 7895
REMARK  4 active torsions:
REMARK  status: ('A' for Active; 'I' for Inactive)
REMARK    1  A    between atoms: C_2  and  C_3
REMARK    2  A    between atoms: C_2  and  C_4
REMARK    3  A    between atoms: C_3  and  C_5
REMARK    4  A    between atoms: C_5  and  C_6
REMARK                            x       y       z     vdW  Elec       q    Type
REMARK                         _______ _______ _______ _____ _____    ______ ____
ROOT
ATOM      1  C   UNL     1      -8.842  11.249   5.680  0.00  0.00    +0.000 C 
ATOM      2  H   UNL     1      -9.324  12.234   5.671  0.00  0.00    +0.000 HD
ATOM      3  H   UNL     1      -9.543  10.514   5.270  0.00  0.00    +0.000 HD
ENDROOT
BRANCH   1   4
ATOM      4  C   UNL     1      -7.573  11.284   4.834  0.00  0.00    +0.000 C 
ATOM      5  H   UNL     1      -6.874  10.511   5.177  0.00  0.00    +0.000 HD
ATOM      6  H   UNL     1      -7.813  11.054   3.789  0.00  0.00    +0.000 HD
BRANCH   4   7
ATOM      7  C   UNL     1      -6.892  12.641   4.905  0.00  0.00    +0.000 C 
ATOM      8  H   UNL     1      -7.108  13.235   4.010  0.00  0.00    +0.000 HD
ATOM      9  H   UNL     1      -5.806  12.532   4.991  0.00  0.00    +0.000 HD
ATOM     10  H   UNL     1      -7.247  13.199   5.776  0.00  0.00    +0.000 HD
ENDBRANCH   4   7
ENDBRANCH   1   4
BRANCH   1  12
ATOM     11  O   UNL     1      -8.143  11.681   7.954  0.00  0.00    +0.000 OA
ATOM     12  C   UNL     1      -8.569  10.876   7.126  0.00  0.00    +0.000 C 
BRANCH  12  13
ATOM     13  C   UNL     1      -8.848   9.445   7.507  0.00  0.00    +0.000 C 
ATOM     14  H   UNL     1      -8.697   8.800   6.638  0.00  0.00    +0.000 HD
ATOM     15  H   UNL     1      -9.875   9.358   7.869  0.00  0.00    +0.000 HD
ATOM     16  H   UNL     1      -8.164   9.135   8.301  0.00  0.00    +0.000 HD
ENDBRANCH  12  13
ENDBRANCH   1  12
TORSDOF 4
ENDMDL
MODEL 9
REMARK VINA RESULT:    -3.054      3.996      4.473
REMARK INTER + INTRA:          -3.644
REMARK INTER:                  -3.583
REMARK INTRA:                  -0.061
REMARK UNBOUND:                -0.054
REMARK  Name = 7895
REMARK  4 active torsions:
REMARK  status: ('A' for Active; 'I' for Inactive)
REMARK    1  A    between atoms: C_2  and  C_3
REMARK    2  A    between atoms: C_2  and  C_4
REMARK    3  A    between atoms: C_3  and  C_5
REMARK    4  A    between atoms: C_5  and  C_6
REMARK                            x       y       z     vdW  Elec       q    Type
REMARK                         _______ _______ _______ _____ _____    ______ ____
ROOT
ATOM      1  C   UNL     1       4.437   8.629   3.464  0.00  0.00    +0.000 C 
ATOM      2  H   UNL     1       3.490   8.339   3.933  0.00  0.00    +0.000 HD
ATOM      3  H   UNL     1       4.944   9.348   4.117  0.00  0.00    +0.000 HD
ENDROOT
BRANCH   1   4
ATOM      4  C   UNL     1       5.317   7.398   3.265  0.00  0.00    +0.000 C 
ATOM      5  H   UNL     1       4.692   6.521   3.057  0.00  0.00    +0.000 HD
ATOM      6  H   UNL     1       5.966   7.540   2.392  0.00  0.00    +0.000 HD
BRANCH   4   7
ATOM      7  C   UNL     1       6.178   7.125   4.488  0.00  0.00    +0.000 C 
ATOM      8  H   UNL     1       6.519   8.059   4.944  0.00  0.00    +0.000 HD
ATOM      9  H   UNL     1       7.058   6.529   4.223  0.00  0.00    +0.000 HD
ATOM     10  H   UNL     1       5.606   6.569   5.237  0.00  0.00    +0.000 HD
ENDBRANCH   4   7
ENDBRANCH   1   4
BRANCH   1  12
ATOM     11  O   UNL     1       3.204  10.152   2.048  0.00  0.00    +0.000 OA
ATOM     12  C   UNL     1       4.115   9.332   2.157  0.00  0.00    +0.000 C 
BRANCH  12  13
ATOM     13  C   UNL     1       4.980   8.970   0.978  0.00  0.00    +0.000 C 
ATOM     14  H   UNL     1       4.420   9.128   0.052  0.00  0.00    +0.000 HD
ATOM     15  H   UNL     1       5.289   7.926   1.059  0.00  0.00    +0.000 HD
ATOM     16  H   UNL     1       5.871   9.604   0.965  0.00  0.00    +0.000 HD
ENDBRANCH  12  13
ENDBRANCH   1  12
TORSDOF 4
ENDMDL
MODEL 10
REMARK VINA RESULT:    -3.049      2.693      3.485
REMARK INTER + INTRA:          -3.638
REMARK INTER:                  -3.584
REMARK INTRA:                  -0.054
REMARK UNBOUND:                -0.054
REMARK  Name = 7895
REMARK  4 active torsions:
REMARK  status: ('A' for Active; 'I' for Inactive)
REMARK    1  A    between atoms: C_2  and  C_3
REMARK    2  A    between atoms: C_2  and  C_4
REMARK    3  A    between atoms: C_3  and  C_5
REMARK    4  A    between atoms: C_5  and  C_6
REMARK                            x       y       z     vdW  Elec       q    Type
REMARK                         _______ _______ _______ _____ _____    ______ ____
ROOT
ATOM      1  C   UNL     1       4.625   9.639   0.321  0.00  0.00    +0.000 C 
ATOM      2  H   UNL     1       4.400   8.854  -0.410  0.00  0.00    +0.000 HD
ATOM      3  H   UNL     1       5.642  10.004   0.139  0.00  0.00    +0.000 HD
ENDROOT
BRANCH   1   4
ATOM      4  C   UNL     1       3.628  10.785   0.176  0.00  0.00    +0.000 C 
ATOM      5  H   UNL     1       2.662  10.496   0.606  0.00  0.00    +0.000 HD
ATOM      6  H   UNL     1       3.978  11.658   0.740  0.00  0.00    +0.000 HD
BRANCH   4   7
ATOM      7  C   UNL     1       3.434  11.174  -1.280  0.00  0.00    +0.000 C 
ATOM      8  H   UNL     1       3.247  10.292  -1.900  0.00  0.00    +0.000 HD
ATOM      9  H   UNL     1       4.319  11.688  -1.670  0.00  0.00    +0.000 HD
ATOM     10  H   UNL     1       2.578  11.849  -1.382  0.00  0.00    +0.000 HD
ENDBRANCH   4   7
ENDBRANCH   1   4
BRANCH   1  12
ATOM     11  O   UNL     1       5.544   8.382   2.171  0.00  0.00    +0.000 OA
ATOM     12  C   UNL     1       4.596   9.013   1.704  0.00  0.00    +0.000 C 
BRANCH  12  13
ATOM     13  C   UNL     1       3.326   9.203   2.492  0.00  0.00    +0.000 C 
ATOM     14  H   UNL     1       3.031  10.255   2.461  0.00  0.00    +0.000 HD
ATOM     15  H   UNL     1       3.487   8.886   3.525  0.00  0.00    +0.000 HD
ATOM     16  H   UNL     1       2.527   8.598   2.056  0.00  0.00    +0.000 HD
ENDBRANCH  12  13
ENDBRANCH   1  12
TORSDOF 4
ENDMDL
