MODEL 1
REMARK VINA RESULT:    -3.531      0.000      0.000
REMARK INTER + INTRA:          -4.316
REMARK INTER:                  -4.209
REMARK INTRA:                  -0.107
REMARK UNBOUND:                -0.062
REMARK  Name = 22386
REMARK  5 active torsions:
REMARK  status: ('A' for Active; 'I' for Inactive)
REMARK    1  A    between atoms: O_1  and  C_3
REMARK    2  A    between atoms: C_2  and  C_3
REMARK    3  A    between atoms: C_2  and  C_4
REMARK    4  A    between atoms: C_3  and  C_5
REMARK    5  A    between atoms: C_4  and  C_6
REMARK                            x       y       z     vdW  Elec       q    Type
REMARK                         _______ _______ _______ _____ _____    ______ ____
ROOT
ATOM      1  C   UNL     1      -3.048   6.787  -9.795  0.00  0.00    +0.000 C 
ATOM      2  H   UNL     1      -2.402   6.014  -9.360  0.00  0.00    +0.000 HD
ATOM      3  H   UNL     1      -4.037   6.337  -9.953  0.00  0.00    +0.000 HD
ENDROOT
BRANCH   1   4
ATOM      4  C   UNL     1      -3.164   7.942  -8.798  0.00  0.00    +0.000 C 
ATOM      5  H   UNL     1      -2.673   7.671  -7.857  0.00  0.00    +0.000 HD
ATOM      6  H   UNL     1      -4.217   8.142  -8.570  0.00  0.00    +0.000 HD
BRANCH   4   7
ATOM      7  C   UNL     1      -2.529   9.212  -9.343  0.00  0.00    +0.000 C 
ATOM      8  H   UNL     1      -2.082   9.023 -10.324  0.00  0.00    +0.000 HD
ATOM      9  H   UNL     1      -1.741   9.575  -8.676  0.00  0.00    +0.000 HD
ATOM     10  H   UNL     1      -3.275  10.006  -9.457  0.00  0.00    +0.000 HD
ENDBRANCH   4   7
ENDBRANCH   1   4
BRANCH   1  11
ATOM     11  C   UNL     1      -2.473   7.240 -11.140  0.00  0.00    +0.000 C 
ATOM     12  H   UNL     1      -2.259   8.315 -11.111  0.00  0.00    +0.000 HD
BRANCH  11  13
ATOM     13  C   UNL     1      -3.435   6.955 -12.286  0.00  0.00    +0.000 C 
ATOM     14  H   UNL     1      -4.404   6.609 -11.908  0.00  0.00    +0.000 HD
ATOM     15  H   UNL     1      -3.596   7.846 -12.901  0.00  0.00    +0.000 HD
ATOM     16  H   UNL     1      -3.043   6.155 -12.923  0.00  0.00    +0.000 HD
ENDBRANCH  11  13
BRANCH  11  17
ATOM     17  O   UNL     1      -1.243   6.567 -11.399  0.00  0.00    +0.000 OA
ATOM     18  H   UNL     1      -0.680   7.165 -11.921  0.00  0.00    +0.000 HD
ENDBRANCH  11  17
ENDBRANCH   1  11
TORSDOF 5
ENDMDL
MODEL 2
REMARK VINA RESULT:    -3.498      1.439      2.235
REMARK INTER + INTRA:          -4.275
REMARK INTER:                  -4.221
REMARK INTRA:                  -0.054
REMARK UNBOUND:                -0.062
REMARK  Name = 22386
REMARK  5 active torsions:
REMARK  status: ('A' for Active; 'I' for Inactive)
REMARK    1  A    between atoms: O_1  and  C_3
REMARK    2  A    between atoms: C_2  and  C_3
REMARK    3  A    between atoms: C_2  and  C_4
REMARK    4  A    between atoms: C_3  and  C_5
REMARK    5  A    between atoms: C_4  and  C_6
REMARK                            x       y       z     vdW  Elec       q    Type
REMARK                         _______ _______ _______ _____ _____    ______ ____
ROOT
ATOM      1  C   UNL     1      -2.688   8.586  -9.129  0.00  0.00    +0.000 C 
ATOM      2  H   UNL     1      -1.664   8.332  -8.831  0.00  0.00    +0.000 HD
ATOM      3  H   UNL     1      -3.250   8.814  -8.214  0.00  0.00    +0.000 HD
ENDROOT
BRANCH   1   4
ATOM      4  C   UNL     1      -2.642   9.827 -10.023  0.00  0.00    +0.000 C 
ATOM      5  H   UNL     1      -2.894  10.718  -9.436  0.00  0.00    +0.000 HD
ATOM      6  H   UNL     1      -3.385   9.745 -10.825  0.00  0.00    +0.000 HD
BRANCH   4   7
ATOM      7  C   UNL     1      -1.266  10.014 -10.644  0.00  0.00    +0.000 C 
ATOM      8  H   UNL     1      -0.957  11.062 -10.576  0.00  0.00    +0.000 HD
ATOM      9  H   UNL     1      -1.271   9.730 -11.701  0.00  0.00    +0.000 HD
ATOM     10  H   UNL     1      -0.517   9.404 -10.128  0.00  0.00    +0.000 HD
ENDBRANCH   4   7
ENDBRANCH   1   4
BRANCH   1  11
ATOM     11  C   UNL     1      -3.330   7.389  -9.837  0.00  0.00    +0.000 C 
ATOM     12  H   UNL     1      -3.983   7.739 -10.644  0.00  0.00    +0.000 HD
BRANCH  11  13
ATOM     13  C   UNL     1      -4.144   6.538  -8.872  0.00  0.00    +0.000 C 
ATOM     14  H   UNL     1      -4.973   6.041  -9.388  0.00  0.00    +0.000 HD
ATOM     15  H   UNL     1      -3.523   5.775  -8.393  0.00  0.00    +0.000 HD
ATOM     16  H   UNL     1      -4.591   7.166  -8.093  0.00  0.00    +0.000 HD
ENDBRANCH  11  13
BRANCH  11  17
ATOM     17  O   UNL     1      -2.322   6.572 -10.428  0.00  0.00    +0.000 OA
ATOM     18  H   UNL     1      -1.537   6.605  -9.855  0.00  0.00    +0.000 HD
ENDBRANCH  11  17
ENDBRANCH   1  11
TORSDOF 5
ENDMDL
MODEL 3
REMARK VINA RESULT:    -3.436      8.099      8.551
REMARK INTER + INTRA:          -4.201
REMARK INTER:                  -4.165
REMARK INTRA:                  -0.036
REMARK UNBOUND:                -0.062
REMARK  Name = 22386
REMARK  5 active torsions:
REMARK  status: ('A' for Active; 'I' for Inactive)
REMARK    1  A    between atoms: O_1  and  C_3
REMARK    2  A    between atoms: C_2  and  C_3
REMARK    3  A    between atoms: C_2  and  C_4
REMARK    4  A    between atoms: C_3  and  C_5
REMARK    5  A    between atoms: C_4  and  C_6
REMARK                            x       y       z     vdW  Elec       q    Type
REMARK                         _______ _______ _______ _____ _____    ______ ____
ROOT
ATOM      1  C   UNL     1      -9.650   6.362  -5.389  0.00  0.00    +0.000 C 
ATOM      2  H   UNL     1     -10.083   6.645  -4.421  0.00  0.00    +0.000 HD
ATOM      3  H   UNL     1     -10.341   5.653  -5.863  0.00  0.00    +0.000 HD
ENDROOT
BRANCH   1   4
ATOM      4  C   UNL     1      -9.529   7.618  -6.255  0.00  0.00    +0.000 C 
ATOM      5  H   UNL     1      -9.888   7.406  -7.268  0.00  0.00    +0.000 HD
ATOM      6  H   UNL     1      -8.479   7.920  -6.339  0.00  0.00    +0.000 HD
BRANCH   4   7
ATOM      7  C   UNL     1     -10.330   8.773  -5.674  0.00  0.00    +0.000 C 
ATOM      8  H   UNL     1     -10.889   8.442  -4.793  0.00  0.00    +0.000 HD
ATOM      9  H   UNL     1     -11.046   9.160  -6.405  0.00  0.00    +0.000 HD
ATOM     10  H   UNL     1      -9.671   9.593  -5.371  0.00  0.00    +0.000 HD
ENDBRANCH   4   7
ENDBRANCH   1   4
BRANCH   1  11
ATOM     11  C   UNL     1      -8.295   5.682  -5.166  0.00  0.00    +0.000 C 
ATOM     12  H   UNL     1      -7.717   5.688  -6.097  0.00  0.00    +0.000 HD
BRANCH  11  13
ATOM     13  C   UNL     1      -8.461   4.245  -4.691  0.00  0.00    +0.000 C 
ATOM     14  H   UNL     1      -7.606   3.931  -4.082  0.00  0.00    +0.000 HD
ATOM     15  H   UNL     1      -9.375   4.123  -4.102  0.00  0.00    +0.000 HD
ATOM     16  H   UNL     1      -8.503   3.563  -5.548  0.00  0.00    +0.000 HD
ENDBRANCH  11  13
BRANCH  11  17
ATOM     17  O   UNL     1      -7.542   6.401  -4.192  0.00  0.00    +0.000 OA
ATOM     18  H   UNL     1      -6.598   6.264  -4.385  0.00  0.00    +0.000 HD
ENDBRANCH  11  17
ENDBRANCH   1  11
TORSDOF 5
ENDMDL
MODEL 4
REMARK VINA RESULT:    -3.396      7.642      8.471
REMARK INTER + INTRA:          -4.152
REMARK INTER:                  -4.057
REMARK INTRA:                  -0.096
REMARK UNBOUND:                -0.062
REMARK  Name = 22386
REMARK  5 active torsions:
REMARK  status: ('A' for Active; 'I' for Inactive)
REMARK    1  A    between atoms: O_1  and  C_3
REMARK    2  A    between atoms: C_2  and  C_3
REMARK    3  A    between atoms: C_2  and  C_4
REMARK    4  A    between atoms: C_3  and  C_5
REMARK    5  A    between atoms: C_4  and  C_6
REMARK                            x       y       z     vdW  Elec       q    Type
REMARK                         _______ _______ _______ _____ _____    ______ ____
ROOT
ATOM      1  C   UNL     1      -9.675   5.582  -5.319  0.00  0.00    +0.000 C 
ATOM      2  H   UNL     1     -10.575   5.863  -5.880  0.00  0.00    +0.000 HD
ATOM      3  H   UNL     1      -9.949   5.540  -4.258  0.00  0.00    +0.000 HD
ENDROOT
BRANCH   1   4
ATOM      4  C   UNL     1      -9.221   4.198  -5.787  0.00  0.00    +0.000 C 
ATOM      5  H   UNL     1      -8.362   4.296  -6.460  0.00  0.00    +0.000 HD
ATOM      6  H   UNL     1     -10.022   3.707  -6.353  0.00  0.00    +0.000 HD
BRANCH   4   7
ATOM      7  C   UNL     1      -8.835   3.313  -4.611  0.00  0.00    +0.000 C 
ATOM      8  H   UNL     1      -9.707   2.757  -4.252  0.00  0.00    +0.000 HD
ATOM      9  H   UNL     1      -8.448   3.910  -3.781  0.00  0.00    +0.000 HD
ATOM     10  H   UNL     1      -8.067   2.588  -4.902  0.00  0.00    +0.000 HD
ENDBRANCH   4   7
ENDBRANCH   1   4
BRANCH   1  11
ATOM     11  C   UNL     1      -8.590   6.645  -5.524  0.00  0.00    +0.000 C 
ATOM     12  H   UNL     1      -9.043   7.643  -5.538  0.00  0.00    +0.000 HD
BRANCH  11  13
ATOM     13  C   UNL     1      -7.830   6.425  -6.826  0.00  0.00    +0.000 C 
ATOM     14  H   UNL     1      -8.494   6.530  -7.691  0.00  0.00    +0.000 HD
ATOM     15  H   UNL     1      -7.005   7.136  -6.929  0.00  0.00    +0.000 HD
ATOM     16  H   UNL     1      -7.424   5.409  -6.863  0.00  0.00    +0.000 HD
ENDBRANCH  11  13
BRANCH  11  17
ATOM     17  O   UNL     1      -7.663   6.613  -4.442  0.00  0.00    +0.000 OA
ATOM     18  H   UNL     1      -7.040   7.350  -4.562  0.00  0.00    +0.000 HD
ENDBRANCH  11  17
ENDBRANCH   1  11
TORSDOF 5
ENDMDL
MODEL 5
REMARK VINA RESULT:    -3.386     12.316     13.388
REMARK INTER + INTRA:          -4.141
REMARK INTER:                  -4.068
REMARK INTRA:                  -0.073
REMARK UNBOUND:                -0.062
REMARK  Name = 22386
REMARK  5 active torsions:
REMARK  status: ('A' for Active; 'I' for Inactive)
REMARK    1  A    between atoms: O_1  and  C_3
REMARK    2  A    between atoms: C_2  and  C_3
REMARK    3  A    between atoms: C_2  and  C_4
REMARK    4  A    between atoms: C_3  and  C_5
REMARK    5  A    between atoms: C_4  and  C_6
REMARK                            x       y       z     vdW  Elec       q    Type
REMARK                         _______ _______ _______ _____ _____    ______ ____
ROOT
ATOM      1  C   UNL     1       5.127  10.339   0.268  0.00  0.00    +0.000 C 
ATOM      2  H   UNL     1       5.350   9.413  -0.277  0.00  0.00    +0.000 HD
ATOM      3  H   UNL     1       5.332  10.152   1.330  0.00  0.00    +0.000 HD
ENDROOT
BRANCH   1   4
ATOM      4  C   UNL     1       6.053  11.442  -0.247  0.00  0.00    +0.000 C 
ATOM      5  H   UNL     1       6.544  11.939   0.597  0.00  0.00    +0.000 HD
ATOM      6  H   UNL     1       5.474  12.205  -0.781  0.00  0.00    +0.000 HD
BRANCH   4   7
ATOM      7  C   UNL     1       7.115  10.885  -1.183  0.00  0.00    +0.000 C 
ATOM      8  H   UNL     1       6.679  10.663  -2.162  0.00  0.00    +0.000 HD
ATOM      9  H   UNL     1       7.543   9.961  -0.785  0.00  0.00    +0.000 HD
ATOM     10  H   UNL     1       7.927  11.606  -1.328  0.00  0.00    +0.000 HD
ENDBRANCH   4   7
ENDBRANCH   1   4
BRANCH   1  11
ATOM     11  C   UNL     1       3.648  10.697   0.089  0.00  0.00    +0.000 C 
ATOM     12  H   UNL     1       3.026   9.811   0.262  0.00  0.00    +0.000 HD
BRANCH  11  13
ATOM     13  C   UNL     1       3.367  11.238  -1.306  0.00  0.00    +0.000 C 
ATOM     14  H   UNL     1       4.242  11.123  -1.956  0.00  0.00    +0.000 HD
ATOM     15  H   UNL     1       2.518  10.725  -1.768  0.00  0.00    +0.000 HD
ATOM     16  H   UNL     1       3.147  12.310  -1.262  0.00  0.00    +0.000 HD
ENDBRANCH  11  13
BRANCH  11  17
ATOM     17  O   UNL     1       3.263  11.680   1.047  0.00  0.00    +0.000 OA
ATOM     18  H   UNL     1       2.846  11.220   1.795  0.00  0.00    +0.000 HD
ENDBRANCH  11  17
ENDBRANCH   1  11
TORSDOF 5
ENDMDL
MODEL 6
REMARK VINA RESULT:    -3.310     12.437     13.464
REMARK INTER + INTRA:          -4.049
REMARK INTER:                  -3.997
REMARK INTRA:                  -0.052
REMARK UNBOUND:                -0.062
REMARK  Name = 22386
REMARK  5 active torsions:
REMARK  status: ('A' for Active; 'I' for Inactive)
REMARK    1  A    between atoms: O_1  and  C_3
REMARK    2  A    between atoms: C_2  and  C_3
REMARK    3  A    between atoms: C_2  and  C_4
REMARK    4  A    between atoms: C_3  and  C_5
REMARK    5  A    between atoms: C_4  and  C_6
REMARK                            x       y       z     vdW  Elec       q    Type
REMARK                         _______ _______ _______ _____ _____    ______ ____
ROOT
ATOM      1  C   UNL     1       4.543   9.926   0.620  0.00  0.00    +0.000 C 
ATOM      2  H   UNL     1       5.359  10.201   1.300  0.00  0.00    +0.000 HD
ATOM      3  H   UNL     1       4.996   9.456  -0.262  0.00  0.00    +0.000 HD
ENDROOT
BRANCH   1   4
ATOM      4  C   UNL     1       3.636   8.917   1.330  0.00  0.00    +0.000 C 
ATOM      5  H   UNL     1       4.058   7.910   1.238  0.00  0.00    +0.000 HD
ATOM      6  H   UNL     1       2.647   8.900   0.857  0.00  0.00    +0.000 HD
BRANCH   4   7
ATOM      7  C   UNL     1       3.473   9.257   2.803  0.00  0.00    +0.000 C 
ATOM      8  H   UNL     1       3.495   8.345   3.408  0.00  0.00    +0.000 HD
ATOM      9  H   UNL     1       2.520   9.762   2.986  0.00  0.00    +0.000 HD
ATOM     10  H   UNL     1       4.281   9.912   3.146  0.00  0.00    +0.000 HD
ENDBRANCH   4   7
ENDBRANCH   1   4
BRANCH   1  11
ATOM     11  C   UNL     1       3.782  11.185   0.194  0.00  0.00    +0.000 C 
ATOM     12  H   UNL     1       2.837  11.255   0.744  0.00  0.00    +0.000 HD
BRANCH  11  13
ATOM     13  C   UNL     1       3.489  11.183  -1.301  0.00  0.00    +0.000 C 
ATOM     14  H   UNL     1       2.513  11.636  -1.510  0.00  0.00    +0.000 HD
ATOM     15  H   UNL     1       4.256  11.730  -1.858  0.00  0.00    +0.000 HD
ATOM     16  H   UNL     1       3.446  10.156  -1.679  0.00  0.00    +0.000 HD
ENDBRANCH  11  13
BRANCH  11  17
ATOM     17  O   UNL     1       4.545  12.348   0.508  0.00  0.00    +0.000 OA
ATOM     18  H   UNL     1       4.095  13.115   0.114  0.00  0.00    +0.000 HD
ENDBRANCH  11  17
ENDBRANCH   1  11
TORSDOF 5
ENDMDL
MODEL 7
REMARK VINA RESULT:    -3.287     28.045     29.297
REMARK INTER + INTRA:          -4.021
REMARK INTER:                  -3.973
REMARK INTRA:                  -0.048
REMARK UNBOUND:                -0.062
REMARK  Name = 22386
REMARK  5 active torsions:
REMARK  status: ('A' for Active; 'I' for Inactive)
REMARK    1  A    between atoms: O_1  and  C_3
REMARK    2  A    between atoms: C_2  and  C_3
REMARK    3  A    between atoms: C_2  and  C_4
REMARK    4  A    between atoms: C_3  and  C_5
REMARK    5  A    between atoms: C_4  and  C_6
REMARK                            x       y       z     vdW  Elec       q    Type
REMARK                         _______ _______ _______ _____ _____    ______ ____
ROOT
ATOM      1  C   UNL     1      -9.875   9.271  17.806  0.00  0.00    +0.000 C 
ATOM      2  H   UNL     1     -10.355   8.968  16.867  0.00  0.00    +0.000 HD
ATOM      3  H   UNL     1     -10.394  10.168  18.166  0.00  0.00    +0.000 HD
ENDROOT
BRANCH   1   4
ATOM      4  C   UNL     1     -10.039   8.140  18.824  0.00  0.00    +0.000 C 
ATOM      5  H   UNL     1      -9.128   7.532  18.853  0.00  0.00    +0.000 HD
ATOM      6  H   UNL     1     -10.862   7.479  18.527  0.00  0.00    +0.000 HD
BRANCH   4   7
ATOM      7  C   UNL     1     -10.321   8.682  20.217  0.00  0.00    +0.000 C 
ATOM      8  H   UNL     1     -10.761   9.682  20.153  0.00  0.00    +0.000 HD
ATOM      9  H   UNL     1      -9.401   8.753  20.804  0.00  0.00    +0.000 HD
ATOM     10  H   UNL     1     -11.023   8.036  20.754  0.00  0.00    +0.000 HD
ENDBRANCH   4   7
ENDBRANCH   1   4
BRANCH   1  11
ATOM     11  C   UNL     1      -8.402   9.604  17.546  0.00  0.00    +0.000 C 
ATOM     12  H   UNL     1      -8.000  10.192  18.379  0.00  0.00    +0.000 HD
BRANCH  11  13
ATOM     13  C   UNL     1      -8.225  10.388  16.252  0.00  0.00    +0.000 C 
ATOM     14  H   UNL     1      -9.176  10.478  15.714  0.00  0.00    +0.000 HD
ATOM     15  H   UNL     1      -7.835  11.392  16.446  0.00  0.00    +0.000 HD
ATOM     16  H   UNL     1      -7.533   9.867  15.582  0.00  0.00    +0.000 HD
ENDBRANCH  11  13
BRANCH  11  17
ATOM     17  O   UNL     1      -7.636   8.404  17.462  0.00  0.00    +0.000 OA
ATOM     18  H   UNL     1      -6.716   8.651  17.266  0.00  0.00    +0.000 HD
ENDBRANCH  11  17
ENDBRANCH   1  11
TORSDOF 5
ENDMDL
MODEL 8
REMARK VINA RESULT:    -3.254      1.926      2.970
REMARK INTER + INTRA:          -3.982
REMARK INTER:                  -3.926
REMARK INTRA:                  -0.056
REMARK UNBOUND:                -0.062
REMARK  Name = 22386
REMARK  5 active torsions:
REMARK  status: ('A' for Active; 'I' for Inactive)
REMARK    1  A    between atoms: O_1  and  C_3
REMARK    2  A    between atoms: C_2  and  C_3
REMARK    3  A    between atoms: C_2  and  C_4
REMARK    4  A    between atoms: C_3  and  C_5
REMARK    5  A    between atoms: C_4  and  C_6
REMARK                            x       y       z     vdW  Elec       q    Type
REMARK                         _______ _______ _______ _____ _____    ______ ____
ROOT
ATOM      1  C   UNL     1      -2.172   7.756 -10.815  0.00  0.00    +0.000 C 
ATOM      2  H   UNL     1      -1.137   7.393 -10.815  0.00  0.00    +0.000 HD
ATOM      3  H   UNL     1      -2.495   7.827 -11.862  0.00  0.00    +0.000 HD
ENDROOT
BRANCH   1   4
ATOM      4  C   UNL     1      -3.046   6.739 -10.077  0.00  0.00    +0.000 C 
ATOM      5  H   UNL     1      -3.041   6.955  -9.003  0.00  0.00    +0.000 HD
ATOM      6  H   UNL     1      -2.641   5.728 -10.207  0.00  0.00    +0.000 HD
BRANCH   4   7
ATOM      7  C   UNL     1      -4.479   6.765 -10.585  0.00  0.00    +0.000 C 
ATOM      8  H   UNL     1      -5.176   6.575  -9.763  0.00  0.00    +0.000 HD
ATOM      9  H   UNL     1      -4.639   5.999 -11.349  0.00  0.00    +0.000 HD
ATOM     10  H   UNL     1      -4.723   7.741 -11.019  0.00  0.00    +0.000 HD
ENDBRANCH   4   7
ENDBRANCH   1   4
BRANCH   1  11
ATOM     11  C   UNL     1      -2.230   9.144 -10.169  0.00  0.00    +0.000 C 
ATOM     12  H   UNL     1      -3.210   9.600 -10.352  0.00  0.00    +0.000 HD
BRANCH  11  13
ATOM     13  C   UNL     1      -1.144  10.061 -10.713  0.00  0.00    +0.000 C 
ATOM     14  H   UNL     1      -0.968   9.874 -11.778  0.00  0.00    +0.000 HD
ATOM     15  H   UNL     1      -1.410  11.115 -10.581  0.00  0.00    +0.000 HD
ATOM     16  H   UNL     1      -0.194   9.873 -10.201  0.00  0.00    +0.000 HD
ENDBRANCH  11  13
BRANCH  11  17
ATOM     17  O   UNL     1      -2.070   9.033  -8.756  0.00  0.00    +0.000 OA
ATOM     18  H   UNL     1      -2.846   9.440  -8.335  0.00  0.00    +0.000 HD
ENDBRANCH  11  17
ENDBRANCH   1  11
TORSDOF 5
ENDMDL
MODEL 9
REMARK VINA RESULT:    -3.158     12.806     13.643
REMARK INTER + INTRA:          -3.866
REMARK INTER:                  -3.804
REMARK INTRA:                  -0.062
REMARK UNBOUND:                -0.062
REMARK  Name = 22386
REMARK  5 active torsions:
REMARK  status: ('A' for Active; 'I' for Inactive)
REMARK    1  A    between atoms: O_1  and  C_3
REMARK    2  A    between atoms: C_2  and  C_3
REMARK    3  A    between atoms: C_2  and  C_4
REMARK    4  A    between atoms: C_3  and  C_5
REMARK    5  A    between atoms: C_4  and  C_6
REMARK                            x       y       z     vdW  Elec       q    Type
REMARK                         _______ _______ _______ _____ _____    ______ ____
ROOT
ATOM      1  C   UNL     1       3.756   9.448   0.178  0.00  0.00    +0.000 C 
ATOM      2  H   UNL     1       2.696   9.195   0.051  0.00  0.00    +0.000 HD
ATOM      3  H   UNL     1       4.343   8.602  -0.201  0.00  0.00    +0.000 HD
ENDROOT
BRANCH   1   4
ATOM      4  C   UNL     1       4.061  10.697  -0.652  0.00  0.00    +0.000 C 
ATOM      5  H   UNL     1       3.838  10.505  -1.708  0.00  0.00    +0.000 HD
ATOM      6  H   UNL     1       5.127  10.945  -0.585  0.00  0.00    +0.000 HD
BRANCH   4   7
ATOM      7  C   UNL     1       3.247  11.892  -0.180  0.00  0.00    +0.000 C 
ATOM      8  H   UNL     1       3.654  12.282   0.758  0.00  0.00    +0.000 HD
ATOM      9  H   UNL     1       2.203  11.612  -0.007  0.00  0.00    +0.000 HD
ATOM     10  H   UNL     1       3.268  12.698  -0.921  0.00  0.00    +0.000 HD
ENDBRANCH   4   7
ENDBRANCH   1   4
BRANCH   1  11
ATOM     11  C   UNL     1       4.060   9.655   1.665  0.00  0.00    +0.000 C 
ATOM     12  H   UNL     1       4.506  10.644   1.821  0.00  0.00    +0.000 HD
BRANCH  11  13
ATOM     13  C   UNL     1       5.011   8.590   2.196  0.00  0.00    +0.000 C 
ATOM     14  H   UNL     1       5.709   9.016   2.926  0.00  0.00    +0.000 HD
ATOM     15  H   UNL     1       4.465   7.769   2.670  0.00  0.00    +0.000 HD
ATOM     16  H   UNL     1       5.619   8.183   1.381  0.00  0.00    +0.000 HD
ENDBRANCH  11  13
BRANCH  11  17
ATOM     17  O   UNL     1       2.853   9.608   2.423  0.00  0.00    +0.000 OA
ATOM     18  H   UNL     1       2.589   8.676   2.505  0.00  0.00    +0.000 HD
ENDBRANCH  11  17
ENDBRANCH   1  11
TORSDOF 5
ENDMDL
MODEL 10
REMARK VINA RESULT:    -3.108     14.523     15.556
REMARK INTER + INTRA:          -3.806
REMARK INTER:                  -3.785
REMARK INTRA:                  -0.021
REMARK UNBOUND:                -0.062
REMARK  Name = 22386
REMARK  5 active torsions:
REMARK  status: ('A' for Active; 'I' for Inactive)
REMARK    1  A    between atoms: O_1  and  C_3
REMARK    2  A    between atoms: C_2  and  C_3
REMARK    3  A    between atoms: C_2  and  C_4
REMARK    4  A    between atoms: C_3  and  C_5
REMARK    5  A    between atoms: C_4  and  C_6
REMARK                            x       y       z     vdW  Elec       q    Type
REMARK                         _______ _______ _______ _____ _____    ______ ____
ROOT
ATOM      1  C   UNL     1       3.832   9.005   2.798  0.00  0.00    +0.000 C 
ATOM      2  H   UNL     1       3.201   9.804   3.207  0.00  0.00    +0.000 HD
ATOM      3  H   UNL     1       3.184   8.138   2.612  0.00  0.00    +0.000 HD
ENDROOT
BRANCH   1   4
ATOM      4  C   UNL     1       4.434   9.487   1.477  0.00  0.00    +0.000 C 
ATOM      5  H   UNL     1       4.360   8.695   0.723  0.00  0.00    +0.000 HD
ATOM      6  H   UNL     1       5.499   9.713   1.606  0.00  0.00    +0.000 HD
BRANCH   4   7
ATOM      7  C   UNL     1       3.725  10.731   0.963  0.00  0.00    +0.000 C 
ATOM      8  H   UNL     1       3.541  11.429   1.785  0.00  0.00    +0.000 HD
ATOM      9  H   UNL     1       2.761  10.475   0.513  0.00  0.00    +0.000 HD
ATOM     10  H   UNL     1       4.331  11.244   0.209  0.00  0.00    +0.000 HD
ENDBRANCH   4   7
ENDBRANCH   1   4
BRANCH   1  11
ATOM     11  C   UNL     1       4.909   8.627   3.820  0.00  0.00    +0.000 C 
ATOM     12  H   UNL     1       5.863   9.092   3.545  0.00  0.00    +0.000 HD
BRANCH  11  13
ATOM     13  C   UNL     1       5.096   7.118   3.905  0.00  0.00    +0.000 C 
ATOM     14  H   UNL     1       4.775   6.630   2.978  0.00  0.00    +0.000 HD
ATOM     15  H   UNL     1       6.142   6.857   4.095  0.00  0.00    +0.000 HD
ATOM     16  H   UNL     1       4.479   6.702   4.709  0.00  0.00    +0.000 HD
ENDBRANCH  11  13
BRANCH  11  17
ATOM     17  O   UNL     1       4.553   9.117   5.110  0.00  0.00    +0.000 OA
ATOM     18  H   UNL     1       5.364   9.168   5.644  0.00  0.00    +0.000 HD
ENDBRANCH  11  17
ENDBRANCH   1  11
TORSDOF 5
ENDMDL
