MODEL 1
REMARK VINA RESULT:    -4.754      0.000      0.000
REMARK INTER + INTRA:          -6.239
REMARK INTER:                  -6.041
REMARK INTRA:                  -0.197
REMARK UNBOUND:                -0.235
REMARK  Name = 520098
REMARK  6 active torsions:
REMARK  status: ('A' for Active; 'I' for Inactive)
REMARK    1  A    between atoms: O_1  and  C_9
REMARK    2  A    between atoms: O_1  and  C_12
REMARK    3  A    between atoms: C_4  and  C_5
REMARK    4  A    between atoms: C_4  and  C_6
REMARK    5  A    between atoms: C_4  and  C_7
REMARK    6  A    between atoms: C_5  and  C_8
REMARK                            x       y       z     vdW  Elec       q    Type
REMARK                         _______ _______ _______ _____ _____    ______ ____
ROOT
ATOM      1  C   UNL     1      -3.252   6.745 -10.411  0.00  0.00    +0.000 C 
ATOM      2  H   UNL     1      -2.784   5.801 -10.716  0.00  0.00    +0.000 HD
ENDROOT
BRANCH   1   5
ATOM      3  N   UNL     1      -2.374   8.938  -9.895  0.00  0.00    +0.000 NA
ATOM      4  N   UNL     1      -0.727   8.888 -12.165  0.00  0.00    +0.000 NA
ATOM      5  C   UNL     1      -2.335   7.909 -10.745  0.00  0.00    +0.000 A 
ATOM      6  C   UNL     1      -1.544   7.862 -11.853  0.00  0.00    +0.000 A 
ATOM      7  C   UNL     1      -1.555   9.963 -10.206  0.00  0.00    +0.000 A 
ATOM      8  C   UNL     1      -0.747   9.939 -11.321  0.00  0.00    +0.000 A 
ATOM      9  H   UNL     1      -1.572  10.808  -9.529  0.00  0.00    +0.000 HD
ATOM     10  H   UNL     1      -0.091  10.763 -11.571  0.00  0.00    +0.000 HD
BRANCH   6  11
ATOM     11  O   UNL     1      -1.540   6.785 -12.696  0.00  0.00    +0.000 OA
BRANCH  11  12
ATOM     12  C   UNL     1      -2.096   6.981 -13.993  0.00  0.00    +0.000 C 
ATOM     13  H   UNL     1      -2.203   6.000 -14.463  0.00  0.00    +0.000 HD
ATOM     14  H   UNL     1      -1.430   7.585 -14.617  0.00  0.00    +0.000 HD
ATOM     15  H   UNL     1      -3.090   7.435 -13.929  0.00  0.00    +0.000 HD
ENDBRANCH  11  12
ENDBRANCH   6  11
ENDBRANCH   1   5
BRANCH   1  16
ATOM     16  C   UNL     1      -3.458   6.642  -8.895  0.00  0.00    +0.000 C 
ATOM     17  H   UNL     1      -4.131   7.423  -8.523  0.00  0.00    +0.000 HD
ATOM     18  H   UNL     1      -3.892   5.672  -8.626  0.00  0.00    +0.000 HD
ATOM     19  H   UNL     1      -2.506   6.742  -8.362  0.00  0.00    +0.000 HD
ENDBRANCH   1  16
BRANCH   1  20
ATOM     20  C   UNL     1      -4.613   6.818 -11.132  0.00  0.00    +0.000 C 
ATOM     21  H   UNL     1      -4.578   6.263 -12.078  0.00  0.00    +0.000 HD
ATOM     22  H   UNL     1      -4.832   7.862 -11.387  0.00  0.00    +0.000 HD
BRANCH  20  23
ATOM     23  C   UNL     1      -5.765   6.285 -10.290  0.00  0.00    +0.000 C 
ATOM     24  H   UNL     1      -5.562   5.253  -9.986  0.00  0.00    +0.000 HD
ATOM     25  H   UNL     1      -5.907   6.877  -9.380  0.00  0.00    +0.000 HD
ATOM     26  H   UNL     1      -6.702   6.292 -10.856  0.00  0.00    +0.000 HD
ENDBRANCH  20  23
ENDBRANCH   1  20
TORSDOF 6
ENDMDL
MODEL 2
REMARK VINA RESULT:    -4.331     17.621     19.511
REMARK INTER + INTRA:          -5.705
REMARK INTER:                  -5.514
REMARK INTRA:                  -0.191
REMARK UNBOUND:                -0.235
REMARK  Name = 520098
REMARK  6 active torsions:
REMARK  status: ('A' for Active; 'I' for Inactive)
REMARK    1  A    between atoms: O_1  and  C_9
REMARK    2  A    between atoms: O_1  and  C_12
REMARK    3  A    between atoms: C_4  and  C_5
REMARK    4  A    between atoms: C_4  and  C_6
REMARK    5  A    between atoms: C_4  and  C_7
REMARK    6  A    between atoms: C_5  and  C_8
REMARK                            x       y       z     vdW  Elec       q    Type
REMARK                         _______ _______ _______ _____ _____    ______ ____
ROOT
ATOM      1  C   UNL     1      -7.798  11.635   5.787  0.00  0.00    +0.000 C 
ATOM      2  H   UNL     1      -7.114  11.096   6.455  0.00  0.00    +0.000 HD
ENDROOT
BRANCH   1   5
ATOM      3  N   UNL     1     -10.170  11.924   5.424  0.00  0.00    +0.000 NA
ATOM      4  N   UNL     1     -10.772   9.962   7.336  0.00  0.00    +0.000 NA
ATOM      5  C   UNL     1      -9.234  11.260   6.106  0.00  0.00    +0.000 A 
ATOM      6  C   UNL     1      -9.502  10.304   7.039  0.00  0.00    +0.000 A 
ATOM      7  C   UNL     1     -11.440  11.581   5.720  0.00  0.00    +0.000 A 
ATOM      8  C   UNL     1     -11.736  10.617   6.659  0.00  0.00    +0.000 A 
ATOM      9  H   UNL     1     -12.215  12.108   5.177  0.00  0.00    +0.000 HD
ATOM     10  H   UNL     1     -12.755  10.343   6.896  0.00  0.00    +0.000 HD
BRANCH   6  11
ATOM     11  O   UNL     1      -8.508   9.652   7.715  0.00  0.00    +0.000 OA
BRANCH  11  12
ATOM     12  C   UNL     1      -8.661   9.530   9.126  0.00  0.00    +0.000 C 
ATOM     13  H   UNL     1      -8.484   8.486   9.393  0.00  0.00    +0.000 HD
ATOM     14  H   UNL     1      -9.680   9.790   9.433  0.00  0.00    +0.000 HD
ATOM     15  H   UNL     1      -7.926  10.145   9.654  0.00  0.00    +0.000 HD
ENDBRANCH  11  12
ENDBRANCH   6  11
ENDBRANCH   1   5
BRANCH   1  16
ATOM     16  C   UNL     1      -7.431  11.194   4.365  0.00  0.00    +0.000 C 
ATOM     17  H   UNL     1      -6.517  10.589   4.352  0.00  0.00    +0.000 HD
ATOM     18  H   UNL     1      -8.234  10.594   3.924  0.00  0.00    +0.000 HD
ATOM     19  H   UNL     1      -7.266  12.061   3.716  0.00  0.00    +0.000 HD
ENDBRANCH   1  16
BRANCH   1  20
ATOM     20  C   UNL     1      -7.506  13.138   5.973  0.00  0.00    +0.000 C 
ATOM     21  H   UNL     1      -7.452  13.391   7.039  0.00  0.00    +0.000 HD
ATOM     22  H   UNL     1      -8.335  13.721   5.552  0.00  0.00    +0.000 HD
BRANCH  20  23
ATOM     23  C   UNL     1      -6.218  13.586   5.293  0.00  0.00    +0.000 C 
ATOM     24  H   UNL     1      -5.729  14.361   5.890  0.00  0.00    +0.000 HD
ATOM     25  H   UNL     1      -5.513  12.756   5.182  0.00  0.00    +0.000 HD
ATOM     26  H   UNL     1      -6.422  14.001   4.300  0.00  0.00    +0.000 HD
ENDBRANCH  20  23
ENDBRANCH   1  20
TORSDOF 6
ENDMDL
MODEL 3
REMARK VINA RESULT:    -4.219      2.330      2.728
REMARK INTER + INTRA:          -5.564
REMARK INTER:                  -5.358
REMARK INTRA:                  -0.206
REMARK UNBOUND:                -0.235
REMARK  Name = 520098
REMARK  6 active torsions:
REMARK  status: ('A' for Active; 'I' for Inactive)
REMARK    1  A    between atoms: O_1  and  C_9
REMARK    2  A    between atoms: O_1  and  C_12
REMARK    3  A    between atoms: C_4  and  C_5
REMARK    4  A    between atoms: C_4  and  C_6
REMARK    5  A    between atoms: C_4  and  C_7
REMARK    6  A    between atoms: C_5  and  C_8
REMARK                            x       y       z     vdW  Elec       q    Type
REMARK                         _______ _______ _______ _____ _____    ______ ____
ROOT
ATOM      1  C   UNL     1      -2.117   8.467 -10.523  0.00  0.00    +0.000 C 
ATOM      2  H   UNL     1      -1.025   8.371 -10.554  0.00  0.00    +0.000 HD
ENDROOT
BRANCH   1   5
ATOM      3  N   UNL     1      -3.900   9.545 -11.750  0.00  0.00    +0.000 NA
ATOM      4  N   UNL     1      -2.159  10.178 -13.857  0.00  0.00    +0.000 NA
ATOM      5  C   UNL     1      -2.605   9.219 -11.749  0.00  0.00    +0.000 A 
ATOM      6  C   UNL     1      -1.741   9.515 -12.760  0.00  0.00    +0.000 A 
ATOM      7  C   UNL     1      -4.317  10.210 -12.847  0.00  0.00    +0.000 A 
ATOM      8  C   UNL     1      -3.463  10.521 -13.881  0.00  0.00    +0.000 A 
ATOM      9  H   UNL     1      -5.365  10.484 -12.867  0.00  0.00    +0.000 HD
ATOM     10  H   UNL     1      -3.799  11.054 -14.761  0.00  0.00    +0.000 HD
BRANCH   6  11
ATOM     11  O   UNL     1      -0.422   9.157 -12.715  0.00  0.00    +0.000 OA
BRANCH  11  12
ATOM     12  C   UNL     1       0.297   9.192 -13.944  0.00  0.00    +0.000 C 
ATOM     13  H   UNL     1      -0.046  10.062 -14.509  0.00  0.00    +0.000 HD
ATOM     14  H   UNL     1       0.091   8.298 -14.543  0.00  0.00    +0.000 HD
ATOM     15  H   UNL     1       1.371   9.304 -13.767  0.00  0.00    +0.000 HD
ENDBRANCH  11  12
ENDBRANCH   6  11
ENDBRANCH   1   5
BRANCH   1  16
ATOM     16  C   UNL     1      -2.434   9.258  -9.248  0.00  0.00    +0.000 C 
ATOM     17  H   UNL     1      -3.226   9.998  -9.416  0.00  0.00    +0.000 HD
ATOM     18  H   UNL     1      -2.767   8.589  -8.447  0.00  0.00    +0.000 HD
ATOM     19  H   UNL     1      -1.548   9.795  -8.889  0.00  0.00    +0.000 HD
ENDBRANCH   1  16
BRANCH   1  20
ATOM     20  C   UNL     1      -2.685   7.038 -10.420  0.00  0.00    +0.000 C 
ATOM     21  H   UNL     1      -1.886   6.296 -10.545  0.00  0.00    +0.000 HD
ATOM     22  H   UNL     1      -3.399   6.873 -11.237  0.00  0.00    +0.000 HD
BRANCH  20  23
ATOM     23  C   UNL     1      -3.403   6.772  -9.103  0.00  0.00    +0.000 C 
ATOM     24  H   UNL     1      -3.263   5.730  -8.802  0.00  0.00    +0.000 HD
ATOM     25  H   UNL     1      -3.015   7.406  -8.299  0.00  0.00    +0.000 HD
ATOM     26  H   UNL     1      -4.479   6.955  -9.198  0.00  0.00    +0.000 HD
ENDBRANCH  20  23
ENDBRANCH   1  20
TORSDOF 6
ENDMDL
MODEL 4
REMARK VINA RESULT:    -4.178     32.667     34.649
REMARK INTER + INTRA:          -5.512
REMARK INTER:                  -5.327
REMARK INTRA:                  -0.185
REMARK UNBOUND:                -0.235
REMARK  Name = 520098
REMARK  6 active torsions:
REMARK  status: ('A' for Active; 'I' for Inactive)
REMARK    1  A    between atoms: O_1  and  C_9
REMARK    2  A    between atoms: O_1  and  C_12
REMARK    3  A    between atoms: C_4  and  C_5
REMARK    4  A    between atoms: C_4  and  C_6
REMARK    5  A    between atoms: C_4  and  C_7
REMARK    6  A    between atoms: C_5  and  C_8
REMARK                            x       y       z     vdW  Elec       q    Type
REMARK                         _______ _______ _______ _____ _____    ______ ____
ROOT
ATOM      1  C   UNL     1     -10.838 -12.625  17.282  0.00  0.00    +0.000 C 
ATOM      2  H   UNL     1     -11.791 -12.249  17.674  0.00  0.00    +0.000 HD
ENDROOT
BRANCH   1   5
ATOM      3  N   UNL     1      -9.157 -12.038  15.645  0.00  0.00    +0.000 NA
ATOM      4  N   UNL     1     -10.469  -9.628  15.061  0.00  0.00    +0.000 NA
ATOM      5  C   UNL     1     -10.289 -11.661  16.244  0.00  0.00    +0.000 A 
ATOM      6  C   UNL     1     -10.943 -10.496  15.978  0.00  0.00    +0.000 A 
ATOM      7  C   UNL     1      -8.683 -11.171  14.728  0.00  0.00    +0.000 A 
ATOM      8  C   UNL     1      -9.327  -9.988  14.441  0.00  0.00    +0.000 A 
ATOM      9  H   UNL     1      -7.765 -11.459  14.231  0.00  0.00    +0.000 HD
ATOM     10  H   UNL     1      -8.945  -9.292  13.705  0.00  0.00    +0.000 HD
BRANCH   6  11
ATOM     11  O   UNL     1     -12.101 -10.151  16.619  0.00  0.00    +0.000 OA
BRANCH  11  12
ATOM     12  C   UNL     1     -13.064  -9.424  15.862  0.00  0.00    +0.000 C 
ATOM     13  H   UNL     1     -12.529  -8.690  15.255  0.00  0.00    +0.000 HD
ATOM     14  H   UNL     1     -13.752  -8.883  16.521  0.00  0.00    +0.000 HD
ATOM     15  H   UNL     1     -13.612 -10.087  15.186  0.00  0.00    +0.000 HD
ENDBRANCH  11  12
ENDBRANCH   6  11
ENDBRANCH   1   5
BRANCH   1  16
ATOM     16  C   UNL     1     -11.152 -13.982  16.641  0.00  0.00    +0.000 C 
ATOM     17  H   UNL     1     -12.058 -14.430  17.065  0.00  0.00    +0.000 HD
ATOM     18  H   UNL     1     -11.306 -13.876  15.561  0.00  0.00    +0.000 HD
ATOM     19  H   UNL     1     -10.328 -14.688  16.794  0.00  0.00    +0.000 HD
ENDBRANCH   1  16
BRANCH   1  20
ATOM     20  C   UNL     1      -9.902 -12.809  18.494  0.00  0.00    +0.000 C 
ATOM     21  H   UNL     1      -9.140 -12.020  18.516  0.00  0.00    +0.000 HD
ATOM     22  H   UNL     1      -9.366 -13.761  18.395  0.00  0.00    +0.000 HD
BRANCH  20  23
ATOM     23  C   UNL     1     -10.643 -12.819  19.825  0.00  0.00    +0.000 C 
ATOM     24  H   UNL     1     -10.587 -11.831  20.292  0.00  0.00    +0.000 HD
ATOM     25  H   UNL     1     -11.701 -13.065  19.695  0.00  0.00    +0.000 HD
ATOM     26  H   UNL     1     -10.201 -13.545  20.515  0.00  0.00    +0.000 HD
ENDBRANCH  20  23
ENDBRANCH   1  20
TORSDOF 6
ENDMDL
MODEL 5
REMARK VINA RESULT:    -4.077     32.904     34.623
REMARK INTER + INTRA:          -5.385
REMARK INTER:                  -5.165
REMARK INTRA:                  -0.219
REMARK UNBOUND:                -0.235
REMARK  Name = 520098
REMARK  6 active torsions:
REMARK  status: ('A' for Active; 'I' for Inactive)
REMARK    1  A    between atoms: O_1  and  C_9
REMARK    2  A    between atoms: O_1  and  C_12
REMARK    3  A    between atoms: C_4  and  C_5
REMARK    4  A    between atoms: C_4  and  C_6
REMARK    5  A    between atoms: C_4  and  C_7
REMARK    6  A    between atoms: C_5  and  C_8
REMARK                            x       y       z     vdW  Elec       q    Type
REMARK                         _______ _______ _______ _____ _____    ______ ____
ROOT
ATOM      1  C   UNL     1     -11.562 -11.040  16.681  0.00  0.00    +0.000 C 
ATOM      2  H   UNL     1     -11.540 -10.986  17.776  0.00  0.00    +0.000 HD
ENDROOT
BRANCH   1   5
ATOM      3  N   UNL     1      -9.910 -10.787  14.934  0.00  0.00    +0.000 NA
ATOM      4  N   UNL     1      -8.010 -12.209  16.431  0.00  0.00    +0.000 NA
ATOM      5  C   UNL     1     -10.162 -11.286  16.147  0.00  0.00    +0.000 A 
ATOM      6  C   UNL     1      -9.257 -11.979  16.891  0.00  0.00    +0.000 A 
ATOM      7  C   UNL     1      -8.663 -11.016  14.474  0.00  0.00    +0.000 A 
ATOM      8  C   UNL     1      -7.730 -11.714  15.209  0.00  0.00    +0.000 A 
ATOM      9  H   UNL     1      -8.438 -10.619  13.491  0.00  0.00    +0.000 HD
ATOM     10  H   UNL     1      -6.730 -11.897  14.838  0.00  0.00    +0.000 HD
BRANCH   6  11
ATOM     11  O   UNL     1      -9.562 -12.473  18.129  0.00  0.00    +0.000 OA
BRANCH  11  12
ATOM     12  C   UNL     1      -9.650 -13.889  18.254  0.00  0.00    +0.000 C 
ATOM     13  H   UNL     1      -9.558 -14.321  17.254  0.00  0.00    +0.000 HD
ATOM     14  H   UNL     1     -10.622 -14.187  18.662  0.00  0.00    +0.000 HD
ATOM     15  H   UNL     1      -8.833 -14.280  18.868  0.00  0.00    +0.000 HD
ENDBRANCH  11  12
ENDBRANCH   6  11
ENDBRANCH   1   5
BRANCH   1  16
ATOM     16  C   UNL     1     -12.087  -9.680  16.204  0.00  0.00    +0.000 C 
ATOM     17  H   UNL     1     -12.309  -9.014  17.046  0.00  0.00    +0.000 HD
ATOM     18  H   UNL     1     -11.350  -9.180  15.567  0.00  0.00    +0.000 HD
ATOM     19  H   UNL     1     -13.008  -9.798  15.621  0.00  0.00    +0.000 HD
ENDBRANCH   1  16
BRANCH   1  20
ATOM     20  C   UNL     1     -12.559 -12.157  16.311  0.00  0.00    +0.000 C 
ATOM     21  H   UNL     1     -12.726 -12.823  17.168  0.00  0.00    +0.000 HD
ATOM     22  H   UNL     1     -12.130 -12.774  15.512  0.00  0.00    +0.000 HD
BRANCH  20  23
ATOM     23  C   UNL     1     -13.902 -11.625  15.830  0.00  0.00    +0.000 C 
ATOM     24  H   UNL     1     -13.777 -10.629  15.394  0.00  0.00    +0.000 HD
ATOM     25  H   UNL     1     -14.340 -12.271  15.062  0.00  0.00    +0.000 HD
ATOM     26  H   UNL     1     -14.613 -11.545  16.659  0.00  0.00    +0.000 HD
ENDBRANCH  20  23
ENDBRANCH   1  20
TORSDOF 6
ENDMDL
MODEL 6
REMARK VINA RESULT:    -3.893     17.958     19.790
REMARK INTER + INTRA:          -5.151
REMARK INTER:                  -4.926
REMARK INTRA:                  -0.226
REMARK UNBOUND:                -0.235
REMARK  Name = 520098
REMARK  6 active torsions:
REMARK  status: ('A' for Active; 'I' for Inactive)
REMARK    1  A    between atoms: O_1  and  C_9
REMARK    2  A    between atoms: O_1  and  C_12
REMARK    3  A    between atoms: C_4  and  C_5
REMARK    4  A    between atoms: C_4  and  C_6
REMARK    5  A    between atoms: C_4  and  C_7
REMARK    6  A    between atoms: C_5  and  C_8
REMARK                            x       y       z     vdW  Elec       q    Type
REMARK                         _______ _______ _______ _____ _____    ______ ____
ROOT
ATOM      1  C   UNL     1      -7.300  12.112   5.469  0.00  0.00    +0.000 C 
ATOM      2  H   UNL     1      -6.307  12.021   5.927  0.00  0.00    +0.000 HD
ENDROOT
BRANCH   1   5
ATOM      3  N   UNL     1      -9.478  11.189   5.965  0.00  0.00    +0.000 NA
ATOM      4  N   UNL     1      -9.113  11.623   8.712  0.00  0.00    +0.000 NA
ATOM      5  C   UNL     1      -8.371  11.731   6.476  0.00  0.00    +0.000 A 
ATOM      6  C   UNL     1      -8.171  11.953   7.805  0.00  0.00    +0.000 A 
ATOM      7  C   UNL     1     -10.420  10.859   6.872  0.00  0.00    +0.000 A 
ATOM      8  C   UNL     1     -10.240  11.072   8.221  0.00  0.00    +0.000 A 
ATOM      9  H   UNL     1     -11.327  10.417   6.478  0.00  0.00    +0.000 HD
ATOM     10  H   UNL     1     -10.997  10.808   8.948  0.00  0.00    +0.000 HD
BRANCH   6  11
ATOM     11  O   UNL     1      -7.018  12.514   8.281  0.00  0.00    +0.000 OA
BRANCH  11  12
ATOM     12  C   UNL     1      -6.676  12.230   9.635  0.00  0.00    +0.000 C 
ATOM     13  H   UNL     1      -7.161  11.292   9.914  0.00  0.00    +0.000 HD
ATOM     14  H   UNL     1      -7.044  13.015  10.304  0.00  0.00    +0.000 HD
ATOM     15  H   UNL     1      -5.595  12.098   9.746  0.00  0.00    +0.000 HD
ENDBRANCH  11  12
ENDBRANCH   6  11
ENDBRANCH   1   5
BRANCH   1  16
ATOM     16  C   UNL     1      -7.306  11.137   4.285  0.00  0.00    +0.000 C 
ATOM     17  H   UNL     1      -6.780  10.205   4.524  0.00  0.00    +0.000 HD
ATOM     18  H   UNL     1      -8.332  10.877   4.000  0.00  0.00    +0.000 HD
ATOM     19  H   UNL     1      -6.819  11.580   3.409  0.00  0.00    +0.000 HD
ENDBRANCH   1  16
BRANCH   1  20
ATOM     20  C   UNL     1      -7.426  13.564   4.966  0.00  0.00    +0.000 C 
ATOM     21  H   UNL     1      -8.349  14.023   5.342  0.00  0.00    +0.000 HD
ATOM     22  H   UNL     1      -7.498  13.563   3.872  0.00  0.00    +0.000 HD
BRANCH  20  23
ATOM     23  C   UNL     1      -6.243  14.438   5.363  0.00  0.00    +0.000 C 
ATOM     24  H   UNL     1      -6.335  15.426   4.901  0.00  0.00    +0.000 HD
ATOM     25  H   UNL     1      -6.193  14.581   6.447  0.00  0.00    +0.000 HD
ATOM     26  H   UNL     1      -5.298  13.996   5.029  0.00  0.00    +0.000 HD
ENDBRANCH  20  23
ENDBRANCH   1  20
TORSDOF 6
ENDMDL
MODEL 7
REMARK VINA RESULT:    -3.852      1.696      2.583
REMARK INTER + INTRA:          -5.100
REMARK INTER:                  -4.965
REMARK INTRA:                  -0.135
REMARK UNBOUND:                -0.235
REMARK  Name = 520098
REMARK  6 active torsions:
REMARK  status: ('A' for Active; 'I' for Inactive)
REMARK    1  A    between atoms: O_1  and  C_9
REMARK    2  A    between atoms: O_1  and  C_12
REMARK    3  A    between atoms: C_4  and  C_5
REMARK    4  A    between atoms: C_4  and  C_6
REMARK    5  A    between atoms: C_4  and  C_7
REMARK    6  A    between atoms: C_5  and  C_8
REMARK                            x       y       z     vdW  Elec       q    Type
REMARK                         _______ _______ _______ _____ _____    ______ ____
ROOT
ATOM      1  C   UNL     1      -2.964   8.283 -10.739  0.00  0.00    +0.000 C 
ATOM      2  H   UNL     1      -4.008   8.436 -11.040  0.00  0.00    +0.000 HD
ENDROOT
BRANCH   1   5
ATOM      3  N   UNL     1      -0.863   8.931 -11.745  0.00  0.00    +0.000 NA
ATOM      4  N   UNL     1      -1.690   7.976 -14.250  0.00  0.00    +0.000 NA
ATOM      5  C   UNL     1      -2.057   8.372 -11.954  0.00  0.00    +0.000 A 
ATOM      6  C   UNL     1      -2.481   7.903 -13.161  0.00  0.00    +0.000 A 
ATOM      7  C   UNL     1      -0.071   9.003 -12.834  0.00  0.00    +0.000 A 
ATOM      8  C   UNL     1      -0.477   8.535 -14.065  0.00  0.00    +0.000 A 
ATOM      9  H   UNL     1       0.903   9.453 -12.686  0.00  0.00    +0.000 HD
ATOM     10  H   UNL     1       0.159   8.595 -14.938  0.00  0.00    +0.000 HD
BRANCH   6  11
ATOM     11  O   UNL     1      -3.716   7.340 -13.327  0.00  0.00    +0.000 OA
BRANCH  11  12
ATOM     12  C   UNL     1      -3.835   6.330 -14.325  0.00  0.00    +0.000 C 
ATOM     13  H   UNL     1      -3.798   5.359 -13.825  0.00  0.00    +0.000 HD
ATOM     14  H   UNL     1      -3.000   6.379 -15.032  0.00  0.00    +0.000 HD
ATOM     15  H   UNL     1      -4.793   6.406 -14.847  0.00  0.00    +0.000 HD
ENDBRANCH  11  12
ENDBRANCH   6  11
ENDBRANCH   1   5
BRANCH   1  16
ATOM     16  C   UNL     1      -2.903   6.879 -10.126  0.00  0.00    +0.000 C 
ATOM     17  H   UNL     1      -3.554   6.176 -10.659  0.00  0.00    +0.000 HD
ATOM     18  H   UNL     1      -1.882   6.482 -10.162  0.00  0.00    +0.000 HD
ATOM     19  H   UNL     1      -3.219   6.895  -9.077  0.00  0.00    +0.000 HD
ENDBRANCH   1  16
BRANCH   1  20
ATOM     20  C   UNL     1      -2.651   9.348  -9.669  0.00  0.00    +0.000 C 
ATOM     21  H   UNL     1      -3.166  10.290  -9.899  0.00  0.00    +0.000 HD
ATOM     22  H   UNL     1      -1.576   9.567  -9.680  0.00  0.00    +0.000 HD
BRANCH  20  23
ATOM     23  C   UNL     1      -3.030   8.910  -8.260  0.00  0.00    +0.000 C 
ATOM     24  H   UNL     1      -4.080   8.601  -8.233  0.00  0.00    +0.000 HD
ATOM     25  H   UNL     1      -2.425   8.061  -7.926  0.00  0.00    +0.000 HD
ATOM     26  H   UNL     1      -2.900   9.729  -7.545  0.00  0.00    +0.000 HD
ENDBRANCH  20  23
ENDBRANCH   1  20
TORSDOF 6
ENDMDL
MODEL 8
REMARK VINA RESULT:    -3.834      9.235     10.840
REMARK INTER + INTRA:          -5.077
REMARK INTER:                  -4.789
REMARK INTRA:                  -0.288
REMARK UNBOUND:                -0.235
REMARK  Name = 520098
REMARK  6 active torsions:
REMARK  status: ('A' for Active; 'I' for Inactive)
REMARK    1  A    between atoms: O_1  and  C_9
REMARK    2  A    between atoms: O_1  and  C_12
REMARK    3  A    between atoms: C_4  and  C_5
REMARK    4  A    between atoms: C_4  and  C_6
REMARK    5  A    between atoms: C_4  and  C_7
REMARK    6  A    between atoms: C_5  and  C_8
REMARK                            x       y       z     vdW  Elec       q    Type
REMARK                         _______ _______ _______ _____ _____    ______ ____
ROOT
ATOM      1  C   UNL     1       3.105  -0.108 -15.469  0.00  0.00    +0.000 C 
ATOM      2  H   UNL     1       3.121  -1.107 -15.921  0.00  0.00    +0.000 HD
ENDROOT
BRANCH   1   5
ATOM      3  N   UNL     1       1.765   1.116 -13.872  0.00  0.00    +0.000 NA
ATOM      4  N   UNL     1       0.931  -1.264 -12.644  0.00  0.00    +0.000 NA
ATOM      5  C   UNL     1       2.159  -0.092 -14.281  0.00  0.00    +0.000 A 
ATOM      6  C   UNL     1       1.768  -1.261 -13.701  0.00  0.00    +0.000 A 
ATOM      7  C   UNL     1       0.927   1.112 -12.816  0.00  0.00    +0.000 A 
ATOM      8  C   UNL     1       0.517  -0.056 -12.213  0.00  0.00    +0.000 A 
ATOM      9  H   UNL     1       0.595   2.083 -12.468  0.00  0.00    +0.000 HD
ATOM     10  H   UNL     1      -0.155  -0.058 -11.365  0.00  0.00    +0.000 HD
BRANCH   6  11
ATOM     11  O   UNL     1       2.201  -2.476 -14.155  0.00  0.00    +0.000 OA
BRANCH  11  12
ATOM     12  C   UNL     1       3.137  -3.173 -13.338  0.00  0.00    +0.000 C 
ATOM     13  H   UNL     1       3.773  -2.430 -12.848  0.00  0.00    +0.000 HD
ATOM     14  H   UNL     1       3.778  -3.821 -13.944  0.00  0.00    +0.000 HD
ATOM     15  H   UNL     1       2.626  -3.747 -12.559  0.00  0.00    +0.000 HD
ENDBRANCH  11  12
ENDBRANCH   6  11
ENDBRANCH   1   5
BRANCH   1  16
ATOM     16  C   UNL     1       2.607   0.842 -16.565  0.00  0.00    +0.000 C 
ATOM     17  H   UNL     1       3.430   1.411 -17.012  0.00  0.00    +0.000 HD
ATOM     18  H   UNL     1       2.112   0.284 -17.367  0.00  0.00    +0.000 HD
ATOM     19  H   UNL     1       1.885   1.561 -16.162  0.00  0.00    +0.000 HD
ENDBRANCH   1  16
BRANCH   1  20
ATOM     20  C   UNL     1       4.562   0.229 -15.090  0.00  0.00    +0.000 C 
ATOM     21  H   UNL     1       4.614   0.615 -14.064  0.00  0.00    +0.000 HD
ATOM     22  H   UNL     1       4.929   1.028 -15.746  0.00  0.00    +0.000 HD
BRANCH  20  23
ATOM     23  C   UNL     1       5.504  -0.961 -15.219  0.00  0.00    +0.000 C 
ATOM     24  H   UNL     1       5.678  -1.189 -16.275  0.00  0.00    +0.000 HD
ATOM     25  H   UNL     1       6.476  -0.757 -14.758  0.00  0.00    +0.000 HD
ATOM     26  H   UNL     1       5.078  -1.852 -14.746  0.00  0.00    +0.000 HD
ENDBRANCH  20  23
ENDBRANCH   1  20
TORSDOF 6
ENDMDL
MODEL 9
REMARK VINA RESULT:    -3.832     19.995     21.292
REMARK INTER + INTRA:          -5.074
REMARK INTER:                  -4.793
REMARK INTRA:                  -0.281
REMARK UNBOUND:                -0.235
REMARK  Name = 520098
REMARK  6 active torsions:
REMARK  status: ('A' for Active; 'I' for Inactive)
REMARK    1  A    between atoms: O_1  and  C_9
REMARK    2  A    between atoms: O_1  and  C_12
REMARK    3  A    between atoms: C_4  and  C_5
REMARK    4  A    between atoms: C_4  and  C_6
REMARK    5  A    between atoms: C_4  and  C_7
REMARK    6  A    between atoms: C_5  and  C_8
REMARK                            x       y       z     vdW  Elec       q    Type
REMARK                         _______ _______ _______ _____ _____    ______ ____
ROOT
ATOM      1  C   UNL     1       8.209   9.840   6.494  0.00  0.00    +0.000 C 
ATOM      2  H   UNL     1       7.295  10.232   6.957  0.00  0.00    +0.000 HD
ENDROOT
BRANCH   1   5
ATOM      3  N   UNL     1       9.577  10.551   4.631  0.00  0.00    +0.000 NA
ATOM      4  N   UNL     1       9.452  13.225   5.471  0.00  0.00    +0.000 NA
ATOM      5  C   UNL     1       8.909  10.943   5.719  0.00  0.00    +0.000 A 
ATOM      6  C   UNL     1       8.835  12.234   6.146  0.00  0.00    +0.000 A 
ATOM      7  C   UNL     1      10.193  11.542   3.956  0.00  0.00    +0.000 A 
ATOM      8  C   UNL     1      10.133  12.855   4.368  0.00  0.00    +0.000 A 
ATOM      9  H   UNL     1      10.741  11.245   3.070  0.00  0.00    +0.000 HD
ATOM     10  H   UNL     1      10.629  13.649   3.825  0.00  0.00    +0.000 HD
BRANCH   6  11
ATOM     11  O   UNL     1       8.139  12.587   7.269  0.00  0.00    +0.000 OA
BRANCH  11  12
ATOM     12  C   UNL     1       8.853  13.307   8.270  0.00  0.00    +0.000 C 
ATOM     13  H   UNL     1       8.774  12.747   9.206  0.00  0.00    +0.000 HD
ATOM     14  H   UNL     1       8.412  14.297   8.430  0.00  0.00    +0.000 HD
ATOM     15  H   UNL     1       9.913  13.388   8.012  0.00  0.00    +0.000 HD
ENDBRANCH  11  12
ENDBRANCH   6  11
ENDBRANCH   1   5
BRANCH   1  16
ATOM     16  C   UNL     1       7.755   8.723   5.546  0.00  0.00    +0.000 C 
ATOM     17  H   UNL     1       6.740   8.382   5.779  0.00  0.00    +0.000 HD
ATOM     18  H   UNL     1       7.761   9.068   4.506  0.00  0.00    +0.000 HD
ATOM     19  H   UNL     1       8.422   7.856   5.615  0.00  0.00    +0.000 HD
ENDBRANCH   1  16
BRANCH   1  20
ATOM     20  C   UNL     1       9.069   9.259   7.633  0.00  0.00    +0.000 C 
ATOM     21  H   UNL     1      10.090   9.658   7.588  0.00  0.00    +0.000 HD
ATOM     22  H   UNL     1       9.150   8.172   7.506  0.00  0.00    +0.000 HD
BRANCH  20  23
ATOM     23  C   UNL     1       8.493   9.532   9.017  0.00  0.00    +0.000 C 
ATOM     24  H   UNL     1       7.408   9.392   9.006  0.00  0.00    +0.000 HD
ATOM     25  H   UNL     1       8.908   8.852   9.767  0.00  0.00    +0.000 HD
ATOM     26  H   UNL     1       8.698  10.561   9.332  0.00  0.00    +0.000 HD
ENDBRANCH  20  23
ENDBRANCH   1  20
TORSDOF 6
ENDMDL
MODEL 10
REMARK VINA RESULT:    -3.796     19.755     20.920
REMARK INTER + INTRA:          -5.029
REMARK INTER:                  -4.794
REMARK INTRA:                  -0.235
REMARK UNBOUND:                -0.235
REMARK  Name = 520098
REMARK  6 active torsions:
REMARK  status: ('A' for Active; 'I' for Inactive)
REMARK    1  A    between atoms: O_1  and  C_9
REMARK    2  A    between atoms: O_1  and  C_12
REMARK    3  A    between atoms: C_4  and  C_5
REMARK    4  A    between atoms: C_4  and  C_6
REMARK    5  A    between atoms: C_4  and  C_7
REMARK    6  A    between atoms: C_5  and  C_8
REMARK                            x       y       z     vdW  Elec       q    Type
REMARK                         _______ _______ _______ _____ _____    ______ ____
ROOT
ATOM      1  C   UNL     1       8.583   9.814   6.714  0.00  0.00    +0.000 C 
ATOM      2  H   UNL     1       9.303   9.171   6.191  0.00  0.00    +0.000 HD
ENDROOT
BRANCH   1   5
ATOM      3  N   UNL     1       8.524  12.117   7.444  0.00  0.00    +0.000 NA
ATOM      4  N   UNL     1       9.965  12.943   5.183  0.00  0.00    +0.000 NA
ATOM      5  C   UNL     1       8.941  11.273   6.497  0.00  0.00    +0.000 A 
ATOM      6  C   UNL     1       9.642  11.651   5.391  0.00  0.00    +0.000 A 
ATOM      7  C   UNL     1       8.849  13.409   7.236  0.00  0.00    +0.000 A 
ATOM      8  C   UNL     1       9.556  13.815   6.126  0.00  0.00    +0.000 A 
ATOM      9  H   UNL     1       8.519  14.111   7.993  0.00  0.00    +0.000 HD
ATOM     10  H   UNL     1       9.815  14.853   5.960  0.00  0.00    +0.000 HD
BRANCH   6  11
ATOM     11  O   UNL     1      10.046  10.748   4.447  0.00  0.00    +0.000 OA
BRANCH  11  12
ATOM     12  C   UNL     1      10.694  11.273   3.292  0.00  0.00    +0.000 C 
ATOM     13  H   UNL     1      11.621  10.713   3.144  0.00  0.00    +0.000 HD
ATOM     14  H   UNL     1      10.955  12.327   3.434  0.00  0.00    +0.000 HD
ATOM     15  H   UNL     1      10.073  11.140   2.401  0.00  0.00    +0.000 HD
ENDBRANCH  11  12
ENDBRANCH   6  11
ENDBRANCH   1   5
BRANCH   1  16
ATOM     16  C   UNL     1       8.694   9.448   8.199  0.00  0.00    +0.000 C 
ATOM     17  H   UNL     1       7.868   9.870   8.783  0.00  0.00    +0.000 HD
ATOM     18  H   UNL     1       8.678   8.361   8.335  0.00  0.00    +0.000 HD
ATOM     19  H   UNL     1       9.630   9.825   8.627  0.00  0.00    +0.000 HD
ENDBRANCH   1  16
BRANCH   1  20
ATOM     20  C   UNL     1       7.187   9.444   6.175  0.00  0.00    +0.000 C 
ATOM     21  H   UNL     1       6.634  10.347   5.886  0.00  0.00    +0.000 HD
ATOM     22  H   UNL     1       6.608   8.962   6.973  0.00  0.00    +0.000 HD
BRANCH  20  23
ATOM     23  C   UNL     1       7.237   8.494   4.985  0.00  0.00    +0.000 C 
ATOM     24  H   UNL     1       6.615   7.615   5.180  0.00  0.00    +0.000 HD
ATOM     25  H   UNL     1       6.862   8.971   4.074  0.00  0.00    +0.000 HD
ATOM     26  H   UNL     1       8.260   8.150   4.800  0.00  0.00    +0.000 HD
ENDBRANCH  20  23
ENDBRANCH   1  20
TORSDOF 6
ENDMDL
